MODEL        1
REMARK 921   NORMALIZED FREE ENERGY PREDICTED BY IDOCK:   -7.97 KCAL/MOL
REMARK 922        TOTAL FREE ENERGY PREDICTED BY IDOCK:  -12.29 KCAL/MOL
REMARK 923 INTER-LIGAND FREE ENERGY PREDICTED BY IDOCK:  -10.76 KCAL/MOL
REMARK 924 INTRA-LIGAND FREE ENERGY PREDICTED BY IDOCK:   -1.52 KCAL/MOL
REMARK 927      BINDING AFFINITY PREDICTED BY RF-SCORE:    0.00 PKD
ROOT
HETATM    1  CA  UNL     1     -11.453  15.070  66.956  1.00  0.00    -0.284 C  
HETATM    2  C   UNL     1      -8.712  12.034  66.853  1.00  0.00    -0.193 C  
HETATM    3  C   UNL     1     -12.112  14.204  65.818  1.00  0.00    -0.420 C  
HETATM    4  O   UNL     1     -13.168  14.091  65.241  1.00  0.00    -0.782 OA 
HETATM    5  O   UNL     1     -12.574  12.158  63.703  1.00  0.00    -0.623 OA 
HETATM    6  OXT UNL     1     -10.779  11.005  63.090  1.00  0.00    -0.203 OA 
HETATM    7  N   UNL     1     -11.022  13.412  65.762  1.00  0.00    -0.277 N  
HETATM    8  C   UNL     1      -9.533  11.591  65.647  1.00  0.00    -0.244 C  
HETATM    9  CA  UNL     1     -10.602  12.266  65.143  1.00  0.00    -0.285 C  
HETATM   10  S   UNL     1      -9.526  13.214  67.949  1.00  0.00    -0.225 SA 
HETATM   11  C   UNL     1     -10.173  14.237  66.603  1.00  0.00    -0.272 C  
HETATM   12  C   UNL     1     -11.307  11.750  63.903  1.00  0.00    -0.411 C  
ENDROOT
BRANCH   1  13
HETATM   13  N   UNL     1     -11.980  14.865  68.333  1.00  0.00    -0.538 N  
HETATM   14  O   UNL     1     -10.676  16.429  69.383  1.00  0.00    -0.284 OA 
HETATM   15  C   UNL     1     -11.568  15.595  69.424  1.00  0.00    -0.370 C  
HETATM   16  H   UNL     1     -12.686  14.142  68.476  1.00  0.00     0.000 HD 
BRANCH  15  17
HETATM   17  C   UNL     1     -12.318  15.294  70.729  1.00  0.00    -0.380 C  
BRANCH  17  18
HETATM   18  N   UNL     1     -12.740  16.214  71.562  1.00  0.00    -0.468 NA 
HETATM   19  H   UNL     1     -13.569  16.781  71.383  1.00  0.00     0.000 HD 
HETATM   20  O   UNL     1     -11.965  16.355  72.717  1.00  0.00    -0.531 OA 
HETATM   21  H   UNL     1     -12.271  17.022  73.321  1.00  0.00     0.000 HD 
ENDBRANCH  17  18
BRANCH  17  22
HETATM   22  C   UNL     1     -12.610  13.903  71.083  1.00  0.00    -0.370 A  
HETATM   23  S   UNL     1     -13.501  11.943  72.199  1.00  0.00     0.079 SA 
HETATM   24  H1  UNL     1     -11.400  10.356  69.648  1.00  0.00     0.000 HD 
HETATM   25  N   UNL     1     -13.428  13.605  72.102  1.00  0.00    -0.467 NA 
HETATM   26  N   UNL     1     -11.999  12.841  70.391  1.00  0.00    -0.307 NA 
HETATM   27  H2  UNL     1     -12.435   9.672  70.879  1.00  0.00     0.000 HD 
HETATM   28  C   UNL     1     -12.413  11.704  70.889  1.00  0.00    -0.341 A  
HETATM   29  N   UNL     1     -12.045  10.498  70.426  1.00  0.00    -0.304 NA 
ENDBRANCH  17  22
ENDBRANCH  15  17
ENDBRANCH   1  13
BRANCH   8  30
HETATM   30  C   UNL     1      -8.989  10.325  65.141  1.00  0.00    -0.220 C  
HETATM   31  C   UNL     1     -10.243   8.624  66.624  1.00  0.00    -0.343 C  
HETATM   32  C   UNL     1      -9.286   9.094  65.586  1.00  0.00    -0.296 C  
HETATM   33  C   UNL     1      -9.575   7.355  67.128  1.00  0.00    -0.159 C  
HETATM   34  N   UNL     1      -8.680   6.921  66.072  1.00  0.00    -0.144 N  
HETATM   35  C   UNL     1      -8.539   7.899  65.095  1.00  0.00    -0.027 C  
HETATM   36  O   UNL     1      -7.949   7.838  64.033  1.00  0.00    -0.132 OA 
BRANCH  34  37
HETATM   37  C   UNL     1      -8.270   5.517  65.909  1.00  0.00    -0.121 C  
HETATM   38  C   UNL     1      -8.898   4.830  64.694  1.00  0.00    -0.152 C  
HETATM   39  C   UNL     1     -10.244   4.363  65.219  1.00  0.00    -0.210 C  
HETATM   40  N   UNL     1     -10.027   3.982  66.613  1.00  0.00    -0.359 NA 
HETATM   41  H   UNL     1     -10.087   2.976  66.766  1.00  0.00     0.000 HD 
HETATM   42  C   UNL     1      -8.728   4.556  67.024  1.00  0.00    -0.104 C  
ENDBRANCH  34  37
ENDBRANCH   8  30
TORSDOF 6
ENDMDL
MODEL        2
REMARK 921   NORMALIZED FREE ENERGY PREDICTED BY IDOCK:   -7.83 KCAL/MOL
REMARK 922        TOTAL FREE ENERGY PREDICTED BY IDOCK:  -12.10 KCAL/MOL
REMARK 923 INTER-LIGAND FREE ENERGY PREDICTED BY IDOCK:  -11.15 KCAL/MOL
REMARK 924 INTRA-LIGAND FREE ENERGY PREDICTED BY IDOCK:   -0.95 KCAL/MOL
REMARK 927      BINDING AFFINITY PREDICTED BY RF-SCORE:    0.00 PKD
ROOT
HETATM    1  CA  UNL     1     -11.328  16.234  69.272  1.00  0.00    -0.288 C  
HETATM    2  C   UNL     1     -11.654  12.164  69.021  1.00  0.00    -0.319 C  
HETATM    3  C   UNL     1     -11.838  15.954  70.736  1.00  0.00    -0.391 C  
HETATM    4  O   UNL     1     -11.905  16.505  71.809  1.00  0.00    -0.423 OA 
HETATM    5  O   UNL     1     -12.961  14.625  73.154  1.00  0.00    -0.490 OA 
HETATM    6  OXT UNL     1     -13.882  12.636  72.802  1.00  0.00    -0.325 OA 
HETATM    7  N   UNL     1     -12.093  14.668  70.422  1.00  0.00    -0.297 N  
HETATM    8  C   UNL     1     -12.276  12.320  70.403  1.00  0.00    -0.371 C  
HETATM    9  CA  UNL     1     -12.488  13.509  71.032  1.00  0.00    -0.369 C  
HETATM   10  S   UNL     1     -10.695  13.579  68.441  1.00  0.00    -0.264 SA 
HETATM   11  C   UNL     1     -11.908  14.807  68.988  1.00  0.00    -0.302 C  
HETATM   12  C   UNL     1     -13.165  13.537  72.389  1.00  0.00    -0.477 C  
ENDROOT
BRANCH   1  13
HETATM   13  N   UNL     1      -9.856  16.364  69.098  1.00  0.00    -0.271 N  
HETATM   14  O   UNL     1      -9.857  18.437  68.123  1.00  0.00    -0.308 OA 
HETATM   15  C   UNL     1      -9.246  17.479  68.570  1.00  0.00    -0.278 C  
HETATM   16  H   UNL     1      -9.266  15.584  69.386  1.00  0.00     0.000 HD 
BRANCH  15  17
HETATM   17  C   UNL     1      -7.711  17.447  68.579  1.00  0.00    -0.267 C  
BRANCH  17  18
HETATM   18  N   UNL     1      -6.999  16.354  68.458  1.00  0.00    -0.147 NA 
HETATM   19  H   UNL     1      -7.419  15.426  68.400  1.00  0.00     0.000 HD 
HETATM   20  O   UNL     1      -5.617  16.559  68.414  1.00  0.00    -0.112 OA 
HETATM   21  H   UNL     1      -5.100  15.767  68.326  1.00  0.00     0.000 HD 
ENDBRANCH  17  18
BRANCH  17  22
HETATM   22  C   UNL     1      -6.969  18.704  68.714  1.00  0.00    -0.289 A  
HETATM   23  S   UNL     1      -5.832  20.780  68.190  1.00  0.00    -0.343 SA 
HETATM   24  H1  UNL     1      -5.348  20.656  71.821  1.00  0.00     0.000 HD 
HETATM   25  N   UNL     1      -6.682  19.456  67.642  1.00  0.00    -0.213 NA 
HETATM   26  N   UNL     1      -6.496  19.129  69.968  1.00  0.00    -0.138 NA 
HETATM   27  H2  UNL     1      -4.866  21.844  70.633  1.00  0.00     0.000 HD 
HETATM   28  C   UNL     1      -5.867  20.268  69.831  1.00  0.00    -0.346 A  
HETATM   29  N   UNL     1      -5.326  20.960  70.848  1.00  0.00    -0.545 NA 
ENDBRANCH  17  22
ENDBRANCH  15  17
ENDBRANCH   1  13
BRANCH   8  30
HETATM   30  C   UNL     1     -12.586  10.988  70.937  1.00  0.00    -0.488 C  
HETATM   31  C   UNL     1     -10.388   9.731  70.432  1.00  0.00    -0.354 C  
HETATM   32  C   UNL     1     -11.784   9.911  70.915  1.00  0.00    -0.449 C  
HETATM   33  C   UNL     1     -10.379   8.271  70.009  1.00  0.00    -0.212 C  
HETATM   34  N   UNL     1     -11.465   7.634  70.728  1.00  0.00    -0.282 N  
HETATM   35  C   UNL     1     -12.284   8.573  71.345  1.00  0.00    -0.304 C  
HETATM   36  O   UNL     1     -13.219   8.391  72.100  1.00  0.00    -0.335 OA 
BRANCH  34  37
HETATM   37  C   UNL     1     -11.476   6.194  71.033  1.00  0.00    -0.248 C  
HETATM   38  C   UNL     1     -11.110   5.868  72.482  1.00  0.00    -0.328 C  
HETATM   39  C   UNL     1      -9.593   5.840  72.458  1.00  0.00    -0.154 C  
HETATM   40  N   UNL     1      -9.218   5.287  71.158  1.00  0.00    -0.143 NA 
HETATM   41  H   UNL     1      -8.820   4.350  71.221  1.00  0.00     0.000 HD 
HETATM   42  C   UNL     1     -10.417   5.350  70.296  1.00  0.00    -0.285 C  
ENDBRANCH  34  37
ENDBRANCH   8  30
TORSDOF 6
ENDMDL
MODEL        3
REMARK 921   NORMALIZED FREE ENERGY PREDICTED BY IDOCK:   -7.79 KCAL/MOL
REMARK 922        TOTAL FREE ENERGY PREDICTED BY IDOCK:  -12.04 KCAL/MOL
REMARK 923 INTER-LIGAND FREE ENERGY PREDICTED BY IDOCK:  -10.53 KCAL/MOL
REMARK 924 INTRA-LIGAND FREE ENERGY PREDICTED BY IDOCK:   -1.51 KCAL/MOL
REMARK 927      BINDING AFFINITY PREDICTED BY RF-SCORE:    0.00 PKD
ROOT
HETATM    1  CA  UNL     1     -10.369   9.580  69.247  1.00  0.00    -0.208 C  
HETATM    2  C   UNL     1      -9.461  12.924  67.072  1.00  0.00    -0.235 C  
HETATM    3  C   UNL     1      -8.977   9.911  69.905  1.00  0.00    -0.202 C  
HETATM    4  O   UNL     1      -8.334   9.632  70.889  1.00  0.00    -0.272 OA 
HETATM    5  O   UNL     1      -6.297  11.088  70.457  1.00  0.00    -0.291 OA 
HETATM    6  OXT UNL     1      -5.453  12.334  68.825  1.00  0.00    -0.050 OA 
HETATM    7  N   UNL     1      -8.735  10.850  68.968  1.00  0.00    -0.139 N  
HETATM    8  C   UNL     1      -8.132  12.808  67.807  1.00  0.00    -0.168 C  
HETATM    9  CA  UNL     1      -7.809  11.814  68.680  1.00  0.00    -0.117 C  
HETATM   10  S   UNL     1     -10.828  11.994  67.796  1.00  0.00    -0.228 SA 
HETATM   11  C   UNL     1      -9.843  10.503  68.095  1.00  0.00    -0.153 C  
HETATM   12  C   UNL     1      -6.430  11.780  69.311  1.00  0.00    -0.107 C  
ENDROOT
BRANCH   1  13
HETATM   13  N   UNL     1     -11.575  10.082  69.960  1.00  0.00    -0.361 N  
HETATM   14  O   UNL     1     -11.263   8.927  71.914  1.00  0.00    -0.338 OA 
HETATM   15  C   UNL     1     -11.895   9.737  71.253  1.00  0.00    -0.399 C  
HETATM   16  H   UNL     1     -12.199  10.717  69.463  1.00  0.00     0.000 HD 
BRANCH  15  17
HETATM   17  C   UNL     1     -13.123  10.453  71.832  1.00  0.00    -0.458 C  
BRANCH  17  18
HETATM   18  N   UNL     1     -14.139   9.837  72.386  1.00  0.00    -0.409 NA 
HETATM   19  H   UNL     1     -15.106  10.012  72.111  1.00  0.00     0.000 HD 
HETATM   20  O   UNL     1     -13.793   8.921  73.384  1.00  0.00    -1.192 OA 
HETATM   21  H   UNL     1     -14.529   8.475  73.786  1.00  0.00     0.000 HD 
ENDBRANCH  17  18
BRANCH  17  22
HETATM   22  C   UNL     1     -13.184  11.917  71.792  1.00  0.00    -0.321 A  
HETATM   23  S   UNL     1     -13.818  14.214  72.243  1.00  0.00    -0.564 SA 
HETATM   24  H1  UNL     1     -11.283  14.722  69.645  1.00  0.00     0.000 HD 
HETATM   25  N   UNL     1     -14.031  12.595  72.578  1.00  0.00    -0.316 NA 
HETATM   26  N   UNL     1     -12.388  12.646  70.891  1.00  0.00    -0.344 NA 
HETATM   27  H2  UNL     1     -12.242  15.861  70.559  1.00  0.00     0.000 HD 
HETATM   28  C   UNL     1     -12.621  13.925  71.043  1.00  0.00    -0.371 A  
HETATM   29  N   UNL     1     -11.993  14.894  70.356  1.00  0.00    -0.292 NA 
ENDBRANCH  17  22
ENDBRANCH  15  17
ENDBRANCH   1  13
BRANCH   8  30
HETATM   30  C   UNL     1      -7.281  13.944  67.432  1.00  0.00    -0.113 C  
HETATM   31  C   UNL     1      -8.231  15.797  68.959  1.00  0.00    -0.234 C  
HETATM   32  C   UNL     1      -7.359  15.195  67.913  1.00  0.00    -0.152 C  
HETATM   33  C   UNL     1      -8.345  17.239  68.492  1.00  0.00    -0.267 C  
HETATM   34  N   UNL     1      -7.201  17.480  67.635  1.00  0.00    -0.168 N  
HETATM   35  C   UNL     1      -6.541  16.296  67.327  1.00  0.00    -0.193 C  
HETATM   36  O   UNL     1      -5.500  16.139  66.718  1.00  0.00    -0.306 OA 
BRANCH  34  37
HETATM   37  C   UNL     1      -6.640  18.824  67.422  1.00  0.00    -0.194 C  
HETATM   38  C   UNL     1      -7.438  19.939  68.101  1.00  0.00    -0.329 C  
HETATM   39  C   UNL     1      -8.530  20.247  67.093  1.00  0.00    -0.339 C  
HETATM   40  N   UNL     1      -7.923  20.079  65.774  1.00  0.00    -0.475 NA 
HETATM   41  H   UNL     1      -7.793  20.961  65.279  1.00  0.00     0.000 HD 
HETATM   42  C   UNL     1      -6.663  19.331  65.966  1.00  0.00    -0.232 C  
ENDBRANCH  34  37
ENDBRANCH   8  30
TORSDOF 6
ENDMDL
MODEL        4
REMARK 921   NORMALIZED FREE ENERGY PREDICTED BY IDOCK:   -7.66 KCAL/MOL
REMARK 922        TOTAL FREE ENERGY PREDICTED BY IDOCK:  -11.87 KCAL/MOL
REMARK 923 INTER-LIGAND FREE ENERGY PREDICTED BY IDOCK:  -10.58 KCAL/MOL
REMARK 924 INTRA-LIGAND FREE ENERGY PREDICTED BY IDOCK:   -1.29 KCAL/MOL
REMARK 927      BINDING AFFINITY PREDICTED BY RF-SCORE:    0.00 PKD
ROOT
HETATM    1  CA  UNL     1     -11.168  16.246  69.261  1.00  0.00    -0.312 C  
HETATM    2  C   UNL     1     -11.740  12.214  68.865  1.00  0.00    -0.327 C  
HETATM    3  C   UNL     1     -11.694  15.945  70.715  1.00  0.00    -0.401 C  
HETATM    4  O   UNL     1     -11.728  16.460  71.807  1.00  0.00    -0.478 OA 
HETATM    5  O   UNL     1     -12.896  14.601  73.086  1.00  0.00    -0.475 OA 
HETATM    6  OXT UNL     1     -13.936  12.686  72.665  1.00  0.00    -0.398 OA 
HETATM    7  N   UNL     1     -12.027  14.689  70.355  1.00  0.00    -0.291 N  
HETATM    8  C   UNL     1     -12.352  12.358  70.254  1.00  0.00    -0.264 C  
HETATM    9  CA  UNL     1     -12.491  13.535  70.925  1.00  0.00    -0.369 C  
HETATM   10  S   UNL     1     -10.697  13.588  68.335  1.00  0.00    -0.264 SA 
HETATM   11  C   UNL     1     -11.833  14.868  68.927  1.00  0.00    -0.301 C  
HETATM   12  C   UNL     1     -13.166  13.556  72.283  1.00  0.00    -0.475 C  
ENDROOT
BRANCH   1  13
HETATM   13  N   UNL     1      -9.690  16.293  69.089  1.00  0.00    -0.261 N  
HETATM   14  O   UNL     1      -9.589  18.283  67.959  1.00  0.00    -0.285 OA 
HETATM   15  C   UNL     1      -9.026  17.334  68.482  1.00  0.00    -0.273 C  
HETATM   16  H   UNL     1      -9.139  15.509  69.439  1.00  0.00     0.000 HD 
BRANCH  15  17
HETATM   17  C   UNL     1      -7.495  17.230  68.506  1.00  0.00    -0.241 C  
BRANCH  17  18
HETATM   18  N   UNL     1      -6.687  18.259  68.410  1.00  0.00    -0.219 NA 
HETATM   19  H   UNL     1      -5.697  18.162  68.181  1.00  0.00     0.000 HD 
HETATM   20  O   UNL     1      -7.288  19.498  68.647  1.00  0.00    -0.321 OA 
HETATM   21  H   UNL     1      -6.703  20.243  68.577  1.00  0.00     0.000 HD 
ENDBRANCH  17  18
BRANCH  17  22
HETATM   22  C   UNL     1      -6.868  15.915  68.661  1.00  0.00    -0.125 A  
HETATM   23  S   UNL     1      -5.881  13.929  69.644  1.00  0.00    -0.114 SA 
HETATM   24  H1  UNL     1      -5.583  13.124  66.080  1.00  0.00     0.000 HD 
HETATM   25  N   UNL     1      -6.587  15.421  69.875  1.00  0.00    -0.165 NA 
HETATM   26  N   UNL     1      -6.500  15.155  67.536  1.00  0.00    -0.268 NA 
HETATM   27  H2  UNL     1      -5.140  12.220  67.508  1.00  0.00     0.000 HD 
HETATM   28  C   UNL     1      -5.961  14.030  67.929  1.00  0.00    -0.138 A  
HETATM   29  N   UNL     1      -5.535  13.065  67.097  1.00  0.00    -0.326 NA 
ENDBRANCH  17  22
ENDBRANCH  15  17
ENDBRANCH   1  13
BRANCH   8  30
HETATM   30  C   UNL     1     -12.742  11.030  70.741  1.00  0.00    -0.414 C  
HETATM   31  C   UNL     1     -10.471   9.801  70.694  1.00  0.00    -0.358 C  
HETATM   32  C   UNL     1     -11.937   9.966  70.893  1.00  0.00    -0.434 C  
HETATM   33  C   UNL     1     -10.361   8.336  70.307  1.00  0.00    -0.209 C  
HETATM   34  N   UNL     1     -11.558   7.692  70.812  1.00  0.00    -0.284 N  
HETATM   35  C   UNL     1     -12.493   8.626  71.241  1.00  0.00    -0.252 C  
HETATM   36  O   UNL     1     -13.555   8.440  71.803  1.00  0.00    -0.352 OA 
BRANCH  34  37
HETATM   37  C   UNL     1     -11.609   6.256  71.134  1.00  0.00    -0.275 C  
HETATM   38  C   UNL     1     -11.460   5.954  72.626  1.00  0.00    -0.319 C  
HETATM   39  C   UNL     1      -9.956   5.934  72.827  1.00  0.00    -0.179 C  
HETATM   40  N   UNL     1      -9.391   5.364  71.606  1.00  0.00    -0.146 NA 
HETATM   41  H   UNL     1      -9.004   4.430  71.742  1.00  0.00     0.000 HD 
HETATM   42  C   UNL     1     -10.450   5.408  70.575  1.00  0.00    -0.265 C  
ENDBRANCH  34  37
ENDBRANCH   8  30
TORSDOF 6
ENDMDL
MODEL        5
REMARK 921   NORMALIZED FREE ENERGY PREDICTED BY IDOCK:   -7.64 KCAL/MOL
REMARK 922        TOTAL FREE ENERGY PREDICTED BY IDOCK:  -11.84 KCAL/MOL
REMARK 923 INTER-LIGAND FREE ENERGY PREDICTED BY IDOCK:  -10.78 KCAL/MOL
REMARK 924 INTRA-LIGAND FREE ENERGY PREDICTED BY IDOCK:   -1.06 KCAL/MOL
REMARK 927      BINDING AFFINITY PREDICTED BY RF-SCORE:    0.00 PKD
ROOT
HETATM    1  CA  UNL     1     -11.508  15.840  68.834  1.00  0.00    -0.378 C  
HETATM    2  C   UNL     1     -11.666  11.753  68.950  1.00  0.00    -0.323 C  
HETATM    3  C   UNL     1     -11.997  15.671  70.321  1.00  0.00    -0.374 C  
HETATM    4  O   UNL     1     -12.081  16.313  71.342  1.00  0.00    -0.400 OA 
HETATM    5  O   UNL     1     -13.049  14.519  72.859  1.00  0.00    -0.467 OA 
HETATM    6  OXT UNL     1     -13.889  12.471  72.696  1.00  0.00    -0.310 OA 
HETATM    7  N   UNL     1     -12.201  14.352  70.126  1.00  0.00    -0.323 N  
HETATM    8  C   UNL     1     -12.286  12.007  70.319  1.00  0.00    -0.348 C  
HETATM    9  CA  UNL     1     -12.543  13.238  70.841  1.00  0.00    -0.306 C  
HETATM   10  S   UNL     1     -10.771  13.148  68.237  1.00  0.00    -0.251 SA 
HETATM   11  C   UNL     1     -12.031  14.370  68.683  1.00  0.00    -0.297 C  
HETATM   12  C   UNL     1     -13.213  13.360  72.197  1.00  0.00    -0.462 C  
ENDROOT
BRANCH   1  13
HETATM   13  N   UNL     1     -10.044  16.013  68.634  1.00  0.00    -0.213 N  
HETATM   14  O   UNL     1     -10.131  16.793  66.482  1.00  0.00    -0.289 OA 
HETATM   15  C   UNL     1      -9.486  16.515  67.480  1.00  0.00    -0.224 C  
HETATM   16  H   UNL     1      -9.419  15.746  69.394  1.00  0.00     0.000 HD 
BRANCH  15  17
HETATM   17  C   UNL     1      -7.964  16.711  67.526  1.00  0.00    -0.168 C  
BRANCH  17  18
HETATM   18  N   UNL     1      -7.096  15.825  67.102  1.00  0.00    -0.207 NA 
HETATM   19  H   UNL     1      -7.363  14.879  66.830  1.00  0.00     0.000 HD 
HETATM   20  O   UNL     1      -5.775  16.279  67.054  1.00  0.00    -0.314 OA 
HETATM   21  H   UNL     1      -5.146  15.637  66.748  1.00  0.00     0.000 HD 
ENDBRANCH  17  18
BRANCH  17  22
HETATM   22  C   UNL     1      -7.419  17.964  68.055  1.00  0.00    -0.233 A  
HETATM   23  S   UNL     1      -6.473  19.620  69.554  1.00  0.00    -0.343 SA 
HETATM   24  H1  UNL     1      -6.822  21.613  66.498  1.00  0.00     0.000 HD 
HETATM   25  N   UNL     1      -7.011  18.059  69.328  1.00  0.00    -0.204 NA 
HETATM   26  N   UNL     1      -7.355  19.117  67.251  1.00  0.00    -0.222 NA 
HETATM   27  H2  UNL     1      -6.188  22.021  68.075  1.00  0.00     0.000 HD 
HETATM   28  C   UNL     1      -6.837  20.100  67.943  1.00  0.00    -0.278 A  
HETATM   29  N   UNL     1      -6.606  21.329  67.453  1.00  0.00    -0.527 NA 
ENDBRANCH  17  22
ENDBRANCH  15  17
ENDBRANCH   1  13
BRANCH   8  30
HETATM   30  C   UNL     1     -12.537  10.717  70.973  1.00  0.00    -0.516 C  
HETATM   31  C   UNL     1     -10.213   9.608  70.785  1.00  0.00    -0.330 C  
HETATM   32  C   UNL     1     -11.656   9.717  71.134  1.00  0.00    -0.469 C  
HETATM   33  C   UNL     1     -10.054   8.118  70.530  1.00  0.00    -0.192 C  
HETATM   34  N   UNL     1     -11.146   7.469  71.229  1.00  0.00    -0.243 N  
HETATM   35  C   UNL     1     -12.085   8.393  71.671  1.00  0.00    -0.313 C  
HETATM   36  O   UNL     1     -13.066   8.211  72.366  1.00  0.00    -0.225 OA 
BRANCH  34  37
HETATM   37  C   UNL     1     -11.072   6.073  71.691  1.00  0.00    -0.275 C  
HETATM   38  C   UNL     1     -10.672   5.932  73.161  1.00  0.00    -0.288 C  
HETATM   39  C   UNL     1      -9.156   5.985  73.114  1.00  0.00    -0.130 C  
HETATM   40  N   UNL     1      -8.764   5.312  71.877  1.00  0.00    -0.130 NA 
HETATM   41  H   UNL     1      -8.313   4.412  72.038  1.00  0.00     0.000 HD 
HETATM   42  C   UNL     1      -9.974   5.213  71.034  1.00  0.00    -0.206 C  
ENDBRANCH  34  37
ENDBRANCH   8  30
TORSDOF 6
ENDMDL
MODEL        6
REMARK 921   NORMALIZED FREE ENERGY PREDICTED BY IDOCK:   -7.05 KCAL/MOL
REMARK 922        TOTAL FREE ENERGY PREDICTED BY IDOCK:  -11.05 KCAL/MOL
REMARK 923 INTER-LIGAND FREE ENERGY PREDICTED BY IDOCK:   -9.74 KCAL/MOL
REMARK 924 INTRA-LIGAND FREE ENERGY PREDICTED BY IDOCK:   -1.31 KCAL/MOL
REMARK 927      BINDING AFFINITY PREDICTED BY RF-SCORE:    0.00 PKD
ROOT
HETATM    1  CA  UNL     1     -11.766  15.668  68.716  1.00  0.00    -0.370 C  
HETATM    2  C   UNL     1     -10.998  11.653  68.538  1.00  0.00    -0.220 C  
HETATM    3  C   UNL     1     -12.282  15.271  70.150  1.00  0.00    -0.364 C  
HETATM    4  O   UNL     1     -12.563  15.791  71.204  1.00  0.00    -0.443 OA 
HETATM    5  O   UNL     1     -13.179  13.707  72.521  1.00  0.00    -0.482 OA 
HETATM    6  OXT UNL     1     -13.522  11.544  72.158  1.00  0.00    -0.410 OA 
HETATM    7  N   UNL     1     -12.171  13.961  69.850  1.00  0.00    -0.336 N  
HETATM    8  C   UNL     1     -11.731  11.648  69.874  1.00  0.00    -0.414 C  
HETATM    9  CA  UNL     1     -12.288  12.743  70.460  1.00  0.00    -0.275 C  
HETATM   10  S   UNL     1     -10.406  13.267  67.988  1.00  0.00    -0.247 SA 
HETATM   11  C   UNL     1     -11.932  14.137  68.428  1.00  0.00    -0.331 C  
HETATM   12  C   UNL     1     -13.039  12.600  71.771  1.00  0.00    -0.360 C  
ENDROOT
BRANCH   1  13
HETATM   13  N   UNL     1     -10.371  16.179  68.633  1.00  0.00    -0.240 N  
HETATM   14  O   UNL     1     -10.835  18.118  67.505  1.00  0.00    -0.389 OA 
HETATM   15  C   UNL     1     -10.033  17.386  68.064  1.00  0.00    -0.302 C  
HETATM   16  H   UNL     1      -9.623  15.603  69.019  1.00  0.00     0.000 HD 
BRANCH  15  17
HETATM   17  C   UNL     1      -8.552  17.768  68.181  1.00  0.00    -0.262 C  
BRANCH  17  18
HETATM   18  N   UNL     1      -8.098  18.994  68.075  1.00  0.00    -0.285 NA 
HETATM   19  H   UNL     1      -7.587  19.458  68.826  1.00  0.00     0.000 HD 
HETATM   20  O   UNL     1      -8.371  19.614  66.852  1.00  0.00    -0.277 OA 
HETATM   21  H   UNL     1      -8.042  20.502  66.776  1.00  0.00     0.000 HD 
ENDBRANCH  17  18
BRANCH  17  22
HETATM   22  C   UNL     1      -7.560  16.721  68.443  1.00  0.00    -0.205 A  
HETATM   23  S   UNL     1      -5.743  15.459  69.436  1.00  0.00    -0.106 SA 
HETATM   24  H1  UNL     1      -6.604  13.277  66.619  1.00  0.00     0.000 HD 
HETATM   25  N   UNL     1      -6.708  16.817  69.473  1.00  0.00    -0.225 NA 
HETATM   26  N   UNL     1      -7.445  15.609  67.589  1.00  0.00    -0.148 NA 
HETATM   27  H2  UNL     1      -5.408  13.112  67.883  1.00  0.00     0.000 HD 
HETATM   28  C   UNL     1      -6.495  14.823  68.027  1.00  0.00    -0.153 A  
HETATM   29  N   UNL     1      -6.158  13.655  67.455  1.00  0.00    -0.333 NA 
ENDBRANCH  17  22
ENDBRANCH  15  17
ENDBRANCH   1  13
BRANCH   8  30
HETATM   30  C   UNL     1     -11.717  10.284  70.417  1.00  0.00    -0.404 C  
HETATM   31  C   UNL     1      -9.204   9.713  70.250  1.00  0.00    -0.285 C  
HETATM   32  C   UNL     1     -10.646   9.484  70.542  1.00  0.00    -0.358 C  
HETATM   33  C   UNL     1      -8.723   8.317  69.891  1.00  0.00    -0.134 C  
HETATM   34  N   UNL     1      -9.668   7.395  70.490  1.00  0.00    -0.176 N  
HETATM   35  C   UNL     1     -10.796   8.060  70.958  1.00  0.00    -0.235 C  
HETATM   36  O   UNL     1     -11.733   7.617  71.594  1.00  0.00    -0.264 OA 
BRANCH  34  37
HETATM   37  C   UNL     1      -9.309   6.014  70.849  1.00  0.00    -0.161 C  
HETATM   38  C   UNL     1      -8.011   5.527  70.201  1.00  0.00    -0.090 C  
HETATM   39  C   UNL     1      -8.467   5.042  68.837  1.00  0.00    -0.086 C  
HETATM   40  N   UNL     1      -9.794   4.462  69.034  1.00  0.00    -0.152 NA 
HETATM   41  H   UNL     1      -9.804   3.446  68.937  1.00  0.00     0.000 HD 
HETATM   42  C   UNL     1     -10.279   4.924  70.352  1.00  0.00    -0.222 C  
ENDBRANCH  34  37
ENDBRANCH   8  30
TORSDOF 6
ENDMDL
MODEL        7
REMARK 921   NORMALIZED FREE ENERGY PREDICTED BY IDOCK:   -7.03 KCAL/MOL
REMARK 922        TOTAL FREE ENERGY PREDICTED BY IDOCK:  -11.02 KCAL/MOL
REMARK 923 INTER-LIGAND FREE ENERGY PREDICTED BY IDOCK:  -10.21 KCAL/MOL
REMARK 924 INTRA-LIGAND FREE ENERGY PREDICTED BY IDOCK:   -0.81 KCAL/MOL
REMARK 927      BINDING AFFINITY PREDICTED BY RF-SCORE:    0.00 PKD
ROOT
HETATM    1  CA  UNL     1     -11.488  14.413  67.566  1.00  0.00    -0.349 C  
HETATM    2  C   UNL     1     -10.912  10.518  68.680  1.00  0.00    -0.248 C  
HETATM    3  C   UNL     1     -11.990  14.523  69.055  1.00  0.00    -0.299 C  
HETATM    4  O   UNL     1     -12.223  15.367  69.888  1.00  0.00    -0.342 OA 
HETATM    5  O   UNL     1     -12.906  13.848  71.808  1.00  0.00    -0.328 OA 
HETATM    6  OXT UNL     1     -13.357  11.704  72.160  1.00  0.00    -0.491 OA 
HETATM    7  N   UNL     1     -11.947  13.182  69.190  1.00  0.00    -0.302 N  
HETATM    8  C   UNL     1     -11.615  10.979  69.952  1.00  0.00    -0.416 C  
HETATM    9  CA  UNL     1     -12.107  12.231  70.160  1.00  0.00    -0.287 C  
HETATM   10  S   UNL     1     -10.258  11.839  67.639  1.00  0.00    -0.203 SA 
HETATM   11  C   UNL     1     -11.732  12.880  67.786  1.00  0.00    -0.362 C  
HETATM   12  C   UNL     1     -12.835  12.553  71.451  1.00  0.00    -0.260 C  
ENDROOT
BRANCH   1  13
HETATM   13  N   UNL     1     -10.073  14.798  67.315  1.00  0.00    -0.235 N  
HETATM   14  O   UNL     1     -10.431  17.038  66.994  1.00  0.00    -0.315 OA 
HETATM   15  C   UNL     1      -9.664  16.092  67.087  1.00  0.00    -0.233 C  
HETATM   16  H   UNL     1      -9.367  14.062  67.311  1.00  0.00     0.000 HD 
BRANCH  15  17
HETATM   17  C   UNL     1      -8.147  16.281  66.958  1.00  0.00    -0.209 C  
BRANCH  17  18
HETATM   18  N   UNL     1      -7.284  15.295  66.918  1.00  0.00    -0.295 NA 
HETATM   19  H   UNL     1      -7.566  14.320  66.811  1.00  0.00     0.000 HD 
HETATM   20  O   UNL     1      -5.946  15.684  67.035  1.00  0.00    -0.295 OA 
HETATM   21  H   UNL     1      -5.321  14.969  67.006  1.00  0.00     0.000 HD 
ENDBRANCH  17  18
BRANCH  17  22
HETATM   22  C   UNL     1      -7.600  17.637  66.854  1.00  0.00    -0.214 A  
HETATM   23  S   UNL     1      -6.804  19.742  65.951  1.00  0.00    -0.286 SA 
HETATM   24  H1  UNL     1      -6.209  20.287  69.527  1.00  0.00     0.000 HD 
HETATM   25  N   UNL     1      -7.458  18.237  65.664  1.00  0.00    -0.544 NA 
HETATM   26  N   UNL     1      -7.163  18.327  68.000  1.00  0.00    -0.231 NA 
HETATM   27  H2  UNL     1      -5.945  21.321  68.143  1.00  0.00     0.000 HD 
HETATM   28  C   UNL     1      -6.717  19.507  67.652  1.00  0.00    -0.219 A  
HETATM   29  N   UNL     1      -6.260  20.427  68.518  1.00  0.00    -0.302 NA 
ENDBRANCH  17  22
ENDBRANCH  15  17
ENDBRANCH   1  13
BRANCH   8  30
HETATM   30  C   UNL     1     -11.652   9.862  70.905  1.00  0.00    -0.456 C  
HETATM   31  C   UNL     1      -9.135   9.337  71.148  1.00  0.00    -0.197 C  
HETATM   32  C   UNL     1     -10.598   9.174  71.372  1.00  0.00    -0.412 C  
HETATM   33  C   UNL     1      -8.625   7.914  71.301  1.00  0.00    -0.125 C  
HETATM   34  N   UNL     1      -9.622   7.207  72.080  1.00  0.00    -0.143 N  
HETATM   35  C   UNL     1     -10.787   7.955  72.210  1.00  0.00    -0.293 C  
HETATM   36  O   UNL     1     -11.779   7.713  72.870  1.00  0.00    -0.280 OA 
BRANCH  34  37
HETATM   37  C   UNL     1      -9.299   6.024  72.894  1.00  0.00    -0.147 C  
HETATM   38  C   UNL     1      -9.693   4.699  72.238  1.00  0.00    -0.213 C  
HETATM   39  C   UNL     1     -11.155   4.546  72.617  1.00  0.00    -0.008 C  
HETATM   40  N   UNL     1     -11.285   5.102  73.962  1.00  0.00    -0.388 NA 
HETATM   41  H   UNL     1     -11.457   4.390  74.673  1.00  0.00     0.000 HD 
HETATM   42  C   UNL     1     -10.070   5.901  74.223  1.00  0.00    -0.284 C  
ENDBRANCH  34  37
ENDBRANCH   8  30
TORSDOF 6
ENDMDL
MODEL        8
REMARK 921   NORMALIZED FREE ENERGY PREDICTED BY IDOCK:   -6.94 KCAL/MOL
REMARK 922        TOTAL FREE ENERGY PREDICTED BY IDOCK:  -10.90 KCAL/MOL
REMARK 923 INTER-LIGAND FREE ENERGY PREDICTED BY IDOCK:   -9.48 KCAL/MOL
REMARK 924 INTRA-LIGAND FREE ENERGY PREDICTED BY IDOCK:   -1.42 KCAL/MOL
REMARK 927      BINDING AFFINITY PREDICTED BY RF-SCORE:    0.00 PKD
ROOT
HETATM    1  CA  UNL     1      -9.279  13.457  68.454  1.00  0.00    -0.149 C  
HETATM    2  C   UNL     1     -11.499  10.119  69.271  1.00  0.00    -0.108 C  
HETATM    3  C   UNL     1      -8.117  12.395  68.421  1.00  0.00    -0.143 C  
HETATM    4  O   UNL     1      -6.977  12.288  68.035  1.00  0.00    -0.078 OA 
HETATM    5  O   UNL     1      -6.551   9.878  68.718  1.00  0.00    -0.046 OA 
HETATM    6  OXT UNL     1      -7.535   8.282  69.906  1.00  0.00    -0.063 OA 
HETATM    7  N   UNL     1      -8.943  11.446  68.907  1.00  0.00    -0.072 N  
HETATM    8  C   UNL     1     -10.128   9.455  69.326  1.00  0.00    -0.200 C  
HETATM    9  CA  UNL     1      -8.942  10.104  69.170  1.00  0.00    -0.175 C  
HETATM   10  S   UNL     1     -11.546  11.724  68.448  1.00  0.00    -0.324 SA 
HETATM   11  C   UNL     1     -10.040  12.337  69.244  1.00  0.00     0.435 C  
HETATM   12  C   UNL     1      -7.638   9.339  69.298  1.00  0.00    -0.080 C  
ENDROOT
BRANCH   1  13
HETATM   13  N   UNL     1      -9.878  13.823  67.142  1.00  0.00    -0.237 N  
HETATM   14  O   UNL     1     -10.332  16.015  67.628  1.00  0.00    -0.270 OA 
HETATM   15  C   UNL     1     -10.319  15.089  66.831  1.00  0.00    -0.266 C  
HETATM   16  H   UNL     1      -9.967  13.095  66.433  1.00  0.00     0.000 HD 
BRANCH  15  17
HETATM   17  C   UNL     1     -10.803  15.274  65.387  1.00  0.00    -0.387 C  
BRANCH  17  18
HETATM   18  N   UNL     1     -10.908  16.436  64.790  1.00  0.00    -0.769 NA 
HETATM   19  H   UNL     1     -10.459  17.281  65.144  1.00  0.00     0.000 HD 
HETATM   20  O   UNL     1     -11.686  16.427  63.628  1.00  0.00    -1.520 OA 
HETATM   21  H   UNL     1     -11.763  17.270  63.196  1.00  0.00     0.000 HD 
ENDBRANCH  17  18
BRANCH  17  22
HETATM   22  C   UNL     1     -11.159  14.093  64.594  1.00  0.00    -0.371 A  
HETATM   23  S   UNL     1     -12.440  12.412  63.405  1.00  0.00    -0.323 SA 
HETATM   24  H1  UNL     1      -9.045  11.106  62.950  1.00  0.00     0.000 HD 
HETATM   25  N   UNL     1     -12.437  13.819  64.297  1.00  0.00    -0.671 NA 
HETATM   26  N   UNL     1     -10.171  13.189  64.165  1.00  0.00    -0.338 NA 
HETATM   27  H2  UNL     1     -10.592  10.520  62.385  1.00  0.00     0.000 HD 
HETATM   28  C   UNL     1     -10.732  12.224  63.483  1.00  0.00    -0.451 A  
HETATM   29  N   UNL     1     -10.058  11.217  62.904  1.00  0.00    -0.252 NA 
ENDBRANCH  17  22
ENDBRANCH  15  17
ENDBRANCH   1  13
BRANCH   8  30
HETATM   30  C   UNL     1     -10.307   8.016  69.558  1.00  0.00    -0.221 C  
HETATM   31  C   UNL     1     -11.177   8.013  71.989  1.00  0.00    -0.356 C  
HETATM   32  C   UNL     1     -10.726   7.435  70.694  1.00  0.00    -0.242 C  
HETATM   33  C   UNL     1     -10.782   6.931  72.980  1.00  0.00    -0.297 C  
HETATM   34  N   UNL     1     -10.669   5.703  72.217  1.00  0.00    -0.221 N  
HETATM   35  C   UNL     1     -10.707   5.952  70.850  1.00  0.00    -0.273 C  
HETATM   36  O   UNL     1     -10.734   5.157  69.930  1.00  0.00    -0.237 OA 
BRANCH  34  37
HETATM   37  C   UNL     1     -10.841   4.374  72.825  1.00  0.00    -0.134 C  
HETATM   38  C   UNL     1     -10.537   4.339  74.324  1.00  0.00    -0.307 C  
HETATM   39  C   UNL     1      -9.032   4.151  74.368  1.00  0.00    -0.100 C  
HETATM   40  N   UNL     1      -8.697   3.292  73.235  1.00  0.00    -0.081 NA 
HETATM   41  H   UNL     1      -8.403   2.356  73.516  1.00  0.00     0.000 HD 
HETATM   42  C   UNL     1      -9.867   3.286  72.332  1.00  0.00    -0.156 C  
ENDBRANCH  34  37
ENDBRANCH   8  30
TORSDOF 6
ENDMDL
MODEL        9
REMARK 921   NORMALIZED FREE ENERGY PREDICTED BY IDOCK:   -6.89 KCAL/MOL
REMARK 922        TOTAL FREE ENERGY PREDICTED BY IDOCK:  -10.83 KCAL/MOL
REMARK 923 INTER-LIGAND FREE ENERGY PREDICTED BY IDOCK:   -9.29 KCAL/MOL
REMARK 924 INTRA-LIGAND FREE ENERGY PREDICTED BY IDOCK:   -1.53 KCAL/MOL
REMARK 927      BINDING AFFINITY PREDICTED BY RF-SCORE:    0.00 PKD
ROOT
HETATM    1  CA  UNL     1      -8.030   8.984  65.119  1.00  0.00    -0.119 C  
HETATM    2  C   UNL     1     -10.575  12.073  65.966  1.00  0.00    -0.268 C  
HETATM    3  C   UNL     1      -7.231   9.618  66.320  1.00  0.00    -0.094 C  
HETATM    4  O   UNL     1      -6.344   9.332  67.089  1.00  0.00    -0.061 OA 
HETATM    5  O   UNL     1      -6.299  11.473  68.455  1.00  0.00    -0.050 OA 
HETATM    6  OXT UNL     1      -7.180  13.509  68.395  1.00  0.00    -0.092 OA 
HETATM    7  N   UNL     1      -8.049  10.690  66.324  1.00  0.00    -0.146 N  
HETATM    8  C   UNL     1      -9.463  12.474  66.927  1.00  0.00    -0.219 C  
HETATM    9  CA  UNL     1      -8.278  11.818  67.064  1.00  0.00    -0.172 C  
HETATM   10  S   UNL     1     -10.512  10.368  65.380  1.00  0.00    -0.008 SA 
HETATM   11  C   UNL     1      -8.727  10.387  65.076  1.00  0.00    -0.182 C  
HETATM   12  C   UNL     1      -7.226  12.346  68.021  1.00  0.00    -0.105 C  
ENDROOT
BRANCH   1  13
HETATM   13  N   UNL     1      -8.926   7.843  65.450  1.00  0.00    -0.385 N  
HETATM   14  O   UNL     1      -7.446   6.160  64.973  1.00  0.00    -0.073 OA 
HETATM   15  C   UNL     1      -8.537   6.524  65.383  1.00  0.00    -0.068 C  
HETATM   16  H   UNL     1      -9.881   8.049  65.742  1.00  0.00     0.000 HD 
BRANCH  15  17
HETATM   17  C   UNL     1      -9.584   5.513  65.870  1.00  0.00    -0.063 C  
BRANCH  17  18
HETATM   18  N   UNL     1     -10.252   4.708  65.079  1.00  0.00    -0.416 NA 
HETATM   19  H   UNL     1      -9.794   4.079  64.419  1.00  0.00     0.000 HD 
HETATM   20  O   UNL     1     -11.642   4.780  65.212  1.00  0.00    -1.065 OA 
HETATM   21  H   UNL     1     -12.126   4.197  64.639  1.00  0.00     0.000 HD 
ENDBRANCH  17  18
BRANCH  17  22
HETATM   22  C   UNL     1      -9.863   5.405  67.304  1.00  0.00    -0.156 A  
HETATM   23  S   UNL     1      -9.858   4.640  69.606  1.00  0.00    -0.211 SA 
HETATM   24  H1  UNL     1     -12.201   7.449  69.844  1.00  0.00     0.000 HD 
HETATM   25  N   UNL     1      -9.296   4.446  68.049  1.00  0.00    -0.137 NA 
HETATM   26  N   UNL     1     -10.772   6.277  67.929  1.00  0.00    -0.274 NA 
HETATM   27  H2  UNL     1     -11.594   6.347  71.057  1.00  0.00     0.000 HD 
HETATM   28  C   UNL     1     -10.853   5.982  69.201  1.00  0.00    -0.352 A  
HETATM   29  N   UNL     1     -11.611   6.653  70.085  1.00  0.00    -0.395 NA 
ENDBRANCH  17  22
ENDBRANCH  15  17
ENDBRANCH   1  13
BRANCH   8  30
HETATM   30  C   UNL     1      -9.889  13.661  67.679  1.00  0.00    -0.228 C  
HETATM   31  C   UNL     1     -11.265  12.573  69.575  1.00  0.00    -0.163 C  
HETATM   32  C   UNL     1     -10.666  13.676  68.774  1.00  0.00    -0.265 C  
HETATM   33  C   UNL     1     -12.528  13.219  70.120  1.00  0.00    -0.140 C  
HETATM   34  N   UNL     1     -12.302  14.651  70.077  1.00  0.00    -0.325 N  
HETATM   35  C   UNL     1     -11.161  14.961  69.347  1.00  0.00    -0.280 C  
HETATM   36  O   UNL     1     -10.627  16.042  69.189  1.00  0.00    -0.225 OA 
BRANCH  34  37
HETATM   37  C   UNL     1     -12.998  15.590  70.972  1.00  0.00    -0.489 C  
HETATM   38  C   UNL     1     -12.195  15.960  72.220  1.00  0.00    -0.585 C  
HETATM   39  C   UNL     1     -12.509  14.829  73.182  1.00  0.00    -0.373 C  
HETATM   40  N   UNL     1     -13.900  14.458  72.932  1.00  0.00    -0.557 NA 
HETATM   41  H   UNL     1     -14.527  14.722  73.692  1.00  0.00     0.000 HD 
HETATM   42  C   UNL     1     -14.282  15.051  71.633  1.00  0.00    -0.555 C  
ENDBRANCH  34  37
ENDBRANCH   8  30
TORSDOF 6
ENDMDL
MODEL       10
REMARK 921   NORMALIZED FREE ENERGY PREDICTED BY IDOCK:   -6.88 KCAL/MOL
REMARK 922        TOTAL FREE ENERGY PREDICTED BY IDOCK:  -10.82 KCAL/MOL
REMARK 923 INTER-LIGAND FREE ENERGY PREDICTED BY IDOCK:   -9.59 KCAL/MOL
REMARK 924 INTRA-LIGAND FREE ENERGY PREDICTED BY IDOCK:   -1.24 KCAL/MOL
REMARK 927      BINDING AFFINITY PREDICTED BY RF-SCORE:    0.00 PKD
ROOT
HETATM    1  CA  UNL     1     -10.853   9.414  68.236  1.00  0.00    -0.112 C  
HETATM    2  C   UNL     1     -11.769  13.391  67.952  1.00  0.00    -0.361 C  
HETATM    3  C   UNL     1     -10.213   9.697  66.825  1.00  0.00    -0.239 C  
HETATM    4  O   UNL     1      -9.435   9.194  66.049  1.00  0.00    -0.216 OA 
HETATM    5  O   UNL     1      -9.461  10.985  64.247  1.00  0.00    -0.221 OA 
HETATM    6  OXT UNL     1     -10.602  12.819  63.733  1.00  0.00    -0.412 OA 
HETATM    7  N   UNL     1     -10.775  10.922  66.794  1.00  0.00    -0.264 N  
HETATM    8  C   UNL     1     -11.210  13.223  66.544  1.00  0.00    -0.329 C  
HETATM    9  CA  UNL     1     -10.766  12.049  66.018  1.00  0.00    -0.279 C  
HETATM   10  S   UNL     1     -11.330  12.085  69.118  1.00  0.00    -0.285 SA 
HETATM   11  C   UNL     1     -11.639  10.738  67.947  1.00  0.00    -0.128 C  
HETATM   12  C   UNL     1     -10.279  11.999  64.582  1.00  0.00    -0.282 C  
ENDROOT
BRANCH   1  13
HETATM   13  N   UNL     1      -9.931   9.467  69.403  1.00  0.00    -0.175 N  
HETATM   14  O   UNL     1      -8.814   7.511  68.984  1.00  0.00    -0.133 OA 
HETATM   15  C   UNL     1      -8.961   8.522  69.652  1.00  0.00    -0.145 C  
HETATM   16  H   UNL     1     -10.023  10.246  70.055  1.00  0.00     0.000 HD 
BRANCH  15  17
HETATM   17  C   UNL     1      -8.051   8.826  70.849  1.00  0.00    -0.150 C  
BRANCH  17  18
HETATM   18  N   UNL     1      -6.979   9.578  70.785  1.00  0.00    -0.184 NA 
HETATM   19  H   UNL     1      -6.058   9.252  71.081  1.00  0.00     0.000 HD 
HETATM   20  O   UNL     1      -7.197  10.863  70.278  1.00  0.00    -0.461 OA 
HETATM   21  H   UNL     1      -6.420  11.408  70.232  1.00  0.00     0.000 HD 
ENDBRANCH  17  18
BRANCH  17  22
HETATM   22  C   UNL     1      -8.384   8.268  72.163  1.00  0.00    -0.174 A  
HETATM   23  S   UNL     1      -8.304   7.710  74.521  1.00  0.00    -0.168 SA 
HETATM   24  H1  UNL     1     -11.313   5.878  73.507  1.00  0.00     0.000 HD 
HETATM   25  N   UNL     1      -7.616   8.513  73.233  1.00  0.00    -0.359 NA 
HETATM   26  N   UNL     1      -9.494   7.420  72.324  1.00  0.00    -0.144 NA 
HETATM   27  H2  UNL     1     -10.536   6.049  75.063  1.00  0.00     0.000 HD 
HETATM   28  C   UNL     1      -9.581   7.052  73.576  1.00  0.00    -0.208 A  
HETATM   29  N   UNL     1     -10.555   6.268  74.068  1.00  0.00    -0.244 NA 
ENDBRANCH  17  22
ENDBRANCH  15  17
ENDBRANCH   1  13
BRANCH   8  30
HETATM   30  C   UNL     1     -11.218  14.528  65.872  1.00  0.00    -0.331 C  
HETATM   31  C   UNL     1      -9.026  15.557  66.768  1.00  0.00    -0.295 C  
HETATM   32  C   UNL     1     -10.301  15.500  66.002  1.00  0.00    -0.342 C  
HETATM   33  C   UNL     1      -8.909  17.038  67.089  1.00  0.00    -0.218 C  
HETATM   34  N   UNL     1      -9.723  17.731  66.109  1.00  0.00    -0.260 N  
HETATM   35  C   UNL     1     -10.513  16.843  65.388  1.00  0.00    -0.154 C  
HETATM   36  O   UNL     1     -11.235  17.065  64.436  1.00  0.00    -1.167 OA 
BRANCH  34  37
HETATM   37  C   UNL     1      -9.474  19.128  65.719  1.00  0.00     0.243 C  
HETATM   38  C   UNL     1      -8.198  19.718  66.322  1.00  0.00    -0.372 C  
HETATM   39  C   UNL     1      -8.649  20.193  67.691  1.00  0.00    -0.303 C  
HETATM   40  N   UNL     1     -10.019  20.672  67.524  1.00  0.00    -0.380 NA 
HETATM   41  H   UNL     1     -10.101  21.686  67.605  1.00  0.00     0.000 HD 
HETATM   42  C   UNL     1     -10.506  20.154  66.228  1.00  0.00    -0.338 C  
ENDBRANCH  34  37
ENDBRANCH   8  30
TORSDOF 6
ENDMDL
MODEL       11
REMARK 921   NORMALIZED FREE ENERGY PREDICTED BY IDOCK:   -6.86 KCAL/MOL
REMARK 922        TOTAL FREE ENERGY PREDICTED BY IDOCK:  -10.78 KCAL/MOL
REMARK 923 INTER-LIGAND FREE ENERGY PREDICTED BY IDOCK:   -9.61 KCAL/MOL
REMARK 924 INTRA-LIGAND FREE ENERGY PREDICTED BY IDOCK:   -1.18 KCAL/MOL
REMARK 927      BINDING AFFINITY PREDICTED BY RF-SCORE:    0.00 PKD
ROOT
HETATM    1  CA  UNL     1     -12.010  12.764  67.313  1.00  0.00    -0.280 C  
HETATM    2  C   UNL     1      -9.422   9.867  66.031  1.00  0.00    -0.202 C  
HETATM    3  C   UNL     1     -11.722  12.082  68.703  1.00  0.00    -0.326 C  
HETATM    4  O   UNL     1     -11.845  12.309  69.884  1.00  0.00    -0.321 OA 
HETATM    5  O   UNL     1     -10.816  10.177  70.806  1.00  0.00    -0.307 OA 
HETATM    6  OXT UNL     1     -10.111   8.207  70.063  1.00  0.00    -0.190 OA 
HETATM    7  N   UNL     1     -11.070  11.071  68.094  1.00  0.00    -0.247 N  
HETATM    8  C   UNL     1      -9.537   9.394  67.475  1.00  0.00    -0.174 C  
HETATM    9  CA  UNL     1     -10.333   9.966  68.420  1.00  0.00    -0.198 C  
HETATM   10  S   UNL     1      -9.965  11.561  65.727  1.00  0.00    -0.243 SA 
HETATM   11  C   UNL     1     -11.461  11.414  66.738  1.00  0.00    -0.078 C  
HETATM   12  C   UNL     1     -10.401   9.370  69.813  1.00  0.00    -0.223 C  
ENDROOT
BRANCH   1  13
HETATM   13  N   UNL     1     -11.198  13.968  66.986  1.00  0.00    -0.304 N  
HETATM   14  O   UNL     1     -12.235  14.493  65.011  1.00  0.00    -0.399 OA 
HETATM   15  C   UNL     1     -11.411  14.752  65.875  1.00  0.00    -0.331 C  
HETATM   16  H   UNL     1     -10.442  14.226  67.620  1.00  0.00     0.000 HD 
BRANCH  15  17
HETATM   17  C   UNL     1     -10.530  16.005  65.785  1.00  0.00    -0.374 C  
BRANCH  17  18
HETATM   18  N   UNL     1     -10.741  16.994  64.950  1.00  0.00    -0.709 NA 
HETATM   19  H   UNL     1     -10.347  17.925  65.088  1.00  0.00     0.000 HD 
HETATM   20  O   UNL     1     -11.547  16.671  63.855  1.00  0.00    -1.582 OA 
HETATM   21  H   UNL     1     -11.700  17.387  63.250  1.00  0.00     0.000 HD 
ENDBRANCH  17  18
BRANCH  17  22
HETATM   22  C   UNL     1      -9.384  16.141  66.688  1.00  0.00    -0.242 A  
HETATM   23  S   UNL     1      -8.038  16.529  68.668  1.00  0.00    -0.243 SA 
HETATM   24  H1  UNL     1      -5.413  15.829  66.208  1.00  0.00     0.000 HD 
HETATM   25  N   UNL     1      -9.554  16.457  67.979  1.00  0.00    -0.223 NA 
HETATM   26  N   UNL     1      -8.069  15.992  66.210  1.00  0.00    -0.222 NA 
HETATM   27  H2  UNL     1      -5.327  16.189  67.916  1.00  0.00     0.000 HD 
HETATM   28  C   UNL     1      -7.227  16.161  67.197  1.00  0.00    -0.220 A  
HETATM   29  N   UNL     1      -5.893  16.047  67.080  1.00  0.00    -0.341 NA 
ENDBRANCH  17  22
ENDBRANCH  15  17
ENDBRANCH   1  13
BRANCH   8  30
HETATM   30  C   UNL     1      -8.645   8.244  67.671  1.00  0.00    -0.130 C  
HETATM   31  C   UNL     1     -10.093   6.330  66.716  1.00  0.00    -0.237 C  
HETATM   32  C   UNL     1      -8.913   6.964  67.365  1.00  0.00    -0.116 C  
HETATM   33  C   UNL     1     -10.094   4.942  67.335  1.00  0.00    -0.150 C  
HETATM   34  N   UNL     1      -8.742   4.706  67.802  1.00  0.00    -0.103 N  
HETATM   35  C   UNL     1      -7.983   5.869  67.766  1.00  0.00    -0.098 C  
HETATM   36  O   UNL     1      -6.797   6.014  67.993  1.00  0.00    -0.059 OA 
BRANCH  34  37
HETATM   37  C   UNL     1      -8.184   3.353  67.957  1.00  0.00    -0.079 C  
HETATM   38  C   UNL     1      -7.237   2.944  66.827  1.00  0.00    -0.061 C  
HETATM   39  C   UNL     1      -8.180   2.419  65.759  1.00  0.00    -0.088 C  
HETATM   40  N   UNL     1      -9.272   1.758  66.471  1.00  0.00    -0.319 NA 
HETATM   41  H   UNL     1      -9.258   0.743  66.368  1.00  0.00     0.000 HD 
HETATM   42  C   UNL     1      -9.203   2.199  67.880  1.00  0.00    -0.189 C  
ENDBRANCH  34  37
ENDBRANCH   8  30
TORSDOF 6
ENDMDL
MODEL       12
REMARK 921   NORMALIZED FREE ENERGY PREDICTED BY IDOCK:   -6.84 KCAL/MOL
REMARK 922        TOTAL FREE ENERGY PREDICTED BY IDOCK:  -10.76 KCAL/MOL
REMARK 923 INTER-LIGAND FREE ENERGY PREDICTED BY IDOCK:   -9.11 KCAL/MOL
REMARK 924 INTRA-LIGAND FREE ENERGY PREDICTED BY IDOCK:   -1.64 KCAL/MOL
REMARK 927      BINDING AFFINITY PREDICTED BY RF-SCORE:    0.00 PKD
ROOT
HETATM    1  CA  UNL     1      -7.595   9.377  68.917  1.00  0.00    -0.075 C  
HETATM    2  C   UNL     1      -8.018  13.080  67.227  1.00  0.00    -0.138 C  
HETATM    3  C   UNL     1      -6.908  10.227  70.051  1.00  0.00    -0.146 C  
HETATM    4  O   UNL     1      -6.572  10.120  71.206  1.00  0.00    -0.326 OA 
HETATM    5  O   UNL     1      -5.647  12.459  71.568  1.00  0.00    -0.394 OA 
HETATM    6  OXT UNL     1      -5.151  14.260  70.370  1.00  0.00    -0.093 OA 
HETATM    7  N   UNL     1      -6.931  11.326  69.269  1.00  0.00    -0.115 N  
HETATM    8  C   UNL     1      -7.159  13.507  68.412  1.00  0.00    -0.107 C  
HETATM    9  CA  UNL     1      -6.646  12.661  69.347  1.00  0.00    -0.067 C  
HETATM   10  S   UNL     1      -8.802  11.462  67.386  1.00  0.00    -0.154 SA 
HETATM   11  C   UNL     1      -7.323  10.650  68.044  1.00  0.00    -0.088 C  
HETATM   12  C   UNL     1      -5.761  13.203  70.453  1.00  0.00    -0.170 C  
ENDROOT
BRANCH   1  13
HETATM   13  N   UNL     1      -9.032   9.045  69.118  1.00  0.00    -0.138 N  
HETATM   14  O   UNL     1      -8.724   7.217  70.465  1.00  0.00    -0.145 OA 
HETATM   15  C   UNL     1      -9.471   8.009  69.912  1.00  0.00    -0.160 C  
HETATM   16  H   UNL     1      -9.730   9.615  68.642  1.00  0.00     0.000 HD 
BRANCH  15  17
HETATM   17  C   UNL     1     -10.994   7.909  70.066  1.00  0.00    -0.207 C  
BRANCH  17  18
HETATM   18  N   UNL     1     -11.697   6.850  69.746  1.00  0.00    -0.615 NA 
HETATM   19  H   UNL     1     -12.664   6.720  70.045  1.00  0.00     0.000 HD 
HETATM   20  O   UNL     1     -11.018   5.913  68.962  1.00  0.00    -0.324 OA 
HETATM   21  H   UNL     1     -11.528   5.146  68.730  1.00  0.00     0.000 HD 
ENDBRANCH  17  18
BRANCH  17  22
HETATM   22  C   UNL     1     -11.735   9.047  70.619  1.00  0.00    -0.198 A  
HETATM   23  S   UNL     1     -13.301  10.374  71.910  1.00  0.00    -0.275 SA 
HETATM   24  H1  UNL     1     -11.657  13.003  69.954  1.00  0.00     0.000 HD 
HETATM   25  N   UNL     1     -12.690   8.868  71.542  1.00  0.00    -0.328 NA 
HETATM   26  N   UNL     1     -11.495  10.354  70.159  1.00  0.00    -0.295 NA 
HETATM   27  H2  UNL     1     -12.908  13.082  71.172  1.00  0.00     0.000 HD 
HETATM   28  C   UNL     1     -12.274  11.189  70.797  1.00  0.00    -0.385 A  
HETATM   29  N   UNL     1     -12.266  12.520  70.615  1.00  0.00    -0.351 NA 
ENDBRANCH  17  22
ENDBRANCH  15  17
ENDBRANCH   1  13
BRANCH   8  30
HETATM   30  C   UNL     1      -6.998  14.966  68.380  1.00  0.00    -0.110 C  
HETATM   31  C   UNL     1      -9.301  15.735  69.261  1.00  0.00    -0.261 C  
HETATM   32  C   UNL     1      -7.922  15.880  68.719  1.00  0.00    -0.188 C  
HETATM   33  C   UNL     1      -9.992  16.975  68.719  1.00  0.00    -0.293 C  
HETATM   34  N   UNL     1      -8.941  17.928  68.422  1.00  0.00    -0.278 N  
HETATM   35  C   UNL     1      -7.686  17.334  68.484  1.00  0.00    -0.261 C  
HETATM   36  O   UNL     1      -6.590  17.852  68.387  1.00  0.00    -0.193 OA 
BRANCH  34  37
HETATM   37  C   UNL     1      -9.172  19.382  68.402  1.00  0.00    -0.359 C  
HETATM   38  C   UNL     1     -10.611  19.772  68.058  1.00  0.00    -0.439 C  
HETATM   39  C   UNL     1     -10.619  19.762  66.540  1.00  0.00    -0.467 C  
HETATM   40  N   UNL     1      -9.301  20.238  66.124  1.00  0.00    -0.628 NA 
HETATM   41  H   UNL     1      -9.327  21.167  65.703  1.00  0.00     0.000 HD 
HETATM   42  C   UNL     1      -8.417  20.161  67.306  1.00  0.00    -0.342 C  
ENDBRANCH  34  37
ENDBRANCH   8  30
TORSDOF 6
ENDMDL
MODEL       13
REMARK 921   NORMALIZED FREE ENERGY PREDICTED BY IDOCK:   -6.80 KCAL/MOL
REMARK 922        TOTAL FREE ENERGY PREDICTED BY IDOCK:  -10.71 KCAL/MOL
REMARK 923 INTER-LIGAND FREE ENERGY PREDICTED BY IDOCK:   -9.16 KCAL/MOL
REMARK 924 INTRA-LIGAND FREE ENERGY PREDICTED BY IDOCK:   -1.56 KCAL/MOL
REMARK 927      BINDING AFFINITY PREDICTED BY RF-SCORE:    0.00 PKD
ROOT
HETATM    1  CA  UNL     1      -9.843   5.963  72.299  1.00  0.00    -0.160 C  
HETATM    2  C   UNL     1      -9.287   9.568  70.445  1.00  0.00    -0.257 C  
HETATM    3  C   UNL     1     -11.353   6.396  72.179  1.00  0.00    -0.290 C  
HETATM    4  O   UNL     1     -12.458   5.912  72.251  1.00  0.00    -0.150 OA 
HETATM    5  O   UNL     1     -13.833   7.988  71.744  1.00  0.00    -0.365 OA 
HETATM    6  OXT UNL     1     -13.528  10.174  71.511  1.00  0.00    -0.337 OA 
HETATM    7  N   UNL     1     -10.989   7.630  71.777  1.00  0.00    -0.235 N  
HETATM    8  C   UNL     1     -10.789   9.699  70.671  1.00  0.00    -0.386 C  
HETATM    9  CA  UNL     1     -11.562   8.783  71.316  1.00  0.00    -0.292 C  
HETATM   10  S   UNL     1      -8.630   7.893  70.582  1.00  0.00    -0.132 SA 
HETATM   11  C   UNL     1      -9.574   7.491  72.074  1.00  0.00    -0.154 C  
HETATM   12  C   UNL     1     -13.040   9.052  71.524  1.00  0.00    -0.335 C  
ENDROOT
BRANCH   1  13
HETATM   13  N   UNL     1      -9.326   5.066  71.230  1.00  0.00    -0.145 N  
HETATM   14  O   UNL     1     -10.279   3.126  71.988  1.00  0.00    -0.141 OA 
HETATM   15  C   UNL     1      -9.624   3.725  71.149  1.00  0.00    -0.176 C  
HETATM   16  H   UNL     1      -8.715   5.467  70.518  1.00  0.00     0.000 HD 
BRANCH  15  17
HETATM   17  C   UNL     1      -9.073   3.010  69.908  1.00  0.00    -0.126 C  
BRANCH  17  18
HETATM   18  N   UNL     1      -8.363   1.909  69.949  1.00  0.00    -0.044 NA 
HETATM   19  H   UNL     1      -8.243   1.300  69.139  1.00  0.00     0.000 HD 
HETATM   20  O   UNL     1      -7.783   1.634  71.191  1.00  0.00    -0.032 OA 
HETATM   21  H   UNL     1      -7.268   0.836  71.221  1.00  0.00     0.000 HD 
ENDBRANCH  17  18
BRANCH  17  22
HETATM   22  C   UNL     1      -9.356   3.560  68.579  1.00  0.00    -0.166 A  
HETATM   23  S   UNL     1      -9.439   3.857  66.174  1.00  0.00    -0.176 SA 
HETATM   24  H1  UNL     1     -11.216   6.868  67.278  1.00  0.00     0.000 HD 
HETATM   25  N   UNL     1      -8.943   2.933  67.469  1.00  0.00    -0.147 NA 
HETATM   26  N   UNL     1     -10.029   4.787  68.437  1.00  0.00    -0.122 NA 
HETATM   27  H2  UNL     1     -10.845   6.269  65.678  1.00  0.00     0.000 HD 
HETATM   28  C   UNL     1     -10.159   5.065  67.165  1.00  0.00    -0.199 A  
HETATM   29  N   UNL     1     -10.789   6.152  66.690  1.00  0.00    -0.270 NA 
ENDBRANCH  17  22
ENDBRANCH  15  17
ENDBRANCH   1  13
BRANCH   8  30
HETATM   30  C   UNL     1     -11.252  10.956  70.069  1.00  0.00    -0.340 C  
HETATM   31  C   UNL     1     -11.080  10.389  67.555  1.00  0.00    -0.336 C  
HETATM   32  C   UNL     1     -11.341  11.228  68.757  1.00  0.00    -0.335 C  
HETATM   33  C   UNL     1     -10.646  11.423  66.529  1.00  0.00    -0.263 C  
HETATM   34  N   UNL     1     -11.179  12.693  66.982  1.00  0.00    -0.284 N  
HETATM   35  C   UNL     1     -11.672  12.601  68.278  1.00  0.00    -0.342 C  
HETATM   36  O   UNL     1     -12.270  13.438  68.928  1.00  0.00    -0.294 OA 
BRANCH  34  37
HETATM   37  C   UNL     1     -11.460  13.807  66.062  1.00  0.00    -0.326 C  
HETATM   38  C   UNL     1     -12.815  13.698  65.360  1.00  0.00    -0.440 C  
HETATM   39  C   UNL     1     -12.517  12.806  64.169  1.00  0.00    -0.369 C  
HETATM   40  N   UNL     1     -11.164  13.145  63.736  1.00  0.00    -0.568 NA 
HETATM   41  H   UNL     1     -11.141  13.638  62.843  1.00  0.00     0.000 HD 
HETATM   42  C   UNL     1     -10.533  13.906  64.835  1.00  0.00    -0.426 C  
ENDBRANCH  34  37
ENDBRANCH   8  30
TORSDOF 6
ENDMDL
MODEL       14
REMARK 921   NORMALIZED FREE ENERGY PREDICTED BY IDOCK:   -6.77 KCAL/MOL
REMARK 922        TOTAL FREE ENERGY PREDICTED BY IDOCK:  -10.67 KCAL/MOL
REMARK 923 INTER-LIGAND FREE ENERGY PREDICTED BY IDOCK:   -9.49 KCAL/MOL
REMARK 924 INTRA-LIGAND FREE ENERGY PREDICTED BY IDOCK:   -1.17 KCAL/MOL
REMARK 927      BINDING AFFINITY PREDICTED BY RF-SCORE:    0.00 PKD
ROOT
HETATM    1  CA  UNL     1      -9.409   8.474  68.621  1.00  0.00    -0.142 C  
HETATM    2  C   UNL     1      -8.959  11.459  65.860  1.00  0.00    -0.177 C  
HETATM    3  C   UNL     1     -10.465   9.487  69.204  1.00  0.00    -0.210 C  
HETATM    4  O   UNL     1     -11.396   9.506  69.975  1.00  0.00    -0.233 OA 
HETATM    5  O   UNL     1     -12.063  11.945  69.729  1.00  0.00    -0.290 OA 
HETATM    6  OXT UNL     1     -11.288  13.801  68.789  1.00  0.00    -0.248 OA 
HETATM    7  N   UNL     1     -10.044  10.446  68.354  1.00  0.00    -0.158 N  
HETATM    8  C   UNL     1      -9.899  12.207  66.797  1.00  0.00    -0.218 C  
HETATM    9  CA  UNL     1     -10.380  11.715  67.972  1.00  0.00    -0.192 C  
HETATM   10  S   UNL     1      -8.916   9.668  66.077  1.00  0.00    -0.173 SA 
HETATM   11  C   UNL     1      -8.861   9.744  67.885  1.00  0.00    -0.122 C  
HETATM   12  C   UNL     1     -11.270  12.579  68.846  1.00  0.00    -0.281 C  
ENDROOT
BRANCH   1  13
HETATM   13  N   UNL     1      -9.938   7.406  67.730  1.00  0.00    -0.158 N  
HETATM   14  O   UNL     1      -8.054   6.104  67.681  1.00  0.00    -0.111 OA 
HETATM   15  C   UNL     1      -9.220   6.289  67.368  1.00  0.00    -0.116 C  
HETATM   16  H   UNL     1     -10.886   7.508  67.367  1.00  0.00     0.000 HD 
BRANCH  15  17
HETATM   17  C   UNL     1      -9.994   5.262  66.530  1.00  0.00    -0.204 C  
BRANCH  17  18
HETATM   18  N   UNL     1     -11.154   5.497  65.968  1.00  0.00    -0.762 NA 
HETATM   19  H   UNL     1     -11.685   6.353  66.135  1.00  0.00     0.000 HD 
HETATM   20  O   UNL     1     -11.608   4.483  65.120  1.00  0.00    -1.102 OA 
HETATM   21  H   UNL     1     -12.450   4.653  64.712  1.00  0.00     0.000 HD 
ENDBRANCH  17  18
BRANCH  17  22
HETATM   22  C   UNL     1      -9.415   3.933  66.313  1.00  0.00    -0.188 A  
HETATM   23  S   UNL     1      -8.739   1.628  66.644  1.00  0.00    -0.116 SA 
HETATM   24  H1  UNL     1      -7.318   2.268  63.326  1.00  0.00     0.000 HD 
HETATM   25  N   UNL     1      -9.518   2.974  67.243  1.00  0.00    -0.160 NA 
HETATM   26  N   UNL     1      -8.694   3.645  65.140  1.00  0.00    -0.113 NA 
HETATM   27  H2  UNL     1      -7.323   0.831  64.321  1.00  0.00     0.000 HD 
HETATM   28  C   UNL     1      -8.279   2.405  65.180  1.00  0.00    -0.084 A  
HETATM   29  N   UNL     1      -7.590   1.807  64.194  1.00  0.00    -0.058 NA 
ENDBRANCH  17  22
ENDBRANCH  15  17
ENDBRANCH   1  13
BRANCH   8  30
HETATM   30  C   UNL     1     -10.204  13.520  66.216  1.00  0.00    -0.299 C  
HETATM   31  C   UNL     1      -8.258  14.936  67.153  1.00  0.00    -0.244 C  
HETATM   32  C   UNL     1      -9.511  14.656  66.401  1.00  0.00    -0.325 C  
HETATM   33  C   UNL     1      -8.450  16.384  67.573  1.00  0.00    -0.169 C  
HETATM   34  N   UNL     1      -9.420  16.947  66.654  1.00  0.00    -0.253 N  
HETATM   35  C   UNL     1     -10.022  15.959  65.884  1.00  0.00    -0.349 C  
HETATM   36  O   UNL     1     -10.801  16.081  64.958  1.00  0.00    -0.465 OA 
BRANCH  34  37
HETATM   37  C   UNL     1      -9.486  18.388  66.358  1.00  0.00    -0.295 C  
HETATM   38  C   UNL     1      -8.451  19.221  67.117  1.00  0.00    -0.310 C  
HETATM   39  C   UNL     1      -9.124  19.476  68.453  1.00  0.00    -0.356 C  
HETATM   40  N   UNL     1     -10.550  19.626  68.167  1.00  0.00    -0.413 NA 
HETATM   41  H   UNL     1     -10.883  20.583  68.287  1.00  0.00     0.000 HD 
HETATM   42  C   UNL     1     -10.778  19.100  66.805  1.00  0.00    -0.397 C  
ENDBRANCH  34  37
ENDBRANCH   8  30
TORSDOF 6
ENDMDL
MODEL       15
REMARK 921   NORMALIZED FREE ENERGY PREDICTED BY IDOCK:   -6.74 KCAL/MOL
REMARK 922        TOTAL FREE ENERGY PREDICTED BY IDOCK:  -10.63 KCAL/MOL
REMARK 923 INTER-LIGAND FREE ENERGY PREDICTED BY IDOCK:   -9.46 KCAL/MOL
REMARK 924 INTRA-LIGAND FREE ENERGY PREDICTED BY IDOCK:   -1.17 KCAL/MOL
REMARK 927      BINDING AFFINITY PREDICTED BY RF-SCORE:    0.00 PKD
ROOT
HETATM    1  CA  UNL     1     -11.844  11.585  68.577  1.00  0.00    -0.297 C  
HETATM    2  C   UNL     1     -11.293  15.623  68.929  1.00  0.00    -0.339 C  
HETATM    3  C   UNL     1     -11.433  11.891  67.088  1.00  0.00    -0.319 C  
HETATM    4  O   UNL     1     -11.057  11.309  66.098  1.00  0.00    -0.248 OA 
HETATM    5  O   UNL     1     -10.783  13.302  64.547  1.00  0.00    -0.368 OA 
HETATM    6  OXT UNL     1     -11.258  15.470  64.517  1.00  0.00    -0.393 OA 
HETATM    7  N   UNL     1     -11.507  13.217  67.320  1.00  0.00    -0.320 N  
HETATM    8  C   UNL     1     -11.118  15.538  67.417  1.00  0.00    -0.285 C  
HETATM    9  CA  UNL     1     -11.242  14.398  66.683  1.00  0.00    -0.339 C  
HETATM   10  S   UNL     1     -11.139  14.058  69.814  1.00  0.00     0.037 SA 
HETATM   11  C   UNL     1     -12.136  13.123  68.625  1.00  0.00    -0.187 C  
HETATM   12  C   UNL     1     -11.095  14.451  65.174  1.00  0.00    -0.362 C  
ENDROOT
BRANCH   1  13
HETATM   13  N   UNL     1     -10.758  11.119  69.481  1.00  0.00    -0.415 N  
HETATM   14  O   UNL     1     -10.598   8.982  68.671  1.00  0.00    -0.212 OA 
HETATM   15  C   UNL     1     -10.202   9.861  69.420  1.00  0.00    -0.216 C  
HETATM   16  H   UNL     1     -10.405  11.767  70.185  1.00  0.00     0.000 HD 
BRANCH  15  17
HETATM   17  C   UNL     1      -9.021   9.625  70.372  1.00  0.00    -0.187 C  
BRANCH  17  18
HETATM   18  N   UNL     1      -7.872  10.250  70.287  1.00  0.00    -0.426 NA 
HETATM   19  H   UNL     1      -7.077  10.025  70.886  1.00  0.00     0.000 HD 
HETATM   20  O   UNL     1      -7.821  11.248  69.309  1.00  0.00    -0.328 OA 
HETATM   21  H   UNL     1      -6.988  11.700  69.248  1.00  0.00     0.000 HD 
ENDBRANCH  17  18
BRANCH  17  22
HETATM   22  C   UNL     1      -9.164   8.659  71.465  1.00  0.00    -0.246 A  
HETATM   23  S   UNL     1      -9.003   7.587  73.635  1.00  0.00    -0.260 SA 
HETATM   24  H1  UNL     1     -10.852   5.032  71.767  1.00  0.00     0.000 HD 
HETATM   25  N   UNL     1      -8.649   8.905  72.678  1.00  0.00    -0.305 NA 
HETATM   26  N   UNL     1      -9.807   7.425  71.256  1.00  0.00    -0.177 NA 
HETATM   27  H2  UNL     1     -10.327   5.089  73.434  1.00  0.00     0.000 HD 
HETATM   28  C   UNL     1      -9.806   6.741  72.371  1.00  0.00    -0.158 A  
HETATM   29  N   UNL     1     -10.375   5.533  72.517  1.00  0.00    -0.196 NA 
ENDBRANCH  17  22
ENDBRANCH  15  17
ENDBRANCH   1  13
BRANCH   8  30
HETATM   30  C   UNL     1     -10.783  16.871  66.902  1.00  0.00    -0.130 C  
HETATM   31  C   UNL     1      -8.255  16.978  67.418  1.00  0.00    -0.199 C  
HETATM   32  C   UNL     1      -9.578  17.462  66.936  1.00  0.00    -0.279 C  
HETATM   33  C   UNL     1      -7.582  18.266  67.861  1.00  0.00    -0.241 C  
HETATM   34  N   UNL     1      -8.254  19.339  67.153  1.00  0.00    -0.263 N  
HETATM   35  C   UNL     1      -9.409  18.886  66.526  1.00  0.00    -0.335 C  
HETATM   36  O   UNL     1     -10.155  19.485  65.775  1.00  0.00    -0.420 OA 
BRANCH  34  37
HETATM   37  C   UNL     1      -7.604  20.628  66.867  1.00  0.00    -0.234 C  
HETATM   38  C   UNL     1      -6.957  20.699  65.483  1.00  0.00    -0.119 C  
HETATM   39  C   UNL     1      -5.592  20.074  65.707  1.00  0.00    -0.171 C  
HETATM   40  N   UNL     1      -5.180  20.471  67.051  1.00  0.00    -0.168 NA 
HETATM   41  H   UNL     1      -4.411  21.142  67.052  1.00  0.00     0.000 HD 
HETATM   42  C   UNL     1      -6.385  20.968  67.748  1.00  0.00    -0.354 C  
ENDBRANCH  34  37
ENDBRANCH   8  30
TORSDOF 6
ENDMDL
MODEL       16
REMARK 921   NORMALIZED FREE ENERGY PREDICTED BY IDOCK:   -6.73 KCAL/MOL
REMARK 922        TOTAL FREE ENERGY PREDICTED BY IDOCK:  -10.61 KCAL/MOL
REMARK 923 INTER-LIGAND FREE ENERGY PREDICTED BY IDOCK:   -8.91 KCAL/MOL
REMARK 924 INTRA-LIGAND FREE ENERGY PREDICTED BY IDOCK:   -1.70 KCAL/MOL
REMARK 927      BINDING AFFINITY PREDICTED BY RF-SCORE:    0.00 PKD
ROOT
HETATM    1  CA  UNL     1      -9.520  14.142  68.140  1.00  0.00    -0.213 C  
HETATM    2  C   UNL     1     -10.002  10.112  68.657  1.00  0.00    -0.170 C  
HETATM    3  C   UNL     1      -8.012  13.710  67.995  1.00  0.00    -0.154 C  
HETATM    4  O   UNL     1      -6.963  14.150  67.588  1.00  0.00    -0.166 OA 
HETATM    5  O   UNL     1      -5.487  12.130  68.034  1.00  0.00    -0.051 OA 
HETATM    6  OXT UNL     1      -5.608  10.173  69.074  1.00  0.00    -0.035 OA 
HETATM    7  N   UNL     1      -8.312  12.457  68.395  1.00  0.00    -0.162 N  
HETATM    8  C   UNL     1      -8.478  10.120  68.635  1.00  0.00    -0.122 C  
HETATM    9  CA  UNL     1      -7.708  11.238  68.529  1.00  0.00    -0.131 C  
HETATM   10  S   UNL     1     -10.792  11.592  67.991  1.00  0.00    -0.230 SA 
HETATM   11  C   UNL     1      -9.670  12.741  68.827  1.00  0.00     0.070 C  
HETATM   12  C   UNL     1      -6.196  11.121  68.571  1.00  0.00    -0.042 C  
ENDROOT
BRANCH   1  13
HETATM   13  N   UNL     1     -10.285  14.311  66.875  1.00  0.00    -0.263 N  
HETATM   14  O   UNL     1      -9.388  16.326  66.256  1.00  0.00    -0.278 OA 
HETATM   15  C   UNL     1     -10.120  15.378  66.021  1.00  0.00    -0.324 C  
HETATM   16  H   UNL     1     -10.969  13.596  66.626  1.00  0.00     0.000 HD 
BRANCH  15  17
HETATM   17  C   UNL     1     -10.931  15.300  64.720  1.00  0.00    -0.386 C  
BRANCH  17  18
HETATM   18  N   UNL     1     -11.295  16.346  64.018  1.00  0.00    -1.539 NA 
HETATM   19  H   UNL     1     -11.649  16.272  63.063  1.00  0.00     0.000 HD 
HETATM   20  O   UNL     1     -11.161  17.570  64.680  1.00  0.00    -0.978 OA 
HETATM   21  H   UNL     1     -11.425  18.327  64.171  1.00  0.00     0.000 HD 
ENDBRANCH  17  18
BRANCH  17  22
HETATM   22  C   UNL     1     -11.323  13.989  64.197  1.00  0.00    -0.153 A  
HETATM   23  S   UNL     1     -12.649  12.144  63.348  1.00  0.00    -0.301 SA 
HETATM   24  H1  UNL     1      -9.323  10.604  63.397  1.00  0.00     0.000 HD 
HETATM   25  N   UNL     1     -12.600  13.717  63.896  1.00  0.00    -0.694 NA 
HETATM   26  N   UNL     1     -10.373  12.963  64.042  1.00  0.00    -0.398 NA 
HETATM   27  H2  UNL     1     -10.875   9.981  62.891  1.00  0.00     0.000 HD 
HETATM   28  C   UNL     1     -10.961  11.896  63.565  1.00  0.00    -0.432 A  
HETATM   29  N   UNL     1     -10.324  10.750  63.269  1.00  0.00    -0.202 NA 
ENDBRANCH  17  22
ENDBRANCH  15  17
ENDBRANCH   1  13
BRANCH   8  30
HETATM   30  C   UNL     1      -7.995   8.738  68.730  1.00  0.00    -0.106 C  
HETATM   31  C   UNL     1      -8.025   8.035  66.245  1.00  0.00    -0.105 C  
HETATM   32  C   UNL     1      -7.836   7.875  67.713  1.00  0.00    -0.123 C  
HETATM   33  C   UNL     1      -8.412   6.629  65.815  1.00  0.00    -0.148 C  
HETATM   34  N   UNL     1      -7.915   5.739  66.845  1.00  0.00    -0.102 N  
HETATM   35  C   UNL     1      -7.492   6.446  67.965  1.00  0.00    -0.094 C  
HETATM   36  O   UNL     1      -6.938   6.031  68.965  1.00  0.00    -0.063 OA 
BRANCH  34  37
HETATM   37  C   UNL     1      -7.594   4.326  66.584  1.00  0.00    -0.085 C  
HETATM   38  C   UNL     1      -8.037   3.839  65.203  1.00  0.00    -0.097 C  
HETATM   39  C   UNL     1      -9.490   3.457  65.421  1.00  0.00    -0.136 C  
HETATM   40  N   UNL     1      -9.567   2.909  66.773  1.00  0.00    -0.408 NA 
HETATM   41  H   UNL     1      -9.734   1.903  66.788  1.00  0.00     0.000 HD 
HETATM   42  C   UNL     1      -8.327   3.302  67.474  1.00  0.00    -0.087 C  
ENDBRANCH  34  37
ENDBRANCH   8  30
TORSDOF 6
ENDMDL
MODEL       17
REMARK 921   NORMALIZED FREE ENERGY PREDICTED BY IDOCK:   -6.72 KCAL/MOL
REMARK 922        TOTAL FREE ENERGY PREDICTED BY IDOCK:  -10.60 KCAL/MOL
REMARK 923 INTER-LIGAND FREE ENERGY PREDICTED BY IDOCK:   -9.20 KCAL/MOL
REMARK 924 INTRA-LIGAND FREE ENERGY PREDICTED BY IDOCK:   -1.39 KCAL/MOL
REMARK 927      BINDING AFFINITY PREDICTED BY RF-SCORE:    0.00 PKD
ROOT
HETATM    1  CA  UNL     1     -11.312  13.662  67.897  1.00  0.00    -0.295 C  
HETATM    2  C   UNL     1     -10.464   9.726  68.624  1.00  0.00    -0.208 C  
HETATM    3  C   UNL     1     -11.965  13.546  69.325  1.00  0.00    -0.330 C  
HETATM    4  O   UNL     1     -12.362  14.259  70.217  1.00  0.00    -0.319 OA 
HETATM    5  O   UNL     1     -13.075  12.464  71.869  1.00  0.00    -0.424 OA 
HETATM    6  OXT UNL     1     -13.344  10.262  71.927  1.00  0.00    -0.415 OA 
HETATM    7  N   UNL     1     -11.802  12.208  69.313  1.00  0.00    -0.318 N  
HETATM    8  C   UNL     1     -11.330   9.965  69.855  1.00  0.00    -0.273 C  
HETATM    9  CA  UNL     1     -11.962  11.135  70.147  1.00  0.00    -0.365 C  
HETATM   10  S   UNL     1      -9.845  11.216  67.814  1.00  0.00    -0.174 SA 
HETATM   11  C   UNL     1     -11.422  12.099  67.915  1.00  0.00    -0.328 C  
HETATM   12  C   UNL     1     -12.841  11.234  71.379  1.00  0.00    -0.410 C  
ENDROOT
BRANCH   1  13
HETATM   13  N   UNL     1      -9.924  14.197  67.846  1.00  0.00    -0.227 N  
HETATM   14  O   UNL     1     -10.035  15.104  65.745  1.00  0.00    -0.297 OA 
HETATM   15  C   UNL     1      -9.419  14.909  66.782  1.00  0.00    -0.252 C  
HETATM   16  H   UNL     1      -9.312  14.027  68.645  1.00  0.00     0.000 HD 
BRANCH  15  17
HETATM   17  C   UNL     1      -8.000  15.459  66.981  1.00  0.00    -0.224 C  
BRANCH  17  18
HETATM   18  N   UNL     1      -6.930  14.710  67.088  1.00  0.00    -0.365 NA 
HETATM   19  H   UNL     1      -6.970  13.690  67.097  1.00  0.00     0.000 HD 
HETATM   20  O   UNL     1      -5.729  15.419  67.188  1.00  0.00    -0.304 OA 
HETATM   21  H   UNL     1      -4.953  14.875  67.266  1.00  0.00     0.000 HD 
ENDBRANCH  17  18
BRANCH  17  22
HETATM   22  C   UNL     1      -7.797  16.909  67.044  1.00  0.00    -0.199 A  
HETATM   23  S   UNL     1      -7.523  19.168  67.883  1.00  0.00    -0.266 SA 
HETATM   24  H1  UNL     1      -7.329  19.773  64.273  1.00  0.00     0.000 HD 
HETATM   25  N   UNL     1      -7.757  17.552  68.219  1.00  0.00    -0.237 NA 
HETATM   26  N   UNL     1      -7.685  17.671  65.867  1.00  0.00    -0.544 NA 
HETATM   27  H2  UNL     1      -7.198  20.862  65.634  1.00  0.00     0.000 HD 
HETATM   28  C   UNL     1      -7.512  18.930  66.180  1.00  0.00    -0.266 A  
HETATM   29  N   UNL     1      -7.335  19.914  65.283  1.00  0.00    -0.359 NA 
ENDBRANCH  17  22
ENDBRANCH  15  17
ENDBRANCH   1  13
BRANCH   8  30
HETATM   30  C   UNL     1     -11.350   8.742  70.666  1.00  0.00    -0.289 C  
HETATM   31  C   UNL     1      -9.205   9.049  72.072  1.00  0.00    -0.013 C  
HETATM   32  C   UNL     1     -10.432   8.370  71.573  1.00  0.00    -0.305 C  
HETATM   33  C   UNL     1      -8.313   7.874  72.438  1.00  0.00    -0.138 C  
HETATM   34  N   UNL     1      -9.195   6.743  72.645  1.00  0.00    -0.139 N  
HETATM   35  C   UNL     1     -10.486   7.022  72.211  1.00  0.00    -0.208 C  
HETATM   36  O   UNL     1     -11.490   6.345  72.319  1.00  0.00    -0.273 OA 
BRANCH  34  37
HETATM   37  C   UNL     1      -8.835   5.604  73.505  1.00  0.00    -0.122 C  
HETATM   38  C   UNL     1      -7.379   5.623  73.973  1.00  0.00    -0.089 C  
HETATM   39  C   UNL     1      -6.636   4.972  72.821  1.00  0.00    -0.060 C  
HETATM   40  N   UNL     1      -7.529   3.943  72.293  1.00  0.00    -0.063 NA 
HETATM   41  H   UNL     1      -7.207   2.995  72.489  1.00  0.00     0.000 HD 
HETATM   42  C   UNL     1      -8.879   4.220  72.829  1.00  0.00    -0.104 C  
ENDBRANCH  34  37
ENDBRANCH   8  30
TORSDOF 6
ENDMDL
MODEL       18
REMARK 921   NORMALIZED FREE ENERGY PREDICTED BY IDOCK:   -6.71 KCAL/MOL
REMARK 922        TOTAL FREE ENERGY PREDICTED BY IDOCK:  -10.58 KCAL/MOL
REMARK 923 INTER-LIGAND FREE ENERGY PREDICTED BY IDOCK:   -9.47 KCAL/MOL
REMARK 924 INTRA-LIGAND FREE ENERGY PREDICTED BY IDOCK:   -1.11 KCAL/MOL
REMARK 927      BINDING AFFINITY PREDICTED BY RF-SCORE:    0.00 PKD
ROOT
HETATM    1  CA  UNL     1      -9.375   8.926  68.241  1.00  0.00    -0.143 C  
HETATM    2  C   UNL     1     -10.445  12.679  67.012  1.00  0.00    -0.232 C  
HETATM    3  C   UNL     1      -7.994   9.646  68.474  1.00  0.00    -0.089 C  
HETATM    4  O   UNL     1      -6.951   9.472  69.059  1.00  0.00    -0.057 OA 
HETATM    5  O   UNL     1      -5.785  11.644  68.446  1.00  0.00    -0.046 OA 
HETATM    6  OXT UNL     1      -6.086  13.374  67.089  1.00  0.00    -0.274 OA 
HETATM    7  N   UNL     1      -8.440  10.750  67.841  1.00  0.00    -0.120 N  
HETATM    8  C   UNL     1      -8.958  12.956  67.200  1.00  0.00    -0.219 C  
HETATM    9  CA  UNL     1      -8.034  12.028  67.572  1.00  0.00    -0.159 C  
HETATM   10  S   UNL     1     -11.061  11.190  67.825  1.00  0.00    -0.303 SA 
HETATM   11  C   UNL     1      -9.660  10.160  67.319  1.00  0.00    -0.159 C  
HETATM   12  C   UNL     1      -6.571  12.416  67.675  1.00  0.00    -0.131 C  
ENDROOT
BRANCH   1  13
HETATM   13  N   UNL     1     -10.266   8.803  69.426  1.00  0.00    -0.204 N  
HETATM   14  O   UNL     1     -10.983   6.663  69.034  1.00  0.00    -0.265 OA 
HETATM   15  C   UNL     1     -10.966   7.660  69.739  1.00  0.00    -0.170 C  
HETATM   16  H   UNL     1     -10.364   9.611  70.041  1.00  0.00     0.000 HD 
BRANCH  15  17
HETATM   17  C   UNL     1     -11.740   7.713  71.063  1.00  0.00    -0.286 C  
BRANCH  17  18
HETATM   18  N   UNL     1     -12.871   8.355  71.228  1.00  0.00    -0.474 NA 
HETATM   19  H   UNL     1     -13.202   9.065  70.573  1.00  0.00     0.000 HD 
HETATM   20  O   UNL     1     -13.588   7.991  72.371  1.00  0.00    -0.530 OA 
HETATM   21  H   UNL     1     -14.408   8.456  72.490  1.00  0.00     0.000 HD 
ENDBRANCH  17  18
BRANCH  17  22
HETATM   22  C   UNL     1     -11.215   6.997  72.229  1.00  0.00    -0.263 A  
HETATM   23  S   UNL     1     -10.083   6.498  74.315  1.00  0.00    -0.331 SA 
HETATM   24  H1  UNL     1     -11.324   3.167  73.420  1.00  0.00     0.000 HD 
HETATM   25  N   UNL     1     -10.508   7.634  73.172  1.00  0.00    -0.359 NA 
HETATM   26  N   UNL     1     -11.399   5.608  72.364  1.00  0.00    -0.284 NA 
HETATM   27  H2  UNL     1     -10.415   3.726  74.805  1.00  0.00     0.000 HD 
HETATM   28  C   UNL     1     -10.843   5.203  73.476  1.00  0.00    -0.303 A  
HETATM   29  N   UNL     1     -10.872   3.934  73.917  1.00  0.00    -0.233 NA 
ENDBRANCH  17  22
ENDBRANCH  15  17
ENDBRANCH   1  13
BRANCH   8  30
HETATM   30  C   UNL     1      -8.702  14.376  66.929  1.00  0.00    -0.218 C  
HETATM   31  C   UNL     1      -9.478  15.447  69.147  1.00  0.00    -0.242 C  
HETATM   32  C   UNL     1      -8.952  15.405  67.755  1.00  0.00    -0.173 C  
HETATM   33  C   UNL     1     -10.189  16.790  69.183  1.00  0.00    -0.306 C  
HETATM   34  N   UNL     1      -9.602  17.588  68.124  1.00  0.00    -0.283 N  
HETATM   35  C   UNL     1      -8.797  16.815  67.295  1.00  0.00    -0.204 C  
HETATM   36  O   UNL     1      -8.084  17.171  66.376  1.00  0.00    -0.256 OA 
BRANCH  34  37
HETATM   37  C   UNL     1      -9.596  19.059  68.152  1.00  0.00    -0.341 C  
HETATM   38  C   UNL     1     -10.810  19.693  67.468  1.00  0.00    -0.463 C  
HETATM   39  C   UNL     1     -10.404  19.730  66.006  1.00  0.00    -0.511 C  
HETATM   40  N   UNL     1      -8.967  19.993  65.991  1.00  0.00    -0.526 NA 
HETATM   41  H   UNL     1      -8.735  20.926  65.648  1.00  0.00     0.000 HD 
HETATM   42  C   UNL     1      -8.462  19.735  67.356  1.00  0.00    -0.314 C  
ENDBRANCH  34  37
ENDBRANCH   8  30
TORSDOF 6
ENDMDL
MODEL       19
REMARK 921   NORMALIZED FREE ENERGY PREDICTED BY IDOCK:   -6.69 KCAL/MOL
REMARK 922        TOTAL FREE ENERGY PREDICTED BY IDOCK:  -10.56 KCAL/MOL
REMARK 923 INTER-LIGAND FREE ENERGY PREDICTED BY IDOCK:   -9.57 KCAL/MOL
REMARK 924 INTRA-LIGAND FREE ENERGY PREDICTED BY IDOCK:   -0.99 KCAL/MOL
REMARK 927      BINDING AFFINITY PREDICTED BY RF-SCORE:    0.00 PKD
ROOT
HETATM    1  CA  UNL     1     -11.558  13.587  68.347  1.00  0.00    -0.343 C  
HETATM    2  C   UNL     1     -10.554   9.680  69.030  1.00  0.00    -0.218 C  
HETATM    3  C   UNL     1     -12.282  13.403  69.734  1.00  0.00    -0.245 C  
HETATM    4  O   UNL     1     -12.761  14.072  70.619  1.00  0.00    -0.327 OA 
HETATM    5  O   UNL     1     -13.472  12.204  72.187  1.00  0.00    -0.494 OA 
HETATM    6  OXT UNL     1     -13.633   9.990  72.179  1.00  0.00    -0.395 OA 
HETATM    7  N   UNL     1     -12.051  12.075  69.700  1.00  0.00    -0.264 N  
HETATM    8  C   UNL     1     -11.497   9.845  70.217  1.00  0.00    -0.349 C  
HETATM    9  CA  UNL     1     -12.202  10.975  70.499  1.00  0.00    -0.381 C  
HETATM   10  S   UNL     1      -9.968  11.218  68.290  1.00  0.00    -0.201 SA 
HETATM   11  C   UNL     1     -11.591  12.021  68.324  1.00  0.00    -0.334 C  
HETATM   12  C   UNL     1     -13.150  10.999  71.683  1.00  0.00    -0.438 C  
ENDROOT
BRANCH   1  13
HETATM   13  N   UNL     1     -10.198  14.190  68.386  1.00  0.00    -0.241 N  
HETATM   14  O   UNL     1      -9.954  14.509  66.130  1.00  0.00    -0.283 OA 
HETATM   15  C   UNL     1      -9.529  14.635  67.268  1.00  0.00    -0.219 C  
HETATM   16  H   UNL     1      -9.735  14.278  69.291  1.00  0.00     0.000 HD 
BRANCH  15  17
HETATM   17  C   UNL     1      -8.184  15.321  67.545  1.00  0.00    -0.173 C  
BRANCH  17  18
HETATM   18  N   UNL     1      -7.018  14.745  67.379  1.00  0.00    -0.219 NA 
HETATM   19  H   UNL     1      -6.136  15.229  67.548  1.00  0.00     0.000 HD 
HETATM   20  O   UNL     1      -7.079  13.415  66.953  1.00  0.00    -0.359 OA 
HETATM   21  H   UNL     1      -6.234  12.998  66.833  1.00  0.00     0.000 HD 
ENDBRANCH  17  18
BRANCH  17  22
HETATM   22  C   UNL     1      -8.170  16.711  68.009  1.00  0.00    -0.185 A  
HETATM   23  S   UNL     1      -7.408  18.875  68.795  1.00  0.00    -0.317 SA 
HETATM   24  H1  UNL     1     -11.034  19.416  68.772  1.00  0.00     0.000 HD 
HETATM   25  N   UNL     1      -7.019  17.333  68.298  1.00  0.00    -0.180 NA 
HETATM   26  N   UNL     1      -9.372  17.415  68.209  1.00  0.00    -0.270 NA 
HETATM   27  H2  UNL     1      -9.711  20.482  69.183  1.00  0.00     0.000 HD 
HETATM   28  C   UNL     1      -9.101  18.626  68.624  1.00  0.00    -0.314 A  
HETATM   29  N   UNL     1     -10.030  19.564  68.873  1.00  0.00    -0.456 NA 
ENDBRANCH  17  22
ENDBRANCH  15  17
ENDBRANCH   1  13
BRANCH   8  30
HETATM   30  C   UNL     1     -11.500   8.602  70.997  1.00  0.00    -0.324 C  
HETATM   31  C   UNL     1      -9.176   8.721  72.119  1.00  0.00    -0.248 C  
HETATM   32  C   UNL     1     -10.502   8.141  71.769  1.00  0.00    -0.304 C  
HETATM   33  C   UNL     1      -8.330   7.478  72.341  1.00  0.00    -0.108 C  
HETATM   34  N   UNL     1      -9.257   6.403  72.636  1.00  0.00    -0.139 N  
HETATM   35  C   UNL     1     -10.569   6.782  72.380  1.00  0.00    -0.214 C  
HETATM   36  O   UNL     1     -11.597   6.171  72.603  1.00  0.00    -0.265 OA 
BRANCH  34  37
HETATM   37  C   UNL     1      -8.871   5.217  73.418  1.00  0.00    -0.113 C  
HETATM   38  C   UNL     1      -8.532   3.997  72.559  1.00  0.00    -0.100 C  
HETATM   39  C   UNL     1      -9.889   3.370  72.299  1.00  0.00    -0.161 C  
HETATM   40  N   UNL     1     -10.674   3.581  73.513  1.00  0.00    -0.197 NA 
HETATM   41  H   UNL     1     -10.841   2.721  74.036  1.00  0.00     0.000 HD 
HETATM   42  C   UNL     1      -9.979   4.617  74.306  1.00  0.00    -0.185 C  
ENDBRANCH  34  37
ENDBRANCH   8  30
TORSDOF 6
ENDMDL
MODEL       20
REMARK 921   NORMALIZED FREE ENERGY PREDICTED BY IDOCK:   -6.66 KCAL/MOL
REMARK 922        TOTAL FREE ENERGY PREDICTED BY IDOCK:  -10.52 KCAL/MOL
REMARK 923 INTER-LIGAND FREE ENERGY PREDICTED BY IDOCK:   -8.91 KCAL/MOL
REMARK 924 INTRA-LIGAND FREE ENERGY PREDICTED BY IDOCK:   -1.61 KCAL/MOL
REMARK 927      BINDING AFFINITY PREDICTED BY RF-SCORE:    0.00 PKD
ROOT
HETATM    1  CA  UNL     1     -10.330   8.467  67.225  1.00  0.00    -0.299 C  
HETATM    2  C   UNL     1     -11.383  12.406  67.560  1.00  0.00    -0.315 C  
HETATM    3  C   UNL     1      -9.675   8.994  65.893  1.00  0.00    -0.236 C  
HETATM    4  O   UNL     1      -8.866   8.648  65.065  1.00  0.00    -0.165 OA 
HETATM    5  O   UNL     1      -8.925  10.704  63.572  1.00  0.00    -0.186 OA 
HETATM    6  OXT UNL     1     -10.122  12.558  63.332  1.00  0.00    -0.396 OA 
HETATM    7  N   UNL     1     -10.280  10.189  66.045  1.00  0.00    -0.243 N  
HETATM    8  C   UNL     1     -10.793  12.485  66.157  1.00  0.00    -0.304 C  
HETATM    9  CA  UNL     1     -10.298  11.426  65.460  1.00  0.00    -0.266 C  
HETATM   10  S   UNL     1     -10.918  10.945  68.512  1.00  0.00    -0.253 SA 
HETATM   11  C   UNL     1     -11.157   9.794  67.134  1.00  0.00     0.118 C  
HETATM   12  C   UNL     1      -9.784  11.623  64.046  1.00  0.00    -0.202 C  
ENDROOT
BRANCH   1  13
HETATM   13  N   UNL     1      -9.431   8.362  68.406  1.00  0.00    -0.139 N  
HETATM   14  O   UNL     1     -10.719   6.911  69.626  1.00  0.00    -0.224 OA 
HETATM   15  C   UNL     1      -9.691   7.557  69.493  1.00  0.00    -0.164 C  
HETATM   16  H   UNL     1      -8.575   8.917  68.412  1.00  0.00     0.000 HD 
BRANCH  15  17
HETATM   17  C   UNL     1      -8.581   7.516  70.552  1.00  0.00    -0.138 C  
BRANCH  17  18
HETATM   18  N   UNL     1      -8.599   6.737  71.606  1.00  0.00    -0.125 NA 
HETATM   19  H   UNL     1      -8.872   5.755  71.560  1.00  0.00     0.000 HD 
HETATM   20  O   UNL     1      -8.214   7.357  72.798  1.00  0.00    -0.106 OA 
HETATM   21  H   UNL     1      -8.227   6.792  73.561  1.00  0.00     0.000 HD 
ENDBRANCH  17  18
BRANCH  17  22
HETATM   22  C   UNL     1      -7.407   8.379  70.393  1.00  0.00    -0.056 A  
HETATM   23  S   UNL     1      -5.204   9.191  69.787  1.00  0.00    -0.033 SA 
HETATM   24  H1  UNL     1      -6.520  12.111  71.569  1.00  0.00     0.000 HD 
HETATM   25  N   UNL     1      -6.312   7.947  69.753  1.00  0.00    -0.030 NA 
HETATM   26  N   UNL     1      -7.382   9.670  70.952  1.00  0.00    -0.322 NA 
HETATM   27  H2  UNL     1      -4.990  11.841  70.768  1.00  0.00     0.000 HD 
HETATM   28  C   UNL     1      -6.235  10.238  70.679  1.00  0.00    -0.093 A  
HETATM   29  N   UNL     1      -5.908  11.490  71.040  1.00  0.00    -0.371 NA 
ENDBRANCH  17  22
ENDBRANCH  15  17
ENDBRANCH   1  13
BRANCH   8  30
HETATM   30  C   UNL     1     -10.836  13.880  65.702  1.00  0.00    -0.292 C  
HETATM   31  C   UNL     1      -8.781  14.859  66.922  1.00  0.00    -0.276 C  
HETATM   32  C   UNL     1      -9.993  14.863  66.057  1.00  0.00    -0.337 C  
HETATM   33  C   UNL     1      -8.781  16.272  67.482  1.00  0.00    -0.181 C  
HETATM   34  N   UNL     1      -9.566  17.073  66.564  1.00  0.00    -0.266 N  
HETATM   35  C   UNL     1     -10.246  16.276  65.650  1.00  0.00    -0.343 C  
HETATM   36  O   UNL     1     -10.912  16.613  64.691  1.00  0.00    -0.793 OA 
BRANCH  34  37
HETATM   37  C   UNL     1      -9.379  18.526  66.422  1.00  0.00    -0.282 C  
HETATM   38  C   UNL     1      -8.295  19.100  67.336  1.00  0.00    -0.307 C  
HETATM   39  C   UNL     1      -9.031  19.334  68.642  1.00  0.00    -0.374 C  
HETATM   40  N   UNL     1     -10.385  19.744  68.277  1.00  0.00    -0.442 NA 
HETATM   41  H   UNL     1     -10.573  20.727  68.477  1.00  0.00     0.000 HD 
HETATM   42  C   UNL     1     -10.577  19.395  66.853  1.00  0.00    -0.476 C  
ENDBRANCH  34  37
ENDBRANCH   8  30
TORSDOF 6
ENDMDL
MODEL       21
REMARK 921   NORMALIZED FREE ENERGY PREDICTED BY IDOCK:   -6.65 KCAL/MOL
REMARK 922        TOTAL FREE ENERGY PREDICTED BY IDOCK:  -10.51 KCAL/MOL
REMARK 923 INTER-LIGAND FREE ENERGY PREDICTED BY IDOCK:   -9.12 KCAL/MOL
REMARK 924 INTRA-LIGAND FREE ENERGY PREDICTED BY IDOCK:   -1.39 KCAL/MOL
REMARK 927      BINDING AFFINITY PREDICTED BY RF-SCORE:    0.00 PKD
ROOT
HETATM    1  CA  UNL     1      -9.517   8.931  66.968  1.00  0.00    -0.166 C  
HETATM    2  C   UNL     1     -11.509  12.240  68.317  1.00  0.00    -0.315 C  
HETATM    3  C   UNL     1      -8.295   9.922  67.037  1.00  0.00    -0.121 C  
HETATM    4  O   UNL     1      -7.087   9.896  67.039  1.00  0.00    -0.087 OA 
HETATM    5  O   UNL     1      -6.638  12.387  67.270  1.00  0.00    -0.150 OA 
HETATM    6  OXT UNL     1      -7.764  14.298  67.206  1.00  0.00    -0.185 OA 
HETATM    7  N   UNL     1      -9.124  10.960  67.268  1.00  0.00    -0.141 N  
HETATM    8  C   UNL     1     -10.160  12.911  68.085  1.00  0.00    -0.240 C  
HETATM    9  CA  UNL     1      -9.060  12.292  67.574  1.00  0.00    -0.182 C  
HETATM   10  S   UNL     1     -11.470  10.438  68.402  1.00  0.00    -0.049 SA 
HETATM   11  C   UNL     1     -10.360  10.252  66.983  1.00  0.00    -0.243 C  
HETATM   12  C   UNL     1      -7.787  13.082  67.341  1.00  0.00    -0.164 C  
ENDROOT
BRANCH   1  13
HETATM   13  N   UNL     1      -9.714   8.041  68.144  1.00  0.00    -0.156 N  
HETATM   14  O   UNL     1     -10.979   6.444  67.094  1.00  0.00    -0.354 OA 
HETATM   15  C   UNL     1     -10.401   6.849  68.091  1.00  0.00    -0.190 C  
HETATM   16  H   UNL     1      -9.320   8.330  69.039  1.00  0.00     0.000 HD 
BRANCH  15  17
HETATM   17  C   UNL     1     -10.394   6.037  69.393  1.00  0.00    -0.236 C  
BRANCH  17  18
HETATM   18  N   UNL     1     -10.099   4.761  69.462  1.00  0.00    -0.220 NA 
HETATM   19  H   UNL     1     -10.191   4.220  70.322  1.00  0.00     0.000 HD 
HETATM   20  O   UNL     1      -9.649   4.200  68.263  1.00  0.00    -0.158 OA 
HETATM   21  H   UNL     1      -9.436   3.276  68.313  1.00  0.00     0.000 HD 
ENDBRANCH  17  18
BRANCH  17  22
HETATM   22  C   UNL     1     -10.715   6.706  70.657  1.00  0.00    -0.241 A  
HETATM   23  S   UNL     1     -10.703   7.355  72.994  1.00  0.00    -0.388 SA 
HETATM   24  H1  UNL     1     -13.414   9.473  71.730  1.00  0.00     0.000 HD 
HETATM   25  N   UNL     1     -10.054   6.409  71.785  1.00  0.00    -0.184 NA 
HETATM   26  N   UNL     1     -11.761   7.644  70.729  1.00  0.00    -0.272 NA 
HETATM   27  H2  UNL     1     -12.714   9.324  73.325  1.00  0.00     0.000 HD 
HETATM   28  C   UNL     1     -11.854   8.096  71.953  1.00  0.00    -0.317 A  
HETATM   29  N   UNL     1     -12.732   9.034  72.347  1.00  0.00    -0.386 NA 
ENDBRANCH  17  22
ENDBRANCH  15  17
ENDBRANCH   1  13
BRANCH   8  30
HETATM   30  C   UNL     1     -10.246  14.312  68.516  1.00  0.00    -0.245 C  
HETATM   31  C   UNL     1     -11.096  15.440  66.354  1.00  0.00    -0.230 C  
HETATM   32  C   UNL     1     -10.619  15.358  67.762  1.00  0.00    -0.274 C  
HETATM   33  C   UNL     1     -10.625  16.823  65.934  1.00  0.00    -0.248 C  
HETATM   34  N   UNL     1     -10.442  17.578  67.158  1.00  0.00    -0.332 N  
HETATM   35  C   UNL     1     -10.506  16.754  68.276  1.00  0.00    -0.341 C  
HETATM   36  O   UNL     1     -10.491  17.061  69.452  1.00  0.00    -0.321 OA 
BRANCH  34  37
HETATM   37  C   UNL     1     -10.526  19.047  67.202  1.00  0.00    -0.441 C  
HETATM   38  C   UNL     1     -10.056  19.729  65.916  1.00  0.00    -0.513 C  
HETATM   39  C   UNL     1      -8.552  19.820  66.102  1.00  0.00    -0.338 C  
HETATM   40  N   UNL     1      -8.333  20.059  67.526  1.00  0.00    -0.326 NA 
HETATM   41  H   UNL     1      -7.996  21.001  67.727  1.00  0.00     0.000 HD 
HETATM   42  C   UNL     1      -9.597  19.735  68.222  1.00  0.00    -0.368 C  
ENDBRANCH  34  37
ENDBRANCH   8  30
TORSDOF 6
ENDMDL
MODEL       22
REMARK 921   NORMALIZED FREE ENERGY PREDICTED BY IDOCK:   -6.65 KCAL/MOL
REMARK 922        TOTAL FREE ENERGY PREDICTED BY IDOCK:  -10.50 KCAL/MOL
REMARK 923 INTER-LIGAND FREE ENERGY PREDICTED BY IDOCK:   -9.17 KCAL/MOL
REMARK 924 INTRA-LIGAND FREE ENERGY PREDICTED BY IDOCK:   -1.33 KCAL/MOL
REMARK 927      BINDING AFFINITY PREDICTED BY RF-SCORE:    0.00 PKD
ROOT
HETATM    1  CA  UNL     1      -8.073   8.679  66.289  1.00  0.00    -0.103 C  
HETATM    2  C   UNL     1     -10.787  11.738  66.405  1.00  0.00    -0.282 C  
HETATM    3  C   UNL     1      -7.404   9.537  67.429  1.00  0.00    -0.087 C  
HETATM    4  O   UNL     1      -6.578   9.423  68.303  1.00  0.00    -0.057 OA 
HETATM    5  O   UNL     1      -6.726  11.757  69.295  1.00  0.00    -0.103 OA 
HETATM    6  OXT UNL     1      -7.669  13.712  68.828  1.00  0.00    -0.127 OA 
HETATM    7  N   UNL     1      -8.256  10.555  67.190  1.00  0.00    -0.122 N  
HETATM    8  C   UNL     1      -9.777  12.343  67.373  1.00  0.00    -0.193 C  
HETATM    9  CA  UNL     1      -8.587  11.775  67.711  1.00  0.00    -0.151 C  
HETATM   10  S   UNL     1     -10.614   9.965  66.117  1.00  0.00     0.127 SA 
HETATM   11  C   UNL     1      -8.811  10.021  65.958  1.00  0.00    -0.145 C  
HETATM   12  C   UNL     1      -7.641  12.502  68.649  1.00  0.00    -0.080 C  
ENDROOT
BRANCH   1  13
HETATM   13  N   UNL     1      -8.954   7.565  66.731  1.00  0.00    -0.137 N  
HETATM   14  O   UNL     1      -8.591   6.178  64.944  1.00  0.00    -0.090 OA 
HETATM   15  C   UNL     1      -9.105   6.389  66.032  1.00  0.00    -0.097 C  
HETATM   16  H   UNL     1      -9.476   7.678  67.600  1.00  0.00     0.000 HD 
BRANCH  15  17
HETATM   17  C   UNL     1      -9.978   5.331  66.720  1.00  0.00    -0.199 C  
BRANCH  17  18
HETATM   18  N   UNL     1     -10.477   4.282  66.112  1.00  0.00    -0.413 NA 
HETATM   19  H   UNL     1     -10.181   3.329  66.326  1.00  0.00     0.000 HD 
HETATM   20  O   UNL     1     -11.448   4.572  65.148  1.00  0.00    -1.105 OA 
HETATM   21  H   UNL     1     -11.809   3.811  64.708  1.00  0.00     0.000 HD 
ENDBRANCH  17  18
BRANCH  17  22
HETATM   22  C   UNL     1     -10.276   5.466  68.148  1.00  0.00    -0.165 A  
HETATM   23  S   UNL     1     -10.219   5.177  70.556  1.00  0.00    -0.244 SA 
HETATM   24  H1  UNL     1     -12.955   7.597  70.241  1.00  0.00     0.000 HD 
HETATM   25  N   UNL     1      -9.594   4.767  69.066  1.00  0.00    -0.152 NA 
HETATM   26  N   UNL     1     -11.320   6.299  68.591  1.00  0.00    -0.248 NA 
HETATM   27  H2  UNL     1     -12.224   6.857  71.646  1.00  0.00     0.000 HD 
HETATM   28  C   UNL     1     -11.390   6.250  69.896  1.00  0.00    -0.434 A  
HETATM   29  N   UNL     1     -12.261   6.961  70.633  1.00  0.00    -0.329 NA 
ENDBRANCH  17  22
ENDBRANCH  15  17
ENDBRANCH   1  13
BRANCH   8  30
HETATM   30  C   UNL     1     -10.309  13.613  67.882  1.00  0.00    -0.249 C  
HETATM   31  C   UNL     1     -10.164  15.088  65.766  1.00  0.00    -0.361 C  
HETATM   32  C   UNL     1     -10.438  14.758  67.192  1.00  0.00    -0.265 C  
HETATM   33  C   UNL     1      -9.799  16.561  65.841  1.00  0.00    -0.295 C  
HETATM   34  N   UNL     1     -10.379  17.061  67.072  1.00  0.00    -0.309 N  
HETATM   35  C   UNL     1     -10.840  16.023  67.873  1.00  0.00    -0.333 C  
HETATM   36  O   UNL     1     -11.461  16.083  68.917  1.00  0.00    -0.348 OA 
BRANCH  34  37
HETATM   37  C   UNL     1     -10.730  18.478  67.264  1.00  0.00    -0.374 C  
HETATM   38  C   UNL     1     -10.381  19.366  66.068  1.00  0.00    -0.584 C  
HETATM   39  C   UNL     1      -8.921  19.707  66.303  1.00  0.00    -0.375 C  
HETATM   40  N   UNL     1      -8.762  19.830  67.750  1.00  0.00    -0.320 NA 
HETATM   41  H   UNL     1      -8.604  20.791  68.055  1.00  0.00     0.000 HD 
HETATM   42  C   UNL     1      -9.950  19.211  68.374  1.00  0.00    -0.418 C  
ENDBRANCH  34  37
ENDBRANCH   8  30
TORSDOF 6
ENDMDL
MODEL       23
REMARK 921   NORMALIZED FREE ENERGY PREDICTED BY IDOCK:   -6.62 KCAL/MOL
REMARK 922        TOTAL FREE ENERGY PREDICTED BY IDOCK:  -10.46 KCAL/MOL
REMARK 923 INTER-LIGAND FREE ENERGY PREDICTED BY IDOCK:   -9.06 KCAL/MOL
REMARK 924 INTRA-LIGAND FREE ENERGY PREDICTED BY IDOCK:   -1.40 KCAL/MOL
REMARK 927      BINDING AFFINITY PREDICTED BY RF-SCORE:    0.00 PKD
ROOT
HETATM    1  CA  UNL     1     -12.033  12.093  67.173  1.00  0.00    -0.078 C  
HETATM    2  C   UNL     1      -9.142   9.263  66.562  1.00  0.00    -0.154 C  
HETATM    3  C   UNL     1     -11.842  11.633  68.667  1.00  0.00    -0.308 C  
HETATM    4  O   UNL     1     -12.099  12.009  69.787  1.00  0.00    -0.294 OA 
HETATM    5  O   UNL     1     -11.031  10.112  71.096  1.00  0.00    -0.245 OA 
HETATM    6  OXT UNL     1     -10.125   8.122  70.712  1.00  0.00    -0.188 OA 
HETATM    7  N   UNL     1     -11.067  10.603  68.272  1.00  0.00    -0.258 N  
HETATM    8  C   UNL     1      -9.372   8.985  68.043  1.00  0.00    -0.153 C  
HETATM    9  CA  UNL     1     -10.295   9.616  68.820  1.00  0.00    -0.213 C  
HETATM   10  S   UNL     1      -9.763  10.851  65.970  1.00  0.00    -0.236 SA 
HETATM   11  C   UNL     1     -11.340  10.725  66.851  1.00  0.00     0.100 C  
HETATM   12  C   UNL     1     -10.464   9.213  70.272  1.00  0.00    -0.218 C  
ENDROOT
BRANCH   1  13
HETATM   13  N   UNL     1     -11.273  13.301  66.751  1.00  0.00    -0.296 N  
HETATM   14  O   UNL     1     -12.865  14.176  65.355  1.00  0.00    -0.637 OA 
HETATM   15  C   UNL     1     -11.777  14.261  65.902  1.00  0.00    -0.372 C  
HETATM   16  H   UNL     1     -10.327  13.425  67.109  1.00  0.00     0.000 HD 
BRANCH  15  17
HETATM   17  C   UNL     1     -10.868  15.477  65.683  1.00  0.00    -0.346 C  
BRANCH  17  18
HETATM   18  N   UNL     1     -10.622  16.009  64.510  1.00  0.00    -0.711 NA 
HETATM   19  H   UNL     1      -9.675  16.147  64.155  1.00  0.00     0.000 HD 
HETATM   20  O   UNL     1     -11.760  16.373  63.784  1.00  0.00    -1.553 OA 
HETATM   21  H   UNL     1     -11.582  16.759  62.935  1.00  0.00     0.000 HD 
ENDBRANCH  17  18
BRANCH  17  22
HETATM   22  C   UNL     1     -10.234  16.116  66.840  1.00  0.00    -0.283 A  
HETATM   23  S   UNL     1      -8.822  16.513  68.772  1.00  0.00    -0.251 SA 
HETATM   24  H1  UNL     1     -10.710  19.654  68.671  1.00  0.00     0.000 HD 
HETATM   25  N   UNL     1      -9.285  15.484  67.545  1.00  0.00    -0.196 NA 
HETATM   26  N   UNL     1     -10.639  17.392  67.270  1.00  0.00    -0.320 NA 
HETATM   27  H2  UNL     1      -9.444  19.103  69.742  1.00  0.00     0.000 HD 
HETATM   28  C   UNL     1      -9.933  17.743  68.313  1.00  0.00    -0.355 A  
HETATM   29  N   UNL     1     -10.051  18.924  68.943  1.00  0.00    -0.376 NA 
ENDBRANCH  17  22
ENDBRANCH  15  17
ENDBRANCH   1  13
BRANCH   8  30
HETATM   30  C   UNL     1      -8.430   7.948  68.483  1.00  0.00    -0.128 C  
HETATM   31  C   UNL     1      -9.671   5.809  67.738  1.00  0.00    -0.130 C  
HETATM   32  C   UNL     1      -8.591   6.620  68.364  1.00  0.00    -0.124 C  
HETATM   33  C   UNL     1      -9.639   4.535  68.566  1.00  0.00    -0.149 C  
HETATM   34  N   UNL     1      -8.319   4.473  69.164  1.00  0.00    -0.079 N  
HETATM   35  C   UNL     1      -7.633   5.671  69.001  1.00  0.00    -0.088 C  
HETATM   36  O   UNL     1      -6.481   5.935  69.289  1.00  0.00    -0.039 OA 
BRANCH  34  37
HETATM   37  C   UNL     1      -7.693   3.205  69.571  1.00  0.00    -0.046 C  
HETATM   38  C   UNL     1      -8.661   2.020  69.597  1.00  0.00    -0.113 C  
HETATM   39  C   UNL     1      -9.305   2.129  70.967  1.00  0.00    -0.133 C  
HETATM   40  N   UNL     1      -8.264   2.620  71.867  1.00  0.00    -0.057 NA 
HETATM   41  H   UNL     1      -7.945   1.915  72.532  1.00  0.00     0.000 HD 
HETATM   42  C   UNL     1      -7.175   3.155  71.022  1.00  0.00    -0.033 C  
ENDBRANCH  34  37
ENDBRANCH   8  30
TORSDOF 6
ENDMDL
MODEL       24
REMARK 921   NORMALIZED FREE ENERGY PREDICTED BY IDOCK:   -6.59 KCAL/MOL
REMARK 922        TOTAL FREE ENERGY PREDICTED BY IDOCK:  -10.42 KCAL/MOL
REMARK 923 INTER-LIGAND FREE ENERGY PREDICTED BY IDOCK:   -8.78 KCAL/MOL
REMARK 924 INTRA-LIGAND FREE ENERGY PREDICTED BY IDOCK:   -1.65 KCAL/MOL
REMARK 927      BINDING AFFINITY PREDICTED BY RF-SCORE:    0.00 PKD
ROOT
HETATM    1  CA  UNL     1     -11.602  10.101  68.680  1.00  0.00     0.062 C  
HETATM    2  C   UNL     1     -11.825  14.186  68.725  1.00  0.00    -0.349 C  
HETATM    3  C   UNL     1     -10.769  10.391  67.375  1.00  0.00    -0.283 C  
HETATM    4  O   UNL     1      -9.999   9.831  66.631  1.00  0.00    -0.202 OA 
HETATM    5  O   UNL     1      -9.531  11.749  65.031  1.00  0.00    -0.182 OA 
HETATM    6  OXT UNL     1     -10.295  13.788  64.603  1.00  0.00    -0.426 OA 
HETATM    7  N   UNL     1     -11.118  11.693  67.418  1.00  0.00    -0.263 N  
HETATM    8  C   UNL     1     -11.144  14.047  67.368  1.00  0.00    -0.317 C  
HETATM    9  CA  UNL     1     -10.839  12.864  66.768  1.00  0.00    -0.267 C  
HETATM   10  S   UNL     1     -11.737  12.729  69.785  1.00  0.00    -0.233 SA 
HETATM   11  C   UNL     1     -12.125  11.561  68.456  1.00  0.00    -0.088 C  
HETATM   12  C   UNL     1     -10.207  12.855  65.389  1.00  0.00    -0.287 C  
ENDROOT
BRANCH   1  13
HETATM   13  N   UNL     1     -10.822   9.894  69.931  1.00  0.00    -0.258 N  
HETATM   14  O   UNL     1     -11.230   7.652  70.163  1.00  0.00    -0.254 OA 
HETATM   15  C   UNL     1     -10.674   8.670  70.543  1.00  0.00    -0.221 C  
HETATM   16  H   UNL     1     -10.373  10.704  70.358  1.00  0.00     0.000 HD 
BRANCH  15  17
HETATM   17  C   UNL     1      -9.741   8.662  71.762  1.00  0.00    -0.291 C  
BRANCH  17  18
HETATM   18  N   UNL     1     -10.133   8.400  72.985  1.00  0.00    -0.136 NA 
HETATM   19  H   UNL     1      -9.556   8.600  73.803  1.00  0.00     0.000 HD 
HETATM   20  O   UNL     1     -11.403   7.825  73.081  1.00  0.00    -0.555 OA 
HETATM   21  H   UNL     1     -11.687   7.635  73.968  1.00  0.00     0.000 HD 
ENDBRANCH  17  18
BRANCH  17  22
HETATM   22  C   UNL     1      -8.315   8.944  71.574  1.00  0.00    -0.098 A  
HETATM   23  S   UNL     1      -5.922   9.084  71.942  1.00  0.00    -0.052 SA 
HETATM   24  H1  UNL     1      -6.194  10.754  68.690  1.00  0.00     0.000 HD 
HETATM   25  N   UNL     1      -7.413   8.593  72.501  1.00  0.00    -0.334 NA 
HETATM   26  N   UNL     1      -7.861   9.635  70.436  1.00  0.00    -0.165 NA 
HETATM   27  H2  UNL     1      -4.806  10.391  69.688  1.00  0.00     0.000 HD 
HETATM   28  C   UNL     1      -6.561   9.766  70.498  1.00  0.00    -0.117 A  
HETATM   29  N   UNL     1      -5.815  10.350  69.546  1.00  0.00    -0.038 NA 
ENDBRANCH  17  22
ENDBRANCH  15  17
ENDBRANCH   1  13
BRANCH   8  30
HETATM   30  C   UNL     1     -10.864  15.387  66.837  1.00  0.00    -0.313 C  
HETATM   31  C   UNL     1      -8.666  15.955  68.068  1.00  0.00    -0.169 C  
HETATM   32  C   UNL     1      -9.829  16.177  67.166  1.00  0.00    -0.241 C  
HETATM   33  C   UNL     1      -8.360  17.363  68.552  1.00  0.00    -0.271 C  
HETATM   34  N   UNL     1      -8.927  18.262  67.567  1.00  0.00    -0.253 N  
HETATM   35  C   UNL     1      -9.751  17.584  66.676  1.00  0.00    -0.299 C  
HETATM   36  O   UNL     1     -10.306  18.003  65.679  1.00  0.00    -0.611 OA 
BRANCH  34  37
HETATM   37  C   UNL     1      -8.417  19.626  67.353  1.00  0.00    -0.305 C  
HETATM   38  C   UNL     1      -7.695  19.811  66.017  1.00  0.00    -0.340 C  
HETATM   39  C   UNL     1      -6.283  19.343  66.319  1.00  0.00    -0.171 C  
HETATM   40  N   UNL     1      -6.008  19.746  67.696  1.00  0.00    -0.189 NA 
HETATM   41  H   UNL     1      -5.325  20.502  67.762  1.00  0.00     0.000 HD 
HETATM   42  C   UNL     1      -7.305  20.080  68.320  1.00  0.00    -0.260 C  
ENDBRANCH  34  37
ENDBRANCH   8  30
TORSDOF 6
ENDMDL
MODEL       25
REMARK 921   NORMALIZED FREE ENERGY PREDICTED BY IDOCK:   -6.54 KCAL/MOL
REMARK 922        TOTAL FREE ENERGY PREDICTED BY IDOCK:  -10.36 KCAL/MOL
REMARK 923 INTER-LIGAND FREE ENERGY PREDICTED BY IDOCK:   -9.23 KCAL/MOL
REMARK 924 INTRA-LIGAND FREE ENERGY PREDICTED BY IDOCK:   -1.12 KCAL/MOL
REMARK 927      BINDING AFFINITY PREDICTED BY RF-SCORE:    0.00 PKD
ROOT
HETATM    1  CA  UNL     1     -10.863  14.819  67.795  1.00  0.00    -0.278 C  
HETATM    2  C   UNL     1     -10.502  11.780  65.080  1.00  0.00    -0.285 C  
HETATM    3  C   UNL     1      -9.581  14.127  68.394  1.00  0.00    -0.225 C  
HETATM    4  O   UNL     1      -8.682  14.364  69.166  1.00  0.00    -0.054 OA 
HETATM    5  O   UNL     1      -7.398  12.181  68.959  1.00  0.00    -0.088 OA 
HETATM    6  OXT UNL     1      -7.656  10.174  68.047  1.00  0.00    -0.087 OA 
HETATM    7  N   UNL     1      -9.732  13.079  67.559  1.00  0.00    -0.202 N  
HETATM    8  C   UNL     1      -9.403  11.319  66.030  1.00  0.00    -0.234 C  
HETATM    9  CA  UNL     1      -9.073  11.937  67.197  1.00  0.00    -0.178 C  
HETATM   10  S   UNL     1     -11.014  13.501  65.269  1.00  0.00    -0.307 SA 
HETATM   11  C   UNL     1     -11.055  13.439  67.079  1.00  0.00    -0.292 C  
HETATM   12  C   UNL     1      -7.992  11.350  68.085  1.00  0.00    -0.133 C  
ENDROOT
BRANCH   1  13
HETATM   13  N   UNL     1     -10.627  15.975  66.888  1.00  0.00    -0.314 N  
HETATM   14  O   UNL     1     -10.409  17.580  68.508  1.00  0.00    -0.348 OA 
HETATM   15  C   UNL     1     -10.381  17.255  67.332  1.00  0.00    -0.338 C  
HETATM   16  H   UNL     1     -10.649  15.811  65.882  1.00  0.00     0.000 HD 
BRANCH  15  17
HETATM   17  C   UNL     1     -10.059  18.274  66.230  1.00  0.00    -0.380 C  
BRANCH  17  18
HETATM   18  N   UNL     1     -10.808  18.475  65.173  1.00  0.00    -0.463 NA 
HETATM   19  H   UNL     1     -11.064  19.408  64.848  1.00  0.00     0.000 HD 
HETATM   20  O   UNL     1     -11.229  17.309  64.526  1.00  0.00    -1.083 OA 
HETATM   21  H   UNL     1     -11.772  17.455  63.760  1.00  0.00     0.000 HD 
ENDBRANCH  17  18
BRANCH  17  22
HETATM   22  C   UNL     1      -8.855  19.101  66.349  1.00  0.00    -0.338 A  
HETATM   23  S   UNL     1      -7.330  20.882  66.966  1.00  0.00    -0.190 SA 
HETATM   24  H1  UNL     1      -5.156  18.863  64.813  1.00  0.00     0.000 HD 
HETATM   25  N   UNL     1      -8.855  20.222  67.083  1.00  0.00    -0.347 NA 
HETATM   26  N   UNL     1      -7.680  18.764  65.654  1.00  0.00    -0.453 NA 
HETATM   27  H2  UNL     1      -4.849  20.331  65.711  1.00  0.00     0.000 HD 
HETATM   28  C   UNL     1      -6.752  19.649  65.916  1.00  0.00    -0.249 A  
HETATM   29  N   UNL     1      -5.499  19.595  65.435  1.00  0.00    -0.159 NA 
ENDBRANCH  17  22
ENDBRANCH  15  17
ENDBRANCH   1  13
BRANCH   8  30
HETATM   30  C   UNL     1      -8.763  10.123  65.469  1.00  0.00    -0.173 C  
HETATM   31  C   UNL     1     -10.229   8.257  66.487  1.00  0.00    -0.263 C  
HETATM   32  C   UNL     1      -9.115   8.847  65.697  1.00  0.00    -0.269 C  
HETATM   33  C   UNL     1      -9.640   6.929  66.934  1.00  0.00    -0.162 C  
HETATM   34  N   UNL     1      -8.571   6.626  66.002  1.00  0.00    -0.145 N  
HETATM   35  C   UNL     1      -8.278   7.719  65.195  1.00  0.00    -0.132 C  
HETATM   36  O   UNL     1      -7.513   7.788  64.252  1.00  0.00    -0.086 OA 
BRANCH  34  37
HETATM   37  C   UNL     1      -8.120   5.250  65.735  1.00  0.00    -0.112 C  
HETATM   38  C   UNL     1      -8.676   4.660  64.437  1.00  0.00    -0.148 C  
HETATM   39  C   UNL     1     -10.032   4.122  64.855  1.00  0.00    -0.199 C  
HETATM   40  N   UNL     1      -9.867   3.623  66.219  1.00  0.00    -0.412 NA 
HETATM   41  H   UNL     1      -9.908   2.606  66.281  1.00  0.00     0.000 HD 
HETATM   42  C   UNL     1      -8.603   4.185  66.739  1.00  0.00    -0.108 C  
ENDBRANCH  34  37
ENDBRANCH   8  30
TORSDOF 6
ENDMDL
MODEL       26
REMARK 921   NORMALIZED FREE ENERGY PREDICTED BY IDOCK:   -6.54 KCAL/MOL
REMARK 922        TOTAL FREE ENERGY PREDICTED BY IDOCK:  -10.35 KCAL/MOL
REMARK 923 INTER-LIGAND FREE ENERGY PREDICTED BY IDOCK:   -8.98 KCAL/MOL
REMARK 924 INTRA-LIGAND FREE ENERGY PREDICTED BY IDOCK:   -1.37 KCAL/MOL
REMARK 927      BINDING AFFINITY PREDICTED BY RF-SCORE:    0.00 PKD
ROOT
HETATM    1  CA  UNL     1     -10.784   8.728  68.067  1.00  0.00    -0.090 C  
HETATM    2  C   UNL     1     -11.576  12.742  68.132  1.00  0.00    -0.336 C  
HETATM    3  C   UNL     1     -10.105   9.119  66.701  1.00  0.00    -0.273 C  
HETATM    4  O   UNL     1      -9.324   8.665  65.898  1.00  0.00    -0.219 OA 
HETATM    5  O   UNL     1      -9.258  10.613  64.267  1.00  0.00    -0.203 OA 
HETATM    6  OXT UNL     1     -10.333  12.520  63.902  1.00  0.00    -0.405 OA 
HETATM    7  N   UNL     1     -10.629  10.359  66.772  1.00  0.00    -0.230 N  
HETATM    8  C   UNL     1     -10.991  12.686  66.726  1.00  0.00    -0.296 C  
HETATM    9  CA  UNL     1     -10.570  11.551  66.103  1.00  0.00    -0.266 C  
HETATM   10  S   UNL     1     -11.202  11.322  69.182  1.00  0.00    -0.300 SA 
HETATM   11  C   UNL     1     -11.523  10.098  67.887  1.00  0.00     0.149 C  
HETATM   12  C   UNL     1     -10.053  11.617  64.679  1.00  0.00    -0.262 C  
ENDROOT
BRANCH   1  13
HETATM   13  N   UNL     1      -9.887   8.646  69.252  1.00  0.00    -0.184 N  
HETATM   14  O   UNL     1     -11.418   7.777  70.719  1.00  0.00    -0.280 OA 
HETATM   15  C   UNL     1     -10.278   8.138  70.470  1.00  0.00    -0.198 C  
HETATM   16  H   UNL     1      -8.930   8.985  69.157  1.00  0.00     0.000 HD 
BRANCH  15  17
HETATM   17  C   UNL     1      -9.165   8.047  71.524  1.00  0.00    -0.147 C  
BRANCH  17  18
HETATM   18  N   UNL     1      -8.186   8.912  71.635  1.00  0.00    -0.337 NA 
HETATM   19  H   UNL     1      -8.164   9.789  71.115  1.00  0.00     0.000 HD 
HETATM   20  O   UNL     1      -7.174   8.536  72.524  1.00  0.00    -0.196 OA 
HETATM   21  H   UNL     1      -6.465   9.163  72.605  1.00  0.00     0.000 HD 
ENDBRANCH  17  18
BRANCH  17  22
HETATM   22  C   UNL     1      -9.181   6.944  72.489  1.00  0.00    -0.135 A  
HETATM   23  S   UNL     1      -9.508   5.657  74.518  1.00  0.00    -0.176 SA 
HETATM   24  H1  UNL     1      -7.941   3.130  72.375  1.00  0.00     0.000 HD 
HETATM   25  N   UNL     1      -9.670   7.114  73.725  1.00  0.00    -0.261 NA 
HETATM   26  N   UNL     1      -8.638   5.689  72.158  1.00  0.00    -0.126 NA 
HETATM   27  H2  UNL     1      -8.536   3.042  74.015  1.00  0.00     0.000 HD 
HETATM   28  C   UNL     1      -8.767   4.878  73.176  1.00  0.00    -0.109 A  
HETATM   29  N   UNL     1      -8.380   3.592  73.171  1.00  0.00    -0.078 NA 
ENDBRANCH  17  22
ENDBRANCH  15  17
ENDBRANCH   1  13
BRANCH   8  30
HETATM   30  C   UNL     1     -10.946  14.046  66.176  1.00  0.00    -0.295 C  
HETATM   31  C   UNL     1      -8.769  14.936  67.244  1.00  0.00    -0.224 C  
HETATM   32  C   UNL     1     -10.014  14.979  66.429  1.00  0.00    -0.295 C  
HETATM   33  C   UNL     1      -8.634  16.378  67.704  1.00  0.00    -0.174 C  
HETATM   34  N   UNL     1      -9.395  17.177  66.762  1.00  0.00    -0.245 N  
HETATM   35  C   UNL     1     -10.174  16.377  65.934  1.00  0.00    -0.359 C  
HETATM   36  O   UNL     1     -10.854  16.702  64.979  1.00  0.00    -0.641 OA 
BRANCH  34  37
HETATM   37  C   UNL     1      -9.102  18.598  66.511  1.00  0.00    -0.315 C  
HETATM   38  C   UNL     1      -8.228  19.246  67.587  1.00  0.00    -0.327 C  
HETATM   39  C   UNL     1      -9.232  19.652  68.650  1.00  0.00    -0.302 C  
HETATM   40  N   UNL     1     -10.442  20.053  67.935  1.00  0.00    -0.365 NA 
HETATM   41  H   UNL     1     -10.617  21.057  67.978  1.00  0.00     0.000 HD 
HETATM   42  C   UNL     1     -10.319  19.544  66.552  1.00  0.00    -0.482 C  
ENDBRANCH  34  37
ENDBRANCH   8  30
TORSDOF 6
ENDMDL
MODEL       27
REMARK 921   NORMALIZED FREE ENERGY PREDICTED BY IDOCK:   -6.54 KCAL/MOL
REMARK 922        TOTAL FREE ENERGY PREDICTED BY IDOCK:  -10.35 KCAL/MOL
REMARK 923 INTER-LIGAND FREE ENERGY PREDICTED BY IDOCK:   -8.85 KCAL/MOL
REMARK 924 INTRA-LIGAND FREE ENERGY PREDICTED BY IDOCK:   -1.50 KCAL/MOL
REMARK 927      BINDING AFFINITY PREDICTED BY RF-SCORE:    0.00 PKD
ROOT
HETATM    1  CA  UNL     1     -10.296   8.544  67.170  1.00  0.00    -0.307 C  
HETATM    2  C   UNL     1     -11.465  12.452  67.491  1.00  0.00    -0.346 C  
HETATM    3  C   UNL     1      -9.643   9.089  65.844  1.00  0.00    -0.247 C  
HETATM    4  O   UNL     1      -8.814   8.767  65.026  1.00  0.00    -0.180 OA 
HETATM    5  O   UNL     1      -8.915  10.819  63.531  1.00  0.00    -0.188 OA 
HETATM    6  OXT UNL     1     -10.162  12.638  63.277  1.00  0.00    -0.314 OA 
HETATM    7  N   UNL     1     -10.283  10.267  65.989  1.00  0.00    -0.248 N  
HETATM    8  C   UNL     1     -10.863  12.547  66.094  1.00  0.00    -0.304 C  
HETATM    9  CA  UNL     1     -10.330  11.502  65.403  1.00  0.00    -0.273 C  
HETATM   10  S   UNL     1     -10.969  11.005  68.449  1.00  0.00    -0.254 SA 
HETATM   11  C   UNL     1     -11.160   9.848  67.069  1.00  0.00     0.112 C  
HETATM   12  C   UNL     1      -9.806  11.714  63.995  1.00  0.00    -0.257 C  
ENDROOT
BRANCH   1  13
HETATM   13  N   UNL     1      -9.408   8.465  68.361  1.00  0.00    -0.135 N  
HETATM   14  O   UNL     1      -8.153   6.677  67.673  1.00  0.00    -0.116 OA 
HETATM   15  C   UNL     1      -8.383   7.555  68.489  1.00  0.00    -0.126 C  
HETATM   16  H   UNL     1      -9.568   9.121  69.126  1.00  0.00     0.000 HD 
BRANCH  15  17
HETATM   17  C   UNL     1      -7.524   7.718  69.751  1.00  0.00    -0.089 C  
BRANCH  17  18
HETATM   18  N   UNL     1      -6.216   7.800  69.743  1.00  0.00    -0.030 NA 
HETATM   19  H   UNL     1      -5.613   6.985  69.624  1.00  0.00     0.000 HD 
HETATM   20  O   UNL     1      -5.711   9.093  69.909  1.00  0.00    -0.031 OA 
HETATM   21  H   UNL     1      -4.763   9.153  69.904  1.00  0.00     0.000 HD 
ENDBRANCH  17  18
BRANCH  17  22
HETATM   22  C   UNL     1      -8.180   7.806  71.058  1.00  0.00    -0.103 A  
HETATM   23  S   UNL     1      -8.548   7.954  73.451  1.00  0.00    -0.252 SA 
HETATM   24  H1  UNL     1     -12.010   7.833  72.252  1.00  0.00     0.000 HD 
HETATM   25  N   UNL     1      -7.463   7.878  72.188  1.00  0.00    -0.078 NA 
HETATM   26  N   UNL     1      -9.582   7.768  71.164  1.00  0.00    -0.158 NA 
HETATM   27  H2  UNL     1     -11.352   7.972  73.865  1.00  0.00     0.000 HD 
HETATM   28  C   UNL     1      -9.925   7.859  72.424  1.00  0.00    -0.229 A  
HETATM   29  N   UNL     1     -11.194   7.888  72.861  1.00  0.00    -0.409 NA 
ENDBRANCH  17  22
ENDBRANCH  15  17
ENDBRANCH   1  13
BRANCH   8  30
HETATM   30  C   UNL     1     -10.940  13.940  65.638  1.00  0.00    -0.290 C  
HETATM   31  C   UNL     1      -8.792  14.921  66.683  1.00  0.00    -0.287 C  
HETATM   32  C   UNL     1     -10.070  14.923  65.919  1.00  0.00    -0.348 C  
HETATM   33  C   UNL     1      -8.744  16.336  67.235  1.00  0.00    -0.182 C  
HETATM   34  N   UNL     1      -9.599  17.135  66.379  1.00  0.00    -0.272 N  
HETATM   35  C   UNL     1     -10.352  16.335  65.528  1.00  0.00    -0.338 C  
HETATM   36  O   UNL     1     -11.094  16.669  64.624  1.00  0.00    -0.763 OA 
BRANCH  34  37
HETATM   37  C   UNL     1      -9.423  18.587  66.216  1.00  0.00    -0.250 C  
HETATM   38  C   UNL     1      -8.380  19.190  67.159  1.00  0.00    -0.300 C  
HETATM   39  C   UNL     1      -9.168  19.441  68.432  1.00  0.00    -0.359 C  
HETATM   40  N   UNL     1     -10.512  19.829  68.007  1.00  0.00    -0.427 NA 
HETATM   41  H   UNL     1     -10.717  20.813  68.181  1.00  0.00     0.000 HD 
HETATM   42  C   UNL     1     -10.645  19.451  66.585  1.00  0.00    -0.467 C  
ENDBRANCH  34  37
ENDBRANCH   8  30
TORSDOF 6
ENDMDL
MODEL       28
REMARK 921   NORMALIZED FREE ENERGY PREDICTED BY IDOCK:   -6.53 KCAL/MOL
REMARK 922        TOTAL FREE ENERGY PREDICTED BY IDOCK:  -10.35 KCAL/MOL
REMARK 923 INTER-LIGAND FREE ENERGY PREDICTED BY IDOCK:   -8.60 KCAL/MOL
REMARK 924 INTRA-LIGAND FREE ENERGY PREDICTED BY IDOCK:   -1.75 KCAL/MOL
REMARK 927      BINDING AFFINITY PREDICTED BY RF-SCORE:    0.00 PKD
ROOT
HETATM    1  CA  UNL     1      -7.676  10.458  64.468  1.00  0.00    -0.051 C  
HETATM    2  C   UNL     1      -7.053   9.649  68.430  1.00  0.00    -0.070 C  
HETATM    3  C   UNL     1      -7.917   8.902  64.425  1.00  0.00    -0.137 C  
HETATM    4  O   UNL     1      -8.402   8.065  63.702  1.00  0.00    -0.086 OA 
HETATM    5  O   UNL     1      -8.022   6.017  65.156  1.00  0.00    -0.109 OA 
HETATM    6  OXT UNL     1      -6.941   5.468  67.016  1.00  0.00    -0.062 OA 
HETATM    7  N   UNL     1      -7.473   8.779  65.693  1.00  0.00    -0.085 N  
HETATM    8  C   UNL     1      -7.180   8.205  67.958  1.00  0.00    -0.094 C  
HETATM    9  CA  UNL     1      -7.359   7.822  66.664  1.00  0.00    -0.088 C  
HETATM   10  S   UNL     1      -7.691  10.893  67.288  1.00  0.00    -0.116 SA 
HETATM   11  C   UNL     1      -6.955  10.130  65.820  1.00  0.00    -0.123 C  
HETATM   12  C   UNL     1      -7.419   6.348  66.312  1.00  0.00    -0.085 C  
ENDROOT
BRANCH   1  13
HETATM   13  N   UNL     1      -8.889  11.312  64.589  1.00  0.00    -0.381 N  
HETATM   14  O   UNL     1      -9.536  11.217  62.394  1.00  0.00    -0.244 OA 
HETATM   15  C   UNL     1      -9.737  11.585  63.540  1.00  0.00    -0.336 C  
HETATM   16  H   UNL     1      -9.103  11.718  65.500  1.00  0.00     0.000 HD 
BRANCH  15  17
HETATM   17  C   UNL     1     -10.986  12.398  63.909  1.00  0.00    -0.414 C  
BRANCH  17  18
HETATM   18  N   UNL     1     -11.906  12.762  63.049  1.00  0.00    -0.784 NA 
HETATM   19  H   UNL     1     -12.284  12.127  62.345  1.00  0.00     0.000 HD 
HETATM   20  O   UNL     1     -12.330  14.088  63.173  1.00  0.00    -1.133 OA 
HETATM   21  H   UNL     1     -12.996  14.351  62.550  1.00  0.00     0.000 HD 
ENDBRANCH  17  18
BRANCH  17  22
HETATM   22  C   UNL     1     -11.198  12.793  65.304  1.00  0.00    -0.293 A  
HETATM   23  S   UNL     1     -11.322  14.108  67.338  1.00  0.00    -0.345 SA 
HETATM   24  H1  UNL     1     -12.318  10.818  68.613  1.00  0.00     0.000 HD 
HETATM   25  N   UNL     1     -10.989  14.054  65.706  1.00  0.00    -0.291 NA 
HETATM   26  N   UNL     1     -11.580  11.844  66.270  1.00  0.00    -0.491 NA 
HETATM   27  H2  UNL     1     -12.165  12.367  69.409  1.00  0.00     0.000 HD 
HETATM   28  C   UNL     1     -11.703  12.434  67.432  1.00  0.00    -0.347 A  
HETATM   29  N   UNL     1     -12.091  11.811  68.557  1.00  0.00    -0.455 NA 
ENDBRANCH  17  22
ENDBRANCH  15  17
ENDBRANCH   1  13
BRANCH   8  30
HETATM   30  C   UNL     1      -7.093   7.315  69.122  1.00  0.00    -0.080 C  
HETATM   31  C   UNL     1      -9.496   7.489  70.054  1.00  0.00    -0.161 C  
HETATM   32  C   UNL     1      -8.074   7.051  70.001  1.00  0.00    -0.128 C  
HETATM   33  C   UNL     1      -9.778   7.488  71.547  1.00  0.00    -0.165 C  
HETATM   34  N   UNL     1      -8.799   6.601  72.144  1.00  0.00    -0.134 N  
HETATM   35  C   UNL     1      -7.806   6.256  71.234  1.00  0.00    -0.108 C  
HETATM   36  O   UNL     1      -6.893   5.464  71.365  1.00  0.00    -0.053 OA 
BRANCH  34  37
HETATM   37  C   UNL     1      -9.034   5.907  73.421  1.00  0.00    -0.129 C  
HETATM   38  C   UNL     1      -9.227   4.396  73.274  1.00  0.00    -0.123 C  
HETATM   39  C   UNL     1     -10.703   4.266  72.945  1.00  0.00    -0.167 C  
HETATM   40  N   UNL     1     -11.381   5.316  73.702  1.00  0.00    -0.425 NA 
HETATM   41  H   UNL     1     -11.947   4.954  74.469  1.00  0.00     0.000 HD 
HETATM   42  C   UNL     1     -10.344   6.272  74.145  1.00  0.00    -0.304 C  
ENDBRANCH  34  37
ENDBRANCH   8  30
TORSDOF 6
ENDMDL
MODEL       29
REMARK 921   NORMALIZED FREE ENERGY PREDICTED BY IDOCK:   -6.52 KCAL/MOL
REMARK 922        TOTAL FREE ENERGY PREDICTED BY IDOCK:  -10.34 KCAL/MOL
REMARK 923 INTER-LIGAND FREE ENERGY PREDICTED BY IDOCK:   -9.18 KCAL/MOL
REMARK 924 INTRA-LIGAND FREE ENERGY PREDICTED BY IDOCK:   -1.15 KCAL/MOL
REMARK 927      BINDING AFFINITY PREDICTED BY RF-SCORE:    0.00 PKD
ROOT
HETATM    1  CA  UNL     1      -9.838  12.942  67.898  1.00  0.00    -0.227 C  
HETATM    2  C   UNL     1      -9.969   9.806  65.274  1.00  0.00    -0.181 C  
HETATM    3  C   UNL     1      -8.437  12.305  68.231  1.00  0.00    -0.173 C  
HETATM    4  O   UNL     1      -7.401  12.595  68.783  1.00  0.00    -0.107 OA 
HETATM    5  O   UNL     1      -6.122  10.437  68.380  1.00  0.00    -0.044 OA 
HETATM    6  OXT UNL     1      -6.505   8.389  67.614  1.00  0.00    -0.055 OA 
HETATM    7  N   UNL     1      -8.730  11.222  67.484  1.00  0.00    -0.136 N  
HETATM    8  C   UNL     1      -8.679   9.409  65.981  1.00  0.00    -0.171 C  
HETATM    9  CA  UNL     1      -8.127  10.081  67.028  1.00  0.00    -0.117 C  
HETATM   10  S   UNL     1     -10.484  11.520  65.510  1.00  0.00    -0.284 SA 
HETATM   11  C   UNL     1     -10.135  11.530  67.287  1.00  0.00    -0.199 C  
HETATM   12  C   UNL     1      -6.863   9.556  67.683  1.00  0.00    -0.075 C  
ENDROOT
BRANCH   1  13
HETATM   13  N   UNL     1      -9.839  14.066  66.922  1.00  0.00    -0.259 N  
HETATM   14  O   UNL     1     -12.045  14.643  67.141  1.00  0.00    -0.362 OA 
HETATM   15  C   UNL     1     -10.942  14.846  66.658  1.00  0.00    -0.325 C  
HETATM   16  H   UNL     1      -8.974  14.270  66.421  1.00  0.00     0.000 HD 
BRANCH  15  17
HETATM   17  C   UNL     1     -10.695  16.018  65.698  1.00  0.00    -0.329 C  
BRANCH  17  18
HETATM   18  N   UNL     1     -10.688  15.909  64.392  1.00  0.00    -0.763 NA 
HETATM   19  H   UNL     1      -9.888  15.542  63.874  1.00  0.00     0.000 HD 
HETATM   20  O   UNL     1     -11.862  16.334  63.763  1.00  0.00    -1.445 OA 
HETATM   21  H   UNL     1     -11.856  16.255  62.817  1.00  0.00     0.000 HD 
ENDBRANCH  17  18
BRANCH  17  22
HETATM   22  C   UNL     1     -10.468  17.358  66.247  1.00  0.00    -0.276 A  
HETATM   23  S   UNL     1     -10.255  19.765  66.445  1.00  0.00    -0.529 SA 
HETATM   24  H1  UNL     1      -9.368  18.737  69.850  1.00  0.00     0.000 HD 
HETATM   25  N   UNL     1     -10.601  18.450  65.482  1.00  0.00    -0.567 NA 
HETATM   26  N   UNL     1     -10.055  17.529  67.581  1.00  0.00    -0.314 NA 
HETATM   27  H2  UNL     1      -9.499  20.320  69.120  1.00  0.00     0.000 HD 
HETATM   28  C   UNL     1      -9.918  18.805  67.832  1.00  0.00    -0.354 A  
HETATM   29  N   UNL     1      -9.568  19.306  69.028  1.00  0.00    -0.393 NA 
ENDBRANCH  17  22
ENDBRANCH  15  17
ENDBRANCH   1  13
BRANCH   8  30
HETATM   30  C   UNL     1      -8.135   8.207  65.337  1.00  0.00    -0.130 C  
HETATM   31  C   UNL     1      -9.601   6.370  66.406  1.00  0.00    -0.156 C  
HETATM   32  C   UNL     1      -8.524   6.940  65.552  1.00  0.00    -0.122 C  
HETATM   33  C   UNL     1      -9.039   5.005  66.766  1.00  0.00    -0.118 C  
HETATM   34  N   UNL     1      -8.057   4.689  65.747  1.00  0.00    -0.102 N  
HETATM   35  C   UNL     1      -7.777   5.796  64.953  1.00  0.00    -0.095 C  
HETATM   36  O   UNL     1      -7.083   5.865  63.957  1.00  0.00    -0.049 OA 
BRANCH  34  37
HETATM   37  C   UNL     1      -7.687   3.306  65.404  1.00  0.00    -0.081 C  
HETATM   38  C   UNL     1      -8.059   2.905  63.975  1.00  0.00    -0.082 C  
HETATM   39  C   UNL     1      -9.508   2.474  64.102  1.00  0.00    -0.129 C  
HETATM   40  N   UNL     1      -9.628   1.832  65.410  1.00  0.00    -0.334 NA 
HETATM   41  H   UNL     1      -9.767   0.824  65.349  1.00  0.00     0.000 HD 
HETATM   42  C   UNL     1      -8.429   2.206  66.189  1.00  0.00    -0.102 C  
ENDBRANCH  34  37
ENDBRANCH   8  30
TORSDOF 6
ENDMDL
MODEL       30
REMARK 921   NORMALIZED FREE ENERGY PREDICTED BY IDOCK:   -6.52 KCAL/MOL
REMARK 922        TOTAL FREE ENERGY PREDICTED BY IDOCK:  -10.32 KCAL/MOL
REMARK 923 INTER-LIGAND FREE ENERGY PREDICTED BY IDOCK:   -8.65 KCAL/MOL
REMARK 924 INTRA-LIGAND FREE ENERGY PREDICTED BY IDOCK:   -1.68 KCAL/MOL
REMARK 927      BINDING AFFINITY PREDICTED BY RF-SCORE:    0.00 PKD
ROOT
HETATM    1  CA  UNL     1     -10.508  12.743  68.739  1.00  0.00    -0.156 C  
HETATM    2  C   UNL     1      -8.082   9.572  67.843  1.00  0.00    -0.106 C  
HETATM    3  C   UNL     1     -11.085  12.408  67.313  1.00  0.00    -0.281 C  
HETATM    4  O   UNL     1     -12.059  12.640  66.635  1.00  0.00    -0.519 OA 
HETATM    5  O   UNL     1     -11.448  11.272  64.583  1.00  0.00    -0.104 OA 
HETATM    6  OXT UNL     1      -9.705  10.157  63.779  1.00  0.00    -0.291 OA 
HETATM    7  N   UNL     1     -10.079  11.539  67.088  1.00  0.00    -0.195 N  
HETATM    8  C   UNL     1      -8.769   9.676  66.486  1.00  0.00    -0.147 C  
HETATM    9  CA  UNL     1      -9.691  10.621  66.151  1.00  0.00    -0.205 C  
HETATM   10  S   UNL     1      -8.922  10.416  69.200  1.00  0.00    -0.161 SA 
HETATM   11  C   UNL     1      -9.278  11.910  68.241  1.00  0.00    -0.187 C  
HETATM   12  C   UNL     1     -10.266  10.652  64.748  1.00  0.00    -0.331 C  
ENDROOT
BRANCH   1  13
HETATM   13  N   UNL     1     -11.235  12.162  69.900  1.00  0.00    -0.488 N  
HETATM   14  O   UNL     1     -12.681  13.907  70.243  1.00  0.00    -0.296 OA 
HETATM   15  C   UNL     1     -12.290  12.785  70.528  1.00  0.00    -0.275 C  
HETATM   16  H   UNL     1     -10.936  11.253  70.251  1.00  0.00     0.000 HD 
BRANCH  15  17
HETATM   17  C   UNL     1     -12.965  11.964  71.635  1.00  0.00    -0.342 C  
BRANCH  17  18
HETATM   18  N   UNL     1     -13.622  12.487  72.642  1.00  0.00    -0.617 NA 
HETATM   19  H   UNL     1     -13.624  12.072  73.574  1.00  0.00     0.000 HD 
HETATM   20  O   UNL     1     -14.321  13.659  72.337  1.00  0.00    -0.661 OA 
HETATM   21  H   UNL     1     -14.797  14.037  73.067  1.00  0.00     0.000 HD 
ENDBRANCH  17  18
BRANCH  17  22
HETATM   22  C   UNL     1     -12.902  10.501  71.581  1.00  0.00    -0.475 A  
HETATM   23  S   UNL     1     -13.545   8.163  71.527  1.00  0.00    -0.258 SA 
HETATM   24  H1  UNL     1      -9.894   7.849  71.457  1.00  0.00     0.000 HD 
HETATM   25  N   UNL     1     -14.019   9.759  71.588  1.00  0.00    -0.086 NA 
HETATM   26  N   UNL     1     -11.664   9.833  71.568  1.00  0.00    -0.389 NA 
HETATM   27  H2  UNL     1     -11.156   6.641  71.417  1.00  0.00     0.000 HD 
HETATM   28  C   UNL     1     -11.868   8.542  71.521  1.00  0.00    -0.299 A  
HETATM   29  N   UNL     1     -10.888   7.624  71.461  1.00  0.00    -0.226 NA 
ENDBRANCH  17  22
ENDBRANCH  15  17
ENDBRANCH   1  13
BRANCH   8  30
HETATM   30  C   UNL     1      -8.285   8.591  65.625  1.00  0.00    -0.130 C  
HETATM   31  C   UNL     1      -9.765   6.631  66.423  1.00  0.00    -0.128 C  
HETATM   32  C   UNL     1      -8.703   7.315  65.635  1.00  0.00    -0.092 C  
HETATM   33  C   UNL     1      -9.231   5.212  66.520  1.00  0.00    -0.136 C  
HETATM   34  N   UNL     1      -8.297   5.054  65.422  1.00  0.00    -0.126 N  
HETATM   35  C   UNL     1      -8.013   6.274  64.820  1.00  0.00    -0.124 C  
HETATM   36  O   UNL     1      -7.354   6.498  63.822  1.00  0.00    -0.062 OA 
BRANCH  34  37
HETATM   37  C   UNL     1      -7.980   3.743  64.834  1.00  0.00    -0.090 C  
HETATM   38  C   UNL     1      -8.737   3.452  63.536  1.00  0.00    -0.093 C  
HETATM   39  C   UNL     1     -10.063   2.900  64.024  1.00  0.00    -0.142 C  
HETATM   40  N   UNL     1      -9.763   2.130  65.229  1.00  0.00    -0.339 NA 
HETATM   41  H   UNL     1      -9.868   1.124  65.097  1.00  0.00     0.000 HD 
HETATM   42  C   UNL     1      -8.407   2.519  65.668  1.00  0.00    -0.091 C  
ENDBRANCH  34  37
ENDBRANCH   8  30
TORSDOF 6
ENDMDL
MODEL       31
REMARK 921   NORMALIZED FREE ENERGY PREDICTED BY IDOCK:   -6.49 KCAL/MOL
REMARK 922        TOTAL FREE ENERGY PREDICTED BY IDOCK:  -10.28 KCAL/MOL
REMARK 923 INTER-LIGAND FREE ENERGY PREDICTED BY IDOCK:   -8.88 KCAL/MOL
REMARK 924 INTRA-LIGAND FREE ENERGY PREDICTED BY IDOCK:   -1.40 KCAL/MOL
REMARK 927      BINDING AFFINITY PREDICTED BY RF-SCORE:    0.00 PKD
ROOT
HETATM    1  CA  UNL     1      -8.405  10.525  66.006  1.00  0.00    -0.158 C  
HETATM    2  C   UNL     1      -9.935   9.842  69.739  1.00  0.00    -0.236 C  
HETATM    3  C   UNL     1      -8.896   9.045  65.786  1.00  0.00    -0.179 C  
HETATM    4  O   UNL     1      -9.128   8.277  64.882  1.00  0.00     0.129 OA 
HETATM    5  O   UNL     1      -9.905   6.282  66.250  1.00  0.00    -0.120 OA 
HETATM    6  OXT UNL     1      -9.982   5.643  68.375  1.00  0.00    -0.137 OA 
HETATM    7  N   UNL     1      -9.150   8.912  67.103  1.00  0.00    -0.136 N  
HETATM    8  C   UNL     1     -10.101   8.425  69.202  1.00  0.00    -0.206 C  
HETATM    9  CA  UNL     1      -9.707   8.009  67.967  1.00  0.00    -0.160 C  
HETATM   10  S   UNL     1      -9.686  11.117  68.486  1.00  0.00    -0.198 SA 
HETATM   11  C   UNL     1      -8.503  10.143  67.523  1.00  0.00    -0.118 C  
HETATM   12  C   UNL     1      -9.879   6.556  67.567  1.00  0.00    -0.124 C  
ENDROOT
BRANCH   1  13
HETATM   13  N   UNL     1      -9.332  11.603  65.565  1.00  0.00    -0.349 N  
HETATM   14  O   UNL     1      -9.489  10.973  63.368  1.00  0.00    -0.249 OA 
HETATM   15  C   UNL     1      -9.824  11.708  64.284  1.00  0.00    -0.230 C  
HETATM   16  H   UNL     1      -9.618  12.303  66.250  1.00  0.00     0.000 HD 
BRANCH  15  17
HETATM   17  C   UNL     1     -10.849  12.830  64.072  1.00  0.00    -0.424 C  
BRANCH  17  18
HETATM   18  N   UNL     1     -11.704  12.867  63.078  1.00  0.00    -0.798 NA 
HETATM   19  H   UNL     1     -11.768  12.125  62.380  1.00  0.00     0.000 HD 
HETATM   20  O   UNL     1     -12.519  14.002  63.051  1.00  0.00    -1.101 OA 
HETATM   21  H   UNL     1     -13.138  14.028  62.330  1.00  0.00     0.000 HD 
ENDBRANCH  17  18
BRANCH  17  22
HETATM   22  C   UNL     1     -10.912  13.935  65.033  1.00  0.00    -0.368 A  
HETATM   23  S   UNL     1     -11.431  15.260  66.996  1.00  0.00    -0.082 SA 
HETATM   24  H1  UNL     1      -9.478  17.682  65.059  1.00  0.00     0.000 HD 
HETATM   25  N   UNL     1     -11.578  13.810  66.188  1.00  0.00    -0.339 NA 
HETATM   26  N   UNL     1     -10.313  15.175  64.744  1.00  0.00    -0.254 NA 
HETATM   27  H2  UNL     1     -10.226  17.800  66.634  1.00  0.00     0.000 HD 
HETATM   28  C   UNL     1     -10.505  15.993  65.746  1.00  0.00    -0.374 A  
HETATM   29  N   UNL     1     -10.027  17.248  65.800  1.00  0.00    -0.563 NA 
ENDBRANCH  17  22
ENDBRANCH  15  17
ENDBRANCH   1  13
BRANCH   8  30
HETATM   30  C   UNL     1     -10.761   7.604  70.225  1.00  0.00    -0.244 C  
HETATM   31  C   UNL     1      -8.850   7.323  71.939  1.00  0.00    -0.133 C  
HETATM   32  C   UNL     1     -10.206   7.134  71.353  1.00  0.00    -0.203 C  
HETATM   33  C   UNL     1      -8.648   6.027  72.708  1.00  0.00    -0.124 C  
HETATM   34  N   UNL     1      -9.973   5.494  72.959  1.00  0.00    -0.172 N  
HETATM   35  C   UNL     1     -10.940   6.175  72.228  1.00  0.00    -0.260 C  
HETATM   36  O   UNL     1     -12.149   6.058  72.268  1.00  0.00    -0.301 OA 
BRANCH  34  37
HETATM   37  C   UNL     1     -10.263   4.595  74.088  1.00  0.00    -0.223 C  
HETATM   38  C   UNL     1      -9.057   3.774  74.548  1.00  0.00    -0.102 C  
HETATM   39  C   UNL     1      -9.072   2.582  73.609  1.00  0.00    -0.080 C  
HETATM   40  N   UNL     1     -10.480   2.281  73.357  1.00  0.00    -0.119 NA 
HETATM   41  H   UNL     1     -10.787   1.412  73.795  1.00  0.00     0.000 HD 
HETATM   42  C   UNL     1     -11.261   3.458  73.792  1.00  0.00    -0.145 C  
ENDBRANCH  34  37
ENDBRANCH   8  30
TORSDOF 6
ENDMDL
MODEL       32
REMARK 921   NORMALIZED FREE ENERGY PREDICTED BY IDOCK:   -6.48 KCAL/MOL
REMARK 922        TOTAL FREE ENERGY PREDICTED BY IDOCK:  -10.27 KCAL/MOL
REMARK 923 INTER-LIGAND FREE ENERGY PREDICTED BY IDOCK:   -8.94 KCAL/MOL
REMARK 924 INTRA-LIGAND FREE ENERGY PREDICTED BY IDOCK:   -1.33 KCAL/MOL
REMARK 927      BINDING AFFINITY PREDICTED BY RF-SCORE:    0.00 PKD
ROOT
HETATM    1  CA  UNL     1     -10.406   9.081  67.426  1.00  0.00    -0.268 C  
HETATM    2  C   UNL     1     -10.332  13.025  68.511  1.00  0.00    -0.239 C  
HETATM    3  C   UNL     1      -8.848   9.304  67.375  1.00  0.00    -0.117 C  
HETATM    4  O   UNL     1      -7.826   8.660  67.351  1.00  0.00    -0.097 OA 
HETATM    5  O   UNL     1      -6.153  10.573  67.341  1.00  0.00    -0.052 OA 
HETATM    6  OXT UNL     1      -6.147  12.782  67.128  1.00  0.00    -0.289 OA 
HETATM    7  N   UNL     1      -9.013  10.634  67.529  1.00  0.00    -0.135 N  
HETATM    8  C   UNL     1      -8.849  12.889  68.187  1.00  0.00    -0.194 C  
HETATM    9  CA  UNL     1      -8.258  11.760  67.709  1.00  0.00    -0.144 C  
HETATM   10  S   UNL     1     -11.214  11.471  68.761  1.00  0.00    -0.277 SA 
HETATM   11  C   UNL     1     -10.453  10.645  67.340  1.00  0.00    -0.235 C  
HETATM   12  C   UNL     1      -6.778  11.764  67.375  1.00  0.00    -0.120 C  
ENDROOT
BRANCH   1  13
HETATM   13  N   UNL     1     -10.951   8.501  68.683  1.00  0.00    -0.435 N  
HETATM   14  O   UNL     1      -9.885   6.477  68.559  1.00  0.00    -0.135 OA 
HETATM   15  C   UNL     1     -10.609   7.256  69.160  1.00  0.00    -0.208 C  
HETATM   16  H   UNL     1     -11.615   9.057  69.222  1.00  0.00     0.000 HD 
BRANCH  15  17
HETATM   17  C   UNL     1     -11.203   6.897  70.528  1.00  0.00    -0.307 C  
BRANCH  17  18
HETATM   18  N   UNL     1     -10.807   5.883  71.259  1.00  0.00    -0.267 NA 
HETATM   19  H   UNL     1     -11.454   5.306  71.797  1.00  0.00     0.000 HD 
HETATM   20  O   UNL     1      -9.428   5.655  71.242  1.00  0.00    -0.146 OA 
HETATM   21  H   UNL     1      -9.141   4.920  71.771  1.00  0.00     0.000 HD 
ENDBRANCH  17  18
BRANCH  17  22
HETATM   22  C   UNL     1     -12.271   7.732  71.087  1.00  0.00    -0.268 A  
HETATM   23  S   UNL     1     -14.409   8.461  71.967  1.00  0.00    -0.437 SA 
HETATM   24  H1  UNL     1     -12.546  11.617  72.049  1.00  0.00     0.000 HD 
HETATM   25  N   UNL     1     -13.476   7.218  71.366  1.00  0.00    -0.372 NA 
HETATM   26  N   UNL     1     -12.071   9.108  71.300  1.00  0.00    -0.309 NA 
HETATM   27  H2  UNL     1     -14.178  11.227  72.540  1.00  0.00     0.000 HD 
HETATM   28  C   UNL     1     -13.161   9.632  71.799  1.00  0.00    -0.430 A  
HETATM   29  N   UNL     1     -13.287  10.923  72.149  1.00  0.00    -0.352 NA 
ENDBRANCH  17  22
ENDBRANCH  15  17
ENDBRANCH   1  13
BRANCH   8  30
HETATM   30  C   UNL     1      -8.178  14.159  68.489  1.00  0.00    -0.146 C  
HETATM   31  C   UNL     1      -9.328  15.737  66.798  1.00  0.00    -0.264 C  
HETATM   32  C   UNL     1      -8.381  15.336  67.874  1.00  0.00    -0.152 C  
HETATM   33  C   UNL     1      -8.569  16.852  66.099  1.00  0.00    -0.242 C  
HETATM   34  N   UNL     1      -7.603  17.349  67.059  1.00  0.00    -0.193 N  
HETATM   35  C   UNL     1      -7.515  16.514  68.167  1.00  0.00    -0.159 C  
HETATM   36  O   UNL     1      -6.885  16.674  69.195  1.00  0.00    -0.202 OA 
BRANCH  34  37
HETATM   37  C   UNL     1      -7.065  18.719  67.006  1.00  0.00    -0.204 C  
HETATM   38  C   UNL     1      -7.650  19.652  68.068  1.00  0.00    -0.334 C  
HETATM   39  C   UNL     1      -8.935  20.144  67.428  1.00  0.00    -0.352 C  
HETATM   40  N   UNL     1      -8.655  20.267  65.999  1.00  0.00    -0.575 NA 
HETATM   41  H   UNL     1      -8.616  21.235  65.681  1.00  0.00     0.000 HD 
HETATM   42  C   UNL     1      -7.409  19.518  65.733  1.00  0.00    -0.279 C  
ENDBRANCH  34  37
ENDBRANCH   8  30
TORSDOF 6
ENDMDL
MODEL       33
REMARK 921   NORMALIZED FREE ENERGY PREDICTED BY IDOCK:   -6.47 KCAL/MOL
REMARK 922        TOTAL FREE ENERGY PREDICTED BY IDOCK:  -10.27 KCAL/MOL
REMARK 923 INTER-LIGAND FREE ENERGY PREDICTED BY IDOCK:   -9.29 KCAL/MOL
REMARK 924 INTRA-LIGAND FREE ENERGY PREDICTED BY IDOCK:   -0.98 KCAL/MOL
REMARK 927      BINDING AFFINITY PREDICTED BY RF-SCORE:    0.00 PKD
ROOT
HETATM    1  CA  UNL     1     -11.524  14.251  67.481  1.00  0.00    -0.345 C  
HETATM    2  C   UNL     1     -10.990  10.356  68.613  1.00  0.00    -0.243 C  
HETATM    3  C   UNL     1     -11.989  14.382  68.980  1.00  0.00    -0.307 C  
HETATM    4  O   UNL     1     -12.188  15.236  69.812  1.00  0.00    -0.321 OA 
HETATM    5  O   UNL     1     -12.852  13.745  71.759  1.00  0.00    -0.335 OA 
HETATM    6  OXT UNL     1     -13.333  11.611  72.138  1.00  0.00    -0.491 OA 
HETATM    7  N   UNL     1     -11.966  13.041  69.125  1.00  0.00    -0.296 N  
HETATM    8  C   UNL     1     -11.655  10.838  69.897  1.00  0.00    -0.410 C  
HETATM    9  CA  UNL     1     -12.121  12.101  70.106  1.00  0.00    -0.290 C  
HETATM   10  S   UNL     1     -10.337  11.657  67.546  1.00  0.00    -0.201 SA 
HETATM   11  C   UNL     1     -11.789  12.725  67.719  1.00  0.00    -0.332 C  
HETATM   12  C   UNL     1     -12.812  12.446  71.411  1.00  0.00    -0.260 C  
ENDROOT
BRANCH   1  13
HETATM   13  N   UNL     1     -10.108  14.609  67.194  1.00  0.00    -0.243 N  
HETATM   14  O   UNL     1     -10.228  16.809  67.825  1.00  0.00    -0.282 OA 
HETATM   15  C   UNL     1      -9.574  15.856  67.430  1.00  0.00    -0.221 C  
HETATM   16  H   UNL     1      -9.499  13.891  66.801  1.00  0.00     0.000 HD 
BRANCH  15  17
HETATM   17  C   UNL     1      -8.068  15.979  67.163  1.00  0.00    -0.200 C  
BRANCH  17  18
HETATM   18  N   UNL     1      -7.512  16.987  66.536  1.00  0.00    -0.263 NA 
HETATM   19  H   UNL     1      -6.511  17.181  66.581  1.00  0.00     0.000 HD 
HETATM   20  O   UNL     1      -8.400  17.777  65.800  1.00  0.00    -0.529 OA 
HETATM   21  H   UNL     1      -7.997  18.508  65.345  1.00  0.00     0.000 HD 
ENDBRANCH  17  18
BRANCH  17  22
HETATM   22  C   UNL     1      -7.167  14.927  67.643  1.00  0.00    -0.185 A  
HETATM   23  S   UNL     1      -5.177  13.604  68.057  1.00  0.00    -0.089 SA 
HETATM   24  H1  UNL     1      -7.695  11.579  69.790  1.00  0.00     0.000 HD 
HETATM   25  N   UNL     1      -5.858  14.954  67.357  1.00  0.00    -0.320 NA 
HETATM   26  N   UNL     1      -7.662  13.834  68.376  1.00  0.00    -0.127 NA 
HETATM   27  H2  UNL     1      -5.969  11.369  69.611  1.00  0.00     0.000 HD 
HETATM   28  C   UNL     1      -6.674  13.035  68.686  1.00  0.00    -0.096 A  
HETATM   29  N   UNL     1      -6.807  11.916  69.417  1.00  0.00    -0.086 NA 
ENDBRANCH  17  22
ENDBRANCH  15  17
ENDBRANCH   1  13
BRANCH   8  30
HETATM   30  C   UNL     1     -11.690   9.730  70.859  1.00  0.00    -0.429 C  
HETATM   31  C   UNL     1      -9.168   9.321  71.231  1.00  0.00    -0.161 C  
HETATM   32  C   UNL     1     -10.631   9.094  71.385  1.00  0.00    -0.412 C  
HETATM   33  C   UNL     1      -8.603   7.923  71.425  1.00  0.00    -0.123 C  
HETATM   34  N   UNL     1      -9.606   7.179  72.162  1.00  0.00    -0.143 N  
HETATM   35  C   UNL     1     -10.807   7.875  72.227  1.00  0.00    -0.293 C  
HETATM   36  O   UNL     1     -11.819   7.596  72.841  1.00  0.00    -0.225 OA 
BRANCH  34  37
HETATM   37  C   UNL     1      -9.271   6.019  73.004  1.00  0.00    -0.133 C  
HETATM   38  C   UNL     1      -9.563   4.672  72.341  1.00  0.00    -0.192 C  
HETATM   39  C   UNL     1     -11.034   4.450  72.640  1.00  0.00    -0.029 C  
HETATM   40  N   UNL     1     -11.266   5.008  73.971  1.00  0.00    -0.390 NA 
HETATM   41  H   UNL     1     -11.443   4.294  74.678  1.00  0.00     0.000 HD 
HETATM   42  C   UNL     1     -10.107   5.868  74.291  1.00  0.00    -0.284 C  
ENDBRANCH  34  37
ENDBRANCH   8  30
TORSDOF 6
ENDMDL
MODEL       34
REMARK 921   NORMALIZED FREE ENERGY PREDICTED BY IDOCK:   -6.47 KCAL/MOL
REMARK 922        TOTAL FREE ENERGY PREDICTED BY IDOCK:  -10.27 KCAL/MOL
REMARK 923 INTER-LIGAND FREE ENERGY PREDICTED BY IDOCK:   -8.88 KCAL/MOL
REMARK 924 INTRA-LIGAND FREE ENERGY PREDICTED BY IDOCK:   -1.38 KCAL/MOL
REMARK 927      BINDING AFFINITY PREDICTED BY RF-SCORE:    0.00 PKD
ROOT
HETATM    1  CA  UNL     1     -11.476  11.167  67.971  1.00  0.00    -0.293 C  
HETATM    2  C   UNL     1      -7.783  12.896  68.306  1.00  0.00    -0.137 C  
HETATM    3  C   UNL     1     -11.656  12.304  66.895  1.00  0.00    -0.361 C  
HETATM    4  O   UNL     1     -12.382  12.593  65.974  1.00  0.00    -0.587 OA 
HETATM    5  O   UNL     1     -11.249  14.744  65.237  1.00  0.00    -0.336 OA 
HETATM    6  OXT UNL     1      -9.661  16.122  65.950  1.00  0.00    -0.319 OA 
HETATM    7  N   UNL     1     -10.498  12.878  67.279  1.00  0.00    -0.233 N  
HETATM    8  C   UNL     1      -8.389  13.923  67.357  1.00  0.00    -0.208 C  
HETATM    9  CA  UNL     1      -9.673  13.902  66.904  1.00  0.00    -0.268 C  
HETATM   10  S   UNL     1      -8.659  11.321  68.400  1.00  0.00    -0.157 SA 
HETATM   11  C   UNL     1     -10.304  12.076  68.475  1.00  0.00    -0.217 C  
HETATM   12  C   UNL     1     -10.175  15.013  66.001  1.00  0.00    -0.301 C  
ENDROOT
BRANCH   1  13
HETATM   13  N   UNL     1     -11.066   9.831  67.460  1.00  0.00    -0.414 N  
HETATM   14  O   UNL     1     -11.008   8.750  69.479  1.00  0.00    -0.186 OA 
HETATM   15  C   UNL     1     -10.905   8.725  68.262  1.00  0.00     0.032 C  
HETATM   16  H   UNL     1     -10.895   9.730  66.460  1.00  0.00     0.000 HD 
BRANCH  15  17
HETATM   17  C   UNL     1     -10.582   7.423  67.517  1.00  0.00    -0.269 C  
BRANCH  17  18
HETATM   18  N   UNL     1     -11.437   6.443  67.345  1.00  0.00    -0.697 NA 
HETATM   19  H   UNL     1     -12.219   6.277  67.979  1.00  0.00     0.000 HD 
HETATM   20  O   UNL     1     -11.192   5.645  66.224  1.00  0.00    -0.759 OA 
HETATM   21  H   UNL     1     -11.812   4.935  66.100  1.00  0.00     0.000 HD 
ENDBRANCH  17  18
BRANCH  17  22
HETATM   22  C   UNL     1      -9.250   7.241  66.935  1.00  0.00    -0.152 A  
HETATM   23  S   UNL     1      -7.316   7.445  65.486  1.00  0.00    -0.078 SA 
HETATM   24  H1  UNL     1      -6.113   4.910  67.845  1.00  0.00     0.000 HD 
HETATM   25  N   UNL     1      -8.870   7.925  65.847  1.00  0.00    -0.164 NA 
HETATM   26  N   UNL     1      -8.349   6.305  67.477  1.00  0.00    -0.113 NA 
HETATM   27  H2  UNL     1      -5.338   5.673  66.478  1.00  0.00     0.000 HD 
HETATM   28  C   UNL     1      -7.237   6.325  66.789  1.00  0.00    -0.074 A  
HETATM   29  N   UNL     1      -6.160   5.573  67.072  1.00  0.00    -0.029 NA 
ENDBRANCH  17  22
ENDBRANCH  15  17
ENDBRANCH   1  13
BRANCH   8  30
HETATM   30  C   UNL     1      -7.362  14.912  67.010  1.00  0.00     0.115 C  
HETATM   31  C   UNL     1      -7.597  16.575  68.972  1.00  0.00    -0.233 C  
HETATM   32  C   UNL     1      -7.066  16.030  67.692  1.00  0.00    -0.178 C  
HETATM   33  C   UNL     1      -7.436  18.073  68.776  1.00  0.00    -0.264 C  
HETATM   34  N   UNL     1      -6.415  18.242  67.761  1.00  0.00    -0.191 N  
HETATM   35  C   UNL     1      -6.111  17.035  67.143  1.00  0.00    -0.164 C  
HETATM   36  O   UNL     1      -5.244  16.794  66.324  1.00  0.00    -0.342 OA 
BRANCH  34  37
HETATM   37  C   UNL     1      -5.591  19.458  67.662  1.00  0.00    -0.181 C  
HETATM   38  C   UNL     1      -6.209  20.679  68.346  1.00  0.00    -0.365 C  
HETATM   39  C   UNL     1      -7.140  21.236  67.285  1.00  0.00    -0.161 C  
HETATM   40  N   UNL     1      -6.477  21.008  66.003  1.00  0.00    -0.439 NA 
HETATM   41  H   UNL     1      -6.142  21.867  65.568  1.00  0.00     0.000 HD 
HETATM   42  C   UNL     1      -5.403  20.020  66.238  1.00  0.00    -0.162 C  
ENDBRANCH  34  37
ENDBRANCH   8  30
TORSDOF 6
ENDMDL
MODEL       35
REMARK 921   NORMALIZED FREE ENERGY PREDICTED BY IDOCK:   -6.46 KCAL/MOL
REMARK 922        TOTAL FREE ENERGY PREDICTED BY IDOCK:  -10.24 KCAL/MOL
REMARK 923 INTER-LIGAND FREE ENERGY PREDICTED BY IDOCK:   -8.85 KCAL/MOL
REMARK 924 INTRA-LIGAND FREE ENERGY PREDICTED BY IDOCK:   -1.39 KCAL/MOL
REMARK 927      BINDING AFFINITY PREDICTED BY RF-SCORE:    0.00 PKD
ROOT
HETATM    1  CA  UNL     1      -7.850  10.462  64.805  1.00  0.00    -0.086 C  
HETATM    2  C   UNL     1      -8.032   9.068  68.647  1.00  0.00    -0.102 C  
HETATM    3  C   UNL     1      -8.094   8.939  64.485  1.00  0.00    -0.150 C  
HETATM    4  O   UNL     1      -8.436   8.234  63.565  1.00  0.00    -0.081 OA 
HETATM    5  O   UNL     1      -8.373   5.985  64.745  1.00  0.00    -0.137 OA 
HETATM    6  OXT UNL     1      -7.687   5.132  66.676  1.00  0.00    -0.091 OA 
HETATM    7  N   UNL     1      -7.912   8.617  65.782  1.00  0.00    -0.102 N  
HETATM    8  C   UNL     1      -8.079   7.713  67.950  1.00  0.00    -0.123 C  
HETATM    9  CA  UNL     1      -8.002   7.527  66.603  1.00  0.00    -0.110 C  
HETATM   10  S   UNL     1      -8.417  10.487  67.601  1.00  0.00    -0.114 SA 
HETATM   11  C   UNL     1      -7.414   9.914  66.207  1.00  0.00    -0.102 C  
HETATM   12  C   UNL     1      -8.007   6.122  66.032  1.00  0.00    -0.110 C  
ENDROOT
BRANCH   1  13
HETATM   13  N   UNL     1      -9.053  11.337  64.814  1.00  0.00    -0.382 N  
HETATM   14  O   UNL     1      -9.273  11.558  62.545  1.00  0.00    -0.302 OA 
HETATM   15  C   UNL     1      -9.684  11.779  63.673  1.00  0.00    -0.271 C  
HETATM   16  H   UNL     1      -9.432  11.627  65.716  1.00  0.00     0.000 HD 
BRANCH  15  17
HETATM   17  C   UNL     1     -10.969  12.582  63.911  1.00  0.00    -0.424 C  
BRANCH  17  18
HETATM   18  N   UNL     1     -11.856  12.842  62.980  1.00  0.00    -0.807 NA 
HETATM   19  H   UNL     1     -12.075  12.186  62.230  1.00  0.00     0.000 HD 
HETATM   20  O   UNL     1     -12.478  14.089  63.098  1.00  0.00    -1.137 OA 
HETATM   21  H   UNL     1     -13.120  14.277  62.424  1.00  0.00     0.000 HD 
ENDBRANCH  17  18
BRANCH  17  22
HETATM   22  C   UNL     1     -11.260  13.090  65.255  1.00  0.00    -0.289 A  
HETATM   23  S   UNL     1     -12.063  13.252  67.537  1.00  0.00    -0.180 SA 
HETATM   24  H1  UNL     1     -10.555  16.568  67.126  1.00  0.00     0.000 HD 
HETATM   25  N   UNL     1     -11.917  12.340  66.150  1.00  0.00    -0.618 NA 
HETATM   26  N   UNL     1     -10.898  14.398  65.624  1.00  0.00    -0.304 NA 
HETATM   27  H2  UNL     1     -11.347  15.822  68.494  1.00  0.00     0.000 HD 
HETATM   28  C   UNL     1     -11.262  14.616  66.861  1.00  0.00    -0.343 A  
HETATM   29  N   UNL     1     -11.030  15.759  67.527  1.00  0.00    -0.315 NA 
ENDBRANCH  17  22
ENDBRANCH  15  17
ENDBRANCH   1  13
BRANCH   8  30
HETATM   30  C   UNL     1      -8.234   6.662  68.964  1.00  0.00    -0.117 C  
HETATM   31  C   UNL     1     -10.770   6.803  69.434  1.00  0.00    -0.291 C  
HETATM   32  C   UNL     1      -9.371   6.317  69.589  1.00  0.00    -0.150 C  
HETATM   33  C   UNL     1     -11.338   6.600  70.828  1.00  0.00    -0.336 C  
HETATM   34  N   UNL     1     -10.507   5.595  71.462  1.00  0.00    -0.231 N  
HETATM   35  C   UNL     1      -9.361   5.342  70.718  1.00  0.00    -0.159 C  
HETATM   36  O   UNL     1      -8.502   4.501  70.901  1.00  0.00    -0.086 OA 
BRANCH  34  37
HETATM   37  C   UNL     1     -10.997   4.736  72.553  1.00  0.00    -0.098 C  
HETATM   38  C   UNL     1     -10.783   5.328  73.947  1.00  0.00    -0.320 C  
HETATM   39  C   UNL     1      -9.360   4.922  74.281  1.00  0.00    -0.122 C  
HETATM   40  N   UNL     1      -9.165   3.600  73.689  1.00  0.00    -0.093 NA 
HETATM   41  H   UNL     1      -9.099   2.857  74.385  1.00  0.00     0.000 HD 
HETATM   42  C   UNL     1     -10.262   3.391  72.721  1.00  0.00    -0.168 C  
ENDBRANCH  34  37
ENDBRANCH   8  30
TORSDOF 6
ENDMDL
MODEL       36
REMARK 921   NORMALIZED FREE ENERGY PREDICTED BY IDOCK:   -6.44 KCAL/MOL
REMARK 922        TOTAL FREE ENERGY PREDICTED BY IDOCK:  -10.22 KCAL/MOL
REMARK 923 INTER-LIGAND FREE ENERGY PREDICTED BY IDOCK:   -9.49 KCAL/MOL
REMARK 924 INTRA-LIGAND FREE ENERGY PREDICTED BY IDOCK:   -0.73 KCAL/MOL
REMARK 927      BINDING AFFINITY PREDICTED BY RF-SCORE:    0.00 PKD
ROOT
HETATM    1  CA  UNL     1     -10.286   8.862  68.732  1.00  0.00    -0.206 C  
HETATM    2  C   UNL     1     -11.906  12.615  68.914  1.00  0.00    -0.302 C  
HETATM    3  C   UNL     1      -8.947   9.692  68.709  1.00  0.00    -0.134 C  
HETATM    4  O   UNL     1      -7.761   9.532  68.879  1.00  0.00    -0.074 OA 
HETATM    5  O   UNL     1      -6.985  11.925  68.526  1.00  0.00    -0.072 OA 
HETATM    6  OXT UNL     1      -7.813  13.862  67.827  1.00  0.00    -0.137 OA 
HETATM    7  N   UNL     1      -9.638  10.840  68.555  1.00  0.00    -0.176 N  
HETATM    8  C   UNL     1     -10.459  13.042  68.702  1.00  0.00    -0.236 C  
HETATM    9  CA  UNL     1      -9.414  12.189  68.517  1.00  0.00    -0.122 C  
HETATM   10  S   UNL     1     -12.135  10.910  69.460  1.00  0.00    -0.249 SA 
HETATM   11  C   UNL     1     -10.928  10.224  68.298  1.00  0.00    -0.264 C  
HETATM   12  C   UNL     1      -8.023  12.738  68.263  1.00  0.00    -0.151 C  
ENDROOT
BRANCH   1  13
HETATM   13  N   UNL     1     -10.725   8.351  70.059  1.00  0.00    -0.236 N  
HETATM   14  O   UNL     1     -11.505   6.318  69.347  1.00  0.00    -0.427 OA 
HETATM   15  C   UNL     1     -11.264   7.100  70.253  1.00  0.00    -0.276 C  
HETATM   16  H   UNL     1     -10.621   8.962  70.869  1.00  0.00     0.000 HD 
BRANCH  15  17
HETATM   17  C   UNL     1     -11.549   6.735  71.717  1.00  0.00    -0.297 C  
BRANCH  17  18
HETATM   18  N   UNL     1     -12.680   6.987  72.330  1.00  0.00    -0.499 NA 
HETATM   19  H   UNL     1     -13.462   6.331  72.334  1.00  0.00     0.000 HD 
HETATM   20  O   UNL     1     -12.730   8.224  72.978  1.00  0.00    -0.694 OA 
HETATM   21  H   UNL     1     -13.550   8.406  73.423  1.00  0.00     0.000 HD 
ENDBRANCH  17  18
BRANCH  17  22
HETATM   22  C   UNL     1     -10.517   6.046  72.497  1.00  0.00    -0.202 A  
HETATM   23  S   UNL     1      -9.075   5.365  74.324  1.00  0.00    -0.119 SA 
HETATM   24  H1  UNL     1      -7.778   3.247  71.628  1.00  0.00     0.000 HD 
HETATM   25  N   UNL     1     -10.324   6.332  73.792  1.00  0.00    -0.264 NA 
HETATM   26  N   UNL     1      -9.669   5.100  71.893  1.00  0.00    -0.157 NA 
HETATM   27  H2  UNL     1      -7.326   3.378  73.311  1.00  0.00     0.000 HD 
HETATM   28  C   UNL     1      -8.837   4.631  72.787  1.00  0.00    -0.117 A  
HETATM   29  N   UNL     1      -7.919   3.682  72.540  1.00  0.00    -0.071 NA 
ENDBRANCH  17  22
ENDBRANCH  15  17
ENDBRANCH   1  13
BRANCH   8  30
HETATM   30  C   UNL     1     -10.385  14.508  68.746  1.00  0.00    -0.243 C  
HETATM   31  C   UNL     1     -11.052  15.107  66.324  1.00  0.00    -0.309 C  
HETATM   32  C   UNL     1     -10.615  15.350  67.726  1.00  0.00    -0.274 C  
HETATM   33  C   UNL     1     -10.411  16.267  65.581  1.00  0.00    -0.368 C  
HETATM   34  N   UNL     1     -10.163  17.296  66.572  1.00  0.00    -0.319 N  
HETATM   35  C   UNL     1     -10.346  16.811  67.862  1.00  0.00    -0.319 C  
HETATM   36  O   UNL     1     -10.317  17.417  68.916  1.00  0.00    -0.335 OA 
BRANCH  34  37
HETATM   37  C   UNL     1     -10.071  18.724  66.226  1.00  0.00    -0.409 C  
HETATM   38  C   UNL     1      -8.640  19.267  66.226  1.00  0.00    -0.335 C  
HETATM   39  C   UNL     1      -8.404  19.616  67.684  1.00  0.00    -0.308 C  
HETATM   40  N   UNL     1      -9.683  20.101  68.198  1.00  0.00    -0.334 NA 
HETATM   41  H   UNL     1      -9.683  21.103  68.389  1.00  0.00     0.000 HD 
HETATM   42  C   UNL     1     -10.723  19.695  67.230  1.00  0.00    -0.458 C  
ENDBRANCH  34  37
ENDBRANCH   8  30
TORSDOF 6
ENDMDL
MODEL       37
REMARK 921   NORMALIZED FREE ENERGY PREDICTED BY IDOCK:   -6.43 KCAL/MOL
REMARK 922        TOTAL FREE ENERGY PREDICTED BY IDOCK:  -10.21 KCAL/MOL
REMARK 923 INTER-LIGAND FREE ENERGY PREDICTED BY IDOCK:   -8.74 KCAL/MOL
REMARK 924 INTRA-LIGAND FREE ENERGY PREDICTED BY IDOCK:   -1.47 KCAL/MOL
REMARK 927      BINDING AFFINITY PREDICTED BY RF-SCORE:    0.00 PKD
ROOT
HETATM    1  CA  UNL     1     -10.784   9.284  68.084  1.00  0.00    -0.151 C  
HETATM    2  C   UNL     1     -11.538  13.302  67.938  1.00  0.00    -0.334 C  
HETATM    3  C   UNL     1     -10.325   9.550  66.601  1.00  0.00    -0.210 C  
HETATM    4  O   UNL     1      -9.681   9.019  65.727  1.00  0.00    -0.265 OA 
HETATM    5  O   UNL     1      -9.862  10.826  63.950  1.00  0.00    -0.277 OA 
HETATM    6  OXT UNL     1     -10.972  12.715  63.599  1.00  0.00    -0.426 OA 
HETATM    7  N   UNL     1     -10.826  10.801  66.649  1.00  0.00    -0.208 N  
HETATM    8  C   UNL     1     -11.180  13.122  66.467  1.00  0.00    -0.339 C  
HETATM    9  CA  UNL     1     -10.867  11.933  65.883  1.00  0.00    -0.297 C  
HETATM   10  S   UNL     1     -11.010  11.966  69.030  1.00  0.00    -0.194 SA 
HETATM   11  C   UNL     1     -11.536  10.647  67.907  1.00  0.00    -0.181 C  
HETATM   12  C   UNL     1     -10.578  11.874  64.395  1.00  0.00    -0.319 C  
ENDROOT
BRANCH   1  13
HETATM   13  N   UNL     1      -9.713   9.282  69.118  1.00  0.00    -0.160 N  
HETATM   14  O   UNL     1      -8.668   7.354  68.455  1.00  0.00    -0.128 OA 
HETATM   15  C   UNL     1      -8.721   8.330  69.187  1.00  0.00    -0.143 C  
HETATM   16  H   UNL     1      -9.714  10.028  69.814  1.00  0.00     0.000 HD 
BRANCH  15  17
HETATM   17  C   UNL     1      -7.656   8.578  70.264  1.00  0.00    -0.075 C  
BRANCH  17  18
HETATM   18  N   UNL     1      -7.318   7.701  71.178  1.00  0.00    -0.072 NA 
HETATM   19  H   UNL     1      -6.470   7.789  71.740  1.00  0.00     0.000 HD 
HETATM   20  O   UNL     1      -8.210   6.634  71.323  1.00  0.00    -0.118 OA 
HETATM   21  H   UNL     1      -7.965   5.999  71.985  1.00  0.00     0.000 HD 
ENDBRANCH  17  18
BRANCH  17  22
HETATM   22  C   UNL     1      -6.945   9.859  70.288  1.00  0.00    -0.146 A  
HETATM   23  S   UNL     1      -5.470  11.669  70.944  1.00  0.00    -0.058 SA 
HETATM   24  H1  UNL     1      -7.045  13.138  67.978  1.00  0.00     0.000 HD 
HETATM   25  N   UNL     1      -6.051  10.136  71.247  1.00  0.00    -0.310 NA 
HETATM   26  N   UNL     1      -7.217  10.851  69.329  1.00  0.00    -0.118 NA 
HETATM   27  H2  UNL     1      -5.822  13.758  69.061  1.00  0.00     0.000 HD 
HETATM   28  C   UNL     1      -6.464  11.896  69.559  1.00  0.00    -0.113 A  
HETATM   29  N   UNL     1      -6.456  13.004  68.800  1.00  0.00    -0.079 NA 
ENDBRANCH  17  22
ENDBRANCH  15  17
ENDBRANCH   1  13
BRANCH   8  30
HETATM   30  C   UNL     1     -11.215  14.432  65.806  1.00  0.00    -0.326 C  
HETATM   31  C   UNL     1      -9.089  15.531  66.778  1.00  0.00    -0.282 C  
HETATM   32  C   UNL     1     -10.337  15.435  65.972  1.00  0.00    -0.339 C  
HETATM   33  C   UNL     1      -9.036  17.012  67.114  1.00  0.00    -0.222 C  
HETATM   34  N   UNL     1      -9.844  17.684  66.116  1.00  0.00    -0.276 N  
HETATM   35  C   UNL     1     -10.579  16.775  65.364  1.00  0.00    -0.203 C  
HETATM   36  O   UNL     1     -11.280  16.980  64.391  1.00  0.00    -1.167 OA 
BRANCH  34  37
HETATM   37  C   UNL     1      -9.635  19.093  65.746  1.00  0.00     0.198 C  
HETATM   38  C   UNL     1      -8.244  19.623  66.099  1.00  0.00    -0.355 C  
HETATM   39  C   UNL     1      -8.390  20.038  67.551  1.00  0.00    -0.334 C  
HETATM   40  N   UNL     1      -9.749  20.557  67.690  1.00  0.00    -0.403 NA 
HETATM   41  H   UNL     1      -9.778  21.567  67.832  1.00  0.00     0.000 HD 
HETATM   42  C   UNL     1     -10.507  20.116  66.501  1.00  0.00    -0.316 C  
ENDBRANCH  34  37
ENDBRANCH   8  30
TORSDOF 6
ENDMDL
MODEL       38
REMARK 921   NORMALIZED FREE ENERGY PREDICTED BY IDOCK:   -6.40 KCAL/MOL
REMARK 922        TOTAL FREE ENERGY PREDICTED BY IDOCK:  -10.17 KCAL/MOL
REMARK 923 INTER-LIGAND FREE ENERGY PREDICTED BY IDOCK:   -8.80 KCAL/MOL
REMARK 924 INTRA-LIGAND FREE ENERGY PREDICTED BY IDOCK:   -1.38 KCAL/MOL
REMARK 927      BINDING AFFINITY PREDICTED BY RF-SCORE:    0.00 PKD
ROOT
HETATM    1  CA  UNL     1     -10.852  12.148  67.248  1.00  0.00    -0.244 C  
HETATM    2  C   UNL     1      -8.775   9.313  69.343  1.00  0.00    -0.148 C  
HETATM    3  C   UNL     1     -11.689  12.188  68.581  1.00  0.00    -0.330 C  
HETATM    4  O   UNL     1     -12.491  12.895  69.144  1.00  0.00     0.020 OA 
HETATM    5  O   UNL     1     -12.807  11.527  71.262  1.00  0.00    -0.404 OA 
HETATM    6  OXT UNL     1     -12.250   9.531  72.057  1.00  0.00    -0.358 OA 
HETATM    7  N   UNL     1     -11.044  11.097  69.042  1.00  0.00    -0.222 N  
HETATM    8  C   UNL     1      -9.896   9.514  70.355  1.00  0.00    -0.329 C  
HETATM    9  CA  UNL     1     -10.961  10.345  70.182  1.00  0.00    -0.300 C  
HETATM   10  S   UNL     1      -8.601  10.621  68.112  1.00  0.00    -0.127 SA 
HETATM   11  C   UNL     1     -10.379  10.758  67.797  1.00  0.00    -0.193 C  
HETATM   12  C   UNL     1     -12.042  10.421  71.243  1.00  0.00    -0.362 C  
ENDROOT
BRANCH   1  13
HETATM   13  N   UNL     1      -9.780  13.171  67.109  1.00  0.00    -0.229 N  
HETATM   14  O   UNL     1     -11.129  14.937  66.556  1.00  0.00    -0.334 OA 
HETATM   15  C   UNL     1     -10.021  14.492  66.811  1.00  0.00    -0.264 C  
HETATM   16  H   UNL     1      -8.812  12.876  67.242  1.00  0.00     0.000 HD 
BRANCH  15  17
HETATM   17  C   UNL     1      -8.782  15.398  66.821  1.00  0.00    -0.269 C  
BRANCH  17  18
HETATM   18  N   UNL     1      -7.551  14.960  66.716  1.00  0.00    -0.269 NA 
HETATM   19  H   UNL     1      -7.328  14.004  66.435  1.00  0.00     0.000 HD 
HETATM   20  O   UNL     1      -6.567  15.905  67.019  1.00  0.00    -0.269 OA 
HETATM   21  H   UNL     1      -5.674  15.588  66.943  1.00  0.00     0.000 HD 
ENDBRANCH  17  18
BRANCH  17  22
HETATM   22  C   UNL     1      -8.955  16.849  66.936  1.00  0.00    -0.224 A  
HETATM   23  S   UNL     1      -9.101  19.207  66.390  1.00  0.00    -0.323 SA 
HETATM   24  H1  UNL     1      -9.677  19.326  70.008  1.00  0.00     0.000 HD 
HETATM   25  N   UNL     1      -8.857  17.645  65.863  1.00  0.00    -0.520 NA 
HETATM   26  N   UNL     1      -9.183  17.449  68.188  1.00  0.00    -0.263 NA 
HETATM   27  H2  UNL     1      -9.642  20.592  68.803  1.00  0.00     0.000 HD 
HETATM   28  C   UNL     1      -9.301  18.742  68.034  1.00  0.00    -0.306 A  
HETATM   29  N   UNL     1      -9.559  19.602  69.034  1.00  0.00    -0.363 NA 
ENDBRANCH  17  22
ENDBRANCH  15  17
ENDBRANCH   1  13
BRANCH   8  30
HETATM   30  C   UNL     1      -9.626   8.684  71.535  1.00  0.00    -0.327 C  
HETATM   31  C   UNL     1     -10.567   6.407  70.761  1.00  0.00    -0.288 C  
HETATM   32  C   UNL     1      -9.940   7.387  71.689  1.00  0.00    -0.193 C  
HETATM   33  C   UNL     1     -11.283   5.469  71.718  1.00  0.00    -0.094 C  
HETATM   34  N   UNL     1     -10.622   5.616  73.000  1.00  0.00    -0.225 N  
HETATM   35  C   UNL     1      -9.756   6.703  73.001  1.00  0.00    -0.159 C  
HETATM   36  O   UNL     1      -8.978   7.058  73.866  1.00  0.00    -0.156 OA 
BRANCH  34  37
HETATM   37  C   UNL     1     -10.623   4.553  74.018  1.00  0.00    -0.276 C  
HETATM   38  C   UNL     1      -9.228   4.025  74.359  1.00  0.00    -0.115 C  
HETATM   39  C   UNL     1      -8.981   2.981  73.286  1.00  0.00    -0.086 C  
HETATM   40  N   UNL     1     -10.276   2.357  73.022  1.00  0.00    -0.127 NA 
HETATM   41  H   UNL     1     -10.332   1.395  73.358  1.00  0.00     0.000 HD 
HETATM   42  C   UNL     1     -11.311   3.237  73.605  1.00  0.00    -0.119 C  
ENDBRANCH  34  37
ENDBRANCH   8  30
TORSDOF 6
ENDMDL
MODEL       39
REMARK 921   NORMALIZED FREE ENERGY PREDICTED BY IDOCK:   -6.32 KCAL/MOL
REMARK 922        TOTAL FREE ENERGY PREDICTED BY IDOCK:  -10.05 KCAL/MOL
REMARK 923 INTER-LIGAND FREE ENERGY PREDICTED BY IDOCK:   -8.78 KCAL/MOL
REMARK 924 INTRA-LIGAND FREE ENERGY PREDICTED BY IDOCK:   -1.27 KCAL/MOL
REMARK 927      BINDING AFFINITY PREDICTED BY RF-SCORE:    0.00 PKD
ROOT
HETATM    1  CA  UNL     1     -11.640  11.842  66.869  1.00  0.00    -0.234 C  
HETATM    2  C   UNL     1      -8.270   9.721  67.807  1.00  0.00    -0.114 C  
HETATM    3  C   UNL     1     -11.934  11.609  68.399  1.00  0.00    -0.196 C  
HETATM    4  O   UNL     1     -12.648  12.036  69.275  1.00  0.00     0.147 OA 
HETATM    5  O   UNL     1     -11.814  10.601  71.199  1.00  0.00    -0.328 OA 
HETATM    6  OXT UNL     1     -10.489   8.850  71.522  1.00  0.00    -0.267 OA 
HETATM    7  N   UNL     1     -10.896  10.752  68.488  1.00  0.00    -0.210 N  
HETATM    8  C   UNL     1      -8.974   9.563  69.149  1.00  0.00    -0.148 C  
HETATM    9  CA  UNL     1     -10.215  10.041  69.438  1.00  0.00    -0.222 C  
HETATM   10  S   UNL     1      -8.903  11.042  66.753  1.00  0.00    -0.161 SA 
HETATM   11  C   UNL     1     -10.644  10.648  67.061  1.00  0.00    -0.262 C  
HETATM   12  C   UNL     1     -10.832   9.774  70.798  1.00  0.00    -0.333 C  
ENDROOT
BRANCH   1  13
HETATM   13  N   UNL     1     -11.009  13.140  66.507  1.00  0.00    -0.283 N  
HETATM   14  O   UNL     1     -12.759  13.990  65.298  1.00  0.00    -0.595 OA 
HETATM   15  C   UNL     1     -11.645  14.121  65.780  1.00  0.00    -0.343 C  
HETATM   16  H   UNL     1     -10.052  13.313  66.814  1.00  0.00     0.000 HD 
BRANCH  15  17
HETATM   17  C   UNL     1     -10.851  15.423  65.611  1.00  0.00    -0.355 C  
BRANCH  17  18
HETATM   18  N   UNL     1     -10.652  16.018  64.460  1.00  0.00    -0.711 NA 
HETATM   19  H   UNL     1      -9.750  16.010  63.984  1.00  0.00     0.000 HD 
HETATM   20  O   UNL     1     -11.775  16.666  63.936  1.00  0.00    -1.487 OA 
HETATM   21  H   UNL     1     -11.631  17.098  63.102  1.00  0.00     0.000 HD 
ENDBRANCH  17  18
BRANCH  17  22
HETATM   22  C   UNL     1     -10.281  16.074  66.794  1.00  0.00    -0.274 A  
HETATM   23  S   UNL     1      -9.049  16.463  68.846  1.00  0.00    -0.245 SA 
HETATM   24  H1  UNL     1     -10.587  19.754  68.361  1.00  0.00     0.000 HD 
HETATM   25  N   UNL     1      -9.482  15.403  67.635  1.00  0.00    -0.204 NA 
HETATM   26  N   UNL     1     -10.598  17.409  67.104  1.00  0.00    -0.306 NA 
HETATM   27  H2  UNL     1      -9.504  19.158  69.596  1.00  0.00     0.000 HD 
HETATM   28  C   UNL     1      -9.974  17.760  68.199  1.00  0.00    -0.342 A  
HETATM   29  N   UNL     1     -10.038  18.985  68.745  1.00  0.00    -0.397 NA 
ENDBRANCH  17  22
ENDBRANCH  15  17
ENDBRANCH   1  13
BRANCH   8  30
HETATM   30  C   UNL     1      -8.091   8.832  70.066  1.00  0.00    -0.111 C  
HETATM   31  C   UNL     1      -8.819   6.396  69.613  1.00  0.00    -0.137 C  
HETATM   32  C   UNL     1      -8.063   7.503  70.259  1.00  0.00    -0.112 C  
HETATM   33  C   UNL     1      -8.886   5.361  70.724  1.00  0.00    -0.133 C  
HETATM   34  N   UNL     1      -7.797   5.667  71.630  1.00  0.00    -0.107 N  
HETATM   35  C   UNL     1      -7.229   6.902  71.340  1.00  0.00    -0.080 C  
HETATM   36  O   UNL     1      -6.247   7.424  71.831  1.00  0.00    -0.040 OA 
BRANCH  34  37
HETATM   37  C   UNL     1      -7.178   4.650  72.497  1.00  0.00    -0.081 C  
HETATM   38  C   UNL     1      -5.693   4.420  72.212  1.00  0.00    -0.011 C  
HETATM   39  C   UNL     1      -5.709   3.420  71.071  1.00  0.00    -0.013 C  
HETATM   40  N   UNL     1      -6.853   2.544  71.316  1.00  0.00    -0.031 NA 
HETATM   41  H   UNL     1      -6.581   1.599  71.589  1.00  0.00     0.000 HD 
HETATM   42  C   UNL     1      -7.708   3.213  72.319  1.00  0.00    -0.058 C  
ENDBRANCH  34  37
ENDBRANCH   8  30
TORSDOF 6
ENDMDL
MODEL       40
REMARK 921   NORMALIZED FREE ENERGY PREDICTED BY IDOCK:   -6.30 KCAL/MOL
REMARK 922        TOTAL FREE ENERGY PREDICTED BY IDOCK:  -10.04 KCAL/MOL
REMARK 923 INTER-LIGAND FREE ENERGY PREDICTED BY IDOCK:   -8.68 KCAL/MOL
REMARK 924 INTRA-LIGAND FREE ENERGY PREDICTED BY IDOCK:   -1.35 KCAL/MOL
REMARK 927      BINDING AFFINITY PREDICTED BY RF-SCORE:    0.00 PKD
ROOT
HETATM    1  CA  UNL     1      -6.891   9.415  68.980  1.00  0.00    -0.054 C  
HETATM    2  C   UNL     1      -7.534  13.045  67.205  1.00  0.00    -0.074 C  
HETATM    3  C   UNL     1      -6.452  10.338  70.179  1.00  0.00    -0.128 C  
HETATM    4  O   UNL     1      -6.250  10.269  71.368  1.00  0.00    -0.320 OA 
HETATM    5  O   UNL     1      -5.658  12.700  71.810  1.00  0.00    -0.394 OA 
HETATM    6  OXT UNL     1      -5.233  14.550  70.659  1.00  0.00    -0.108 OA 
HETATM    7  N   UNL     1      -6.508  11.428  69.386  1.00  0.00    -0.096 N  
HETATM    8  C   UNL     1      -6.884  13.569  68.480  1.00  0.00    -0.099 C  
HETATM    9  CA  UNL     1      -6.394  12.788  69.482  1.00  0.00    -0.108 C  
HETATM   10  S   UNL     1      -8.137  11.346  67.288  1.00  0.00    -0.155 SA 
HETATM   11  C   UNL     1      -6.665  10.713  68.131  1.00  0.00    -0.064 C  
HETATM   12  C   UNL     1      -5.720  13.428  70.681  1.00  0.00    -0.182 C  
ENDROOT
BRANCH   1  13
HETATM   13  N   UNL     1      -8.292   8.915  69.009  1.00  0.00    -0.123 N  
HETATM   14  O   UNL     1      -7.976   7.078  67.678  1.00  0.00    -0.111 OA 
HETATM   15  C   UNL     1      -8.703   7.761  68.382  1.00  0.00    -0.127 C  
HETATM   16  H   UNL     1      -8.987   9.458  69.522  1.00  0.00     0.000 HD 
BRANCH  15  17
HETATM   17  C   UNL     1     -10.167   7.373  68.628  1.00  0.00    -0.191 C  
BRANCH  17  18
HETATM   18  N   UNL     1     -11.065   7.251  67.681  1.00  0.00    -0.543 NA 
HETATM   19  H   UNL     1     -11.566   8.049  67.291  1.00  0.00     0.000 HD 
HETATM   20  O   UNL     1     -11.281   5.940  67.247  1.00  0.00    -0.462 OA 
HETATM   21  H   UNL     1     -11.932   5.851  66.560  1.00  0.00     0.000 HD 
ENDBRANCH  17  18
BRANCH  17  22
HETATM   22  C   UNL     1     -10.615   7.099  69.997  1.00  0.00    -0.232 A  
HETATM   23  S   UNL     1     -11.889   6.270  71.886  1.00  0.00    -0.259 SA 
HETATM   24  H1  UNL     1      -9.310   8.209  73.624  1.00  0.00     0.000 HD 
HETATM   25  N   UNL     1     -11.696   6.343  70.233  1.00  0.00    -0.393 NA 
HETATM   26  N   UNL     1      -9.948   7.664  71.099  1.00  0.00    -0.177 NA 
HETATM   27  H2  UNL     1     -10.636   7.248  74.233  1.00  0.00     0.000 HD 
HETATM   28  C   UNL     1     -10.532   7.277  72.204  1.00  0.00    -0.203 A  
HETATM   29  N   UNL     1     -10.115   7.613  73.436  1.00  0.00    -0.327 NA 
ENDBRANCH  17  22
ENDBRANCH  15  17
ENDBRANCH   1  13
BRANCH   8  30
HETATM   30  C   UNL     1      -6.892  15.037  68.449  1.00  0.00    -0.110 C  
HETATM   31  C   UNL     1      -9.366  15.526  69.009  1.00  0.00    -0.235 C  
HETATM   32  C   UNL     1      -7.954  15.834  68.651  1.00  0.00    -0.155 C  
HETATM   33  C   UNL     1     -10.120  16.677  68.364  1.00  0.00    -0.268 C  
HETATM   34  N   UNL     1      -9.158  17.748  68.194  1.00  0.00    -0.267 N  
HETATM   35  C   UNL     1      -7.861  17.306  68.429  1.00  0.00    -0.254 C  
HETATM   36  O   UNL     1      -6.831  17.951  68.470  1.00  0.00    -0.217 OA 
BRANCH  34  37
HETATM   37  C   UNL     1      -9.553  19.165  68.124  1.00  0.00    -0.348 C  
HETATM   38  C   UNL     1     -10.874  19.399  67.387  1.00  0.00    -0.555 C  
HETATM   39  C   UNL     1     -10.452  19.457  65.931  1.00  0.00    -0.472 C  
HETATM   40  N   UNL     1      -9.140  20.102  65.913  1.00  0.00    -0.538 NA 
HETATM   41  H   UNL     1      -9.161  21.039  65.512  1.00  0.00     0.000 HD 
HETATM   42  C   UNL     1      -8.623  20.075  67.298  1.00  0.00    -0.335 C  
ENDBRANCH  34  37
ENDBRANCH   8  30
TORSDOF 6
ENDMDL
MODEL       41
REMARK 921   NORMALIZED FREE ENERGY PREDICTED BY IDOCK:   -6.22 KCAL/MOL
REMARK 922        TOTAL FREE ENERGY PREDICTED BY IDOCK:   -9.93 KCAL/MOL
REMARK 923 INTER-LIGAND FREE ENERGY PREDICTED BY IDOCK:   -8.35 KCAL/MOL
REMARK 924 INTRA-LIGAND FREE ENERGY PREDICTED BY IDOCK:   -1.58 KCAL/MOL
REMARK 927      BINDING AFFINITY PREDICTED BY RF-SCORE:    0.00 PKD
ROOT
HETATM    1  CA  UNL     1      -9.676   6.292  72.720  1.00  0.00    -0.158 C  
HETATM    2  C   UNL     1      -9.072   9.581  70.364  1.00  0.00    -0.246 C  
HETATM    3  C   UNL     1     -11.181   6.616  72.388  1.00  0.00    -0.267 C  
HETATM    4  O   UNL     1     -12.268   6.090  72.431  1.00  0.00    -0.251 OA 
HETATM    5  O   UNL     1     -13.663   7.980  71.463  1.00  0.00    -0.343 OA 
HETATM    6  OXT UNL     1     -13.421  10.115  70.905  1.00  0.00    -0.345 OA 
HETATM    7  N   UNL     1     -10.825   7.789  71.826  1.00  0.00    -0.231 N  
HETATM    8  C   UNL     1     -10.593   9.664  70.420  1.00  0.00    -0.354 C  
HETATM    9  CA  UNL     1     -11.392   8.821  71.129  1.00  0.00    -0.285 C  
HETATM   10  S   UNL     1      -8.367   7.988  70.835  1.00  0.00    -0.124 SA 
HETATM   11  C   UNL     1      -9.444   7.777  72.276  1.00  0.00    -0.170 C  
HETATM   12  C   UNL     1     -12.894   9.038  71.148  1.00  0.00    -0.167 C  
ENDROOT
BRANCH   1  13
HETATM   13  N   UNL     1      -9.017   5.267  71.867  1.00  0.00    -0.134 N  
HETATM   14  O   UNL     1      -7.069   5.100  73.062  1.00  0.00    -0.083 OA 
HETATM   15  C   UNL     1      -7.778   4.731  72.139  1.00  0.00    -0.092 C  
HETATM   16  H   UNL     1      -9.509   4.943  71.035  1.00  0.00     0.000 HD 
BRANCH  15  17
HETATM   17  C   UNL     1      -7.332   3.610  71.189  1.00  0.00    -0.033 C  
BRANCH  17  18
HETATM   18  N   UNL     1      -6.222   2.927  71.329  1.00  0.00    -0.018 NA 
HETATM   19  H   UNL     1      -5.904   2.571  72.232  1.00  0.00     0.000 HD 
HETATM   20  O   UNL     1      -5.508   2.724  70.145  1.00  0.00    -0.014 OA 
HETATM   21  H   UNL     1      -4.704   2.229  70.247  1.00  0.00     0.000 HD 
ENDBRANCH  17  18
BRANCH  17  22
HETATM   22  C   UNL     1      -8.188   3.248  70.057  1.00  0.00    -0.044 A  
HETATM   23  S   UNL     1      -9.507   1.963  68.478  1.00  0.00    -0.103 SA 
HETATM   24  H1  UNL     1      -9.842   5.321  67.046  1.00  0.00     0.000 HD 
HETATM   25  N   UNL     1      -8.560   1.977  69.849  1.00  0.00    -0.048 NA 
HETATM   26  N   UNL     1      -8.603   4.219  69.128  1.00  0.00    -0.081 NA 
HETATM   27  H2  UNL     1     -10.508   3.783  66.549  1.00  0.00     0.000 HD 
HETATM   28  C   UNL     1      -9.350   3.655  68.214  1.00  0.00    -0.170 A  
HETATM   29  N   UNL     1      -9.935   4.317  67.202  1.00  0.00    -0.162 NA 
ENDBRANCH  17  22
ENDBRANCH  15  17
ENDBRANCH   1  13
BRANCH   8  30
HETATM   30  C   UNL     1     -11.039  10.782  69.579  1.00  0.00    -0.334 C  
HETATM   31  C   UNL     1     -10.702   9.787  67.220  1.00  0.00    -0.296 C  
HETATM   32  C   UNL     1     -11.052  10.816  68.237  1.00  0.00    -0.327 C  
HETATM   33  C   UNL     1     -10.223  10.636  66.054  1.00  0.00    -0.247 C  
HETATM   34  N   UNL     1     -10.805  11.950  66.243  1.00  0.00    -0.271 N  
HETATM   35  C   UNL     1     -11.376  12.075  67.504  1.00  0.00    -0.319 C  
HETATM   36  O   UNL     1     -12.027  12.995  67.960  1.00  0.00    -0.350 OA 
BRANCH  34  37
HETATM   37  C   UNL     1     -11.048  12.877  65.126  1.00  0.00    -0.292 C  
HETATM   38  C   UNL     1     -12.528  13.044  64.774  1.00  0.00    -0.485 C  
HETATM   39  C   UNL     1     -12.798  11.873  63.847  1.00  0.00    -0.232 C  
HETATM   40  N   UNL     1     -11.576  11.682  63.069  1.00  0.00    -0.829 NA 
HETATM   41  H   UNL     1     -11.681  11.945  62.089  1.00  0.00     0.000 HD 
HETATM   42  C   UNL     1     -10.500  12.427  63.757  1.00  0.00    -0.443 C  
ENDBRANCH  34  37
ENDBRANCH   8  30
TORSDOF 6
ENDMDL
MODEL       42
REMARK 921   NORMALIZED FREE ENERGY PREDICTED BY IDOCK:   -6.22 KCAL/MOL
REMARK 922        TOTAL FREE ENERGY PREDICTED BY IDOCK:   -9.92 KCAL/MOL
REMARK 923 INTER-LIGAND FREE ENERGY PREDICTED BY IDOCK:   -8.24 KCAL/MOL
REMARK 924 INTRA-LIGAND FREE ENERGY PREDICTED BY IDOCK:   -1.69 KCAL/MOL
REMARK 927      BINDING AFFINITY PREDICTED BY RF-SCORE:    0.00 PKD
ROOT
HETATM    1  CA  UNL     1     -11.883  14.511  67.012  1.00  0.00    -0.385 C  
HETATM    2  C   UNL     1     -10.689  10.607  66.748  1.00  0.00    -0.210 C  
HETATM    3  C   UNL     1     -12.142  14.090  68.508  1.00  0.00    -0.294 C  
HETATM    4  O   UNL     1     -12.330  14.597  69.588  1.00  0.00    -0.298 OA 
HETATM    5  O   UNL     1     -12.508  12.486  70.991  1.00  0.00    -0.369 OA 
HETATM    6  OXT UNL     1     -12.647  10.291  70.692  1.00  0.00    -0.313 OA 
HETATM    7  N   UNL     1     -11.923  12.794  68.202  1.00  0.00    -0.308 N  
HETATM    8  C   UNL     1     -11.220  10.547  68.175  1.00  0.00    -0.357 C  
HETATM    9  CA  UNL     1     -11.812  11.584  68.829  1.00  0.00    -0.330 C  
HETATM   10  S   UNL     1     -10.371  12.265  66.111  1.00  0.00    -0.249 SA 
HETATM   11  C   UNL     1     -11.910  12.965  66.759  1.00  0.00    -0.385 C  
HETATM   12  C   UNL     1     -12.349  11.386  70.234  1.00  0.00    -0.297 C  
ENDROOT
BRANCH   1  13
HETATM   13  N   UNL     1     -10.582  15.175  66.728  1.00  0.00    -0.292 N  
HETATM   14  O   UNL     1     -10.995  17.125  67.857  1.00  0.00    -0.343 OA 
HETATM   15  C   UNL     1     -10.238  16.417  67.212  1.00  0.00    -0.278 C  
HETATM   16  H   UNL     1      -9.908  14.683  66.142  1.00  0.00     0.000 HD 
BRANCH  15  17
HETATM   17  C   UNL     1      -8.808  16.868  66.887  1.00  0.00    -0.225 C  
BRANCH  17  18
HETATM   18  N   UNL     1      -8.513  17.971  66.243  1.00  0.00    -0.441 NA 
HETATM   19  H   UNL     1      -7.565  18.197  65.942  1.00  0.00     0.000 HD 
HETATM   20  O   UNL     1      -9.602  18.814  66.001  1.00  0.00    -0.477 OA 
HETATM   21  H   UNL     1      -9.389  19.613  65.534  1.00  0.00     0.000 HD 
ENDBRANCH  17  18
BRANCH  17  22
HETATM   22  C   UNL     1      -7.679  16.043  67.327  1.00  0.00    -0.183 A  
HETATM   23  S   UNL     1      -5.471  15.349  68.050  1.00  0.00    -0.124 SA 
HETATM   24  H1  UNL     1      -7.183  12.109  67.941  1.00  0.00     0.000 HD 
HETATM   25  N   UNL     1      -6.486  16.590  67.598  1.00  0.00    -0.134 NA 
HETATM   26  N   UNL     1      -7.805  14.646  67.429  1.00  0.00    -0.192 NA 
HETATM   27  H2  UNL     1      -5.549  12.536  68.393  1.00  0.00     0.000 HD 
HETATM   28  C   UNL     1      -6.671  14.136  67.835  1.00  0.00    -0.167 A  
HETATM   29  N   UNL     1      -6.470  12.828  68.068  1.00  0.00    -0.085 NA 
ENDBRANCH  17  22
ENDBRANCH  15  17
ENDBRANCH   1  13
BRANCH   8  30
HETATM   30  C   UNL     1     -10.972   9.206  68.719  1.00  0.00    -0.011 C  
HETATM   31  C   UNL     1      -8.790   9.606  70.040  1.00  0.00    -0.259 C  
HETATM   32  C   UNL     1      -9.931   8.832  69.480  1.00  0.00    -0.195 C  
HETATM   33  C   UNL     1      -7.692   8.558  70.109  1.00  0.00    -0.086 C  
HETATM   34  N   UNL     1      -8.360   7.271  70.127  1.00  0.00    -0.135 N  
HETATM   35  C   UNL     1      -9.712   7.399  69.830  1.00  0.00    -0.171 C  
HETATM   36  O   UNL     1     -10.581   6.549  69.851  1.00  0.00    -0.201 OA 
BRANCH  34  37
HETATM   37  C   UNL     1      -7.748   6.069  70.716  1.00  0.00    -0.098 C  
HETATM   38  C   UNL     1      -8.469   5.560  71.966  1.00  0.00    -0.127 C  
HETATM   39  C   UNL     1      -7.866   6.398  73.078  1.00  0.00    -0.105 C  
HETATM   40  N   UNL     1      -6.465   6.605  72.717  1.00  0.00    -0.062 NA 
HETATM   41  H   UNL     1      -5.818   6.093  73.317  1.00  0.00     0.000 HD 
HETATM   42  C   UNL     1      -6.328   6.257  71.287  1.00  0.00    -0.048 C  
ENDBRANCH  34  37
ENDBRANCH   8  30
TORSDOF 6
ENDMDL
MODEL       43
REMARK 921   NORMALIZED FREE ENERGY PREDICTED BY IDOCK:   -6.20 KCAL/MOL
REMARK 922        TOTAL FREE ENERGY PREDICTED BY IDOCK:   -9.90 KCAL/MOL
REMARK 923 INTER-LIGAND FREE ENERGY PREDICTED BY IDOCK:   -8.61 KCAL/MOL
REMARK 924 INTRA-LIGAND FREE ENERGY PREDICTED BY IDOCK:   -1.29 KCAL/MOL
REMARK 927      BINDING AFFINITY PREDICTED BY RF-SCORE:    0.00 PKD
ROOT
HETATM    1  CA  UNL     1     -11.786  11.125  67.711  1.00  0.00    -0.139 C  
HETATM    2  C   UNL     1     -11.515  14.955  69.122  1.00  0.00    -0.302 C  
HETATM    3  C   UNL     1     -11.151  11.795  66.435  1.00  0.00    -0.307 C  
HETATM    4  O   UNL     1     -10.586  11.480  65.414  1.00  0.00    -0.268 OA 
HETATM    5  O   UNL     1     -10.166  13.799  64.465  1.00  0.00    -0.414 OA 
HETATM    6  OXT UNL     1     -10.744  15.902  64.879  1.00  0.00    -0.522 OA 
HETATM    7  N   UNL     1     -11.332  13.022  66.965  1.00  0.00    -0.286 N  
HETATM    8  C   UNL     1     -11.088  15.249  67.688  1.00  0.00    -0.323 C  
HETATM    9  CA  UNL     1     -11.028  14.326  66.689  1.00  0.00    -0.310 C  
HETATM   10  S   UNL     1     -11.426  13.221  69.613  1.00  0.00    -0.146 SA 
HETATM   11  C   UNL     1     -12.162  12.600  68.080  1.00  0.00     0.119 C  
HETATM   12  C   UNL     1     -10.638  14.753  65.287  1.00  0.00    -0.395 C  
ENDROOT
BRANCH   1  13
HETATM   13  N   UNL     1     -10.840  10.461  68.649  1.00  0.00    -0.217 N  
HETATM   14  O   UNL     1     -10.454   8.582  67.396  1.00  0.00    -0.262 OA 
HETATM   15  C   UNL     1     -10.225   9.257  68.387  1.00  0.00    -0.202 C  
HETATM   16  H   UNL     1     -10.636  10.922  69.536  1.00  0.00     0.000 HD 
BRANCH  15  17
HETATM   17  C   UNL     1      -9.205   8.805  69.441  1.00  0.00    -0.146 C  
BRANCH  17  18
HETATM   18  N   UNL     1      -8.059   9.403  69.659  1.00  0.00    -0.110 NA 
HETATM   19  H   UNL     1      -7.165   8.911  69.621  1.00  0.00     0.000 HD 
HETATM   20  O   UNL     1      -8.156  10.768  69.946  1.00  0.00    -0.346 OA 
HETATM   21  H   UNL     1      -7.326  11.200  70.103  1.00  0.00     0.000 HD 
ENDBRANCH  17  18
BRANCH  17  22
HETATM   22  C   UNL     1      -9.512   7.647  70.285  1.00  0.00    -0.161 A  
HETATM   23  S   UNL     1     -10.266   6.275  72.137  1.00  0.00    -0.186 SA 
HETATM   24  H1  UNL     1      -8.951   3.694  69.890  1.00  0.00     0.000 HD 
HETATM   25  N   UNL     1     -10.089   7.798  71.485  1.00  0.00    -0.177 NA 
HETATM   26  N   UNL     1      -9.165   6.346  69.875  1.00  0.00    -0.151 NA 
HETATM   27  H2  UNL     1      -9.718   3.578  71.456  1.00  0.00     0.000 HD 
HETATM   28  C   UNL     1      -9.537   5.489  70.791  1.00  0.00    -0.170 A  
HETATM   29  N   UNL     1      -9.383   4.159  70.688  1.00  0.00    -0.133 NA 
ENDBRANCH  17  22
ENDBRANCH  15  17
ENDBRANCH   1  13
BRANCH   8  30
HETATM   30  C   UNL     1     -10.744  16.672  67.577  1.00  0.00    -0.278 C  
HETATM   31  C   UNL     1      -8.171  16.573  67.779  1.00  0.00    -0.173 C  
HETATM   32  C   UNL     1      -9.513  17.204  67.643  1.00  0.00    -0.241 C  
HETATM   33  C   UNL     1      -7.384  17.645  68.513  1.00  0.00    -0.256 C  
HETATM   34  N   UNL     1      -8.074  18.896  68.267  1.00  0.00    -0.307 N  
HETATM   35  C   UNL     1      -9.316  18.682  67.680  1.00  0.00    -0.288 C  
HETATM   36  O   UNL     1     -10.110  19.499  67.255  1.00  0.00    -0.355 OA 
BRANCH  34  37
HETATM   37  C   UNL     1      -7.394  20.200  68.319  1.00  0.00    -0.219 C  
HETATM   38  C   UNL     1      -7.314  20.909  66.965  1.00  0.00    -0.325 C  
HETATM   39  C   UNL     1      -6.077  20.302  66.329  1.00  0.00    -0.182 C  
HETATM   40  N   UNL     1      -5.133  20.069  67.419  1.00  0.00    -0.165 NA 
HETATM   41  H   UNL     1      -4.329  20.696  67.393  1.00  0.00     0.000 HD 
HETATM   42  C   UNL     1      -5.896  20.155  68.682  1.00  0.00    -0.262 C  
ENDBRANCH  34  37
ENDBRANCH   8  30
TORSDOF 6
ENDMDL
MODEL       44
REMARK 921   NORMALIZED FREE ENERGY PREDICTED BY IDOCK:   -6.19 KCAL/MOL
REMARK 922        TOTAL FREE ENERGY PREDICTED BY IDOCK:   -9.88 KCAL/MOL
REMARK 923 INTER-LIGAND FREE ENERGY PREDICTED BY IDOCK:   -8.51 KCAL/MOL
REMARK 924 INTRA-LIGAND FREE ENERGY PREDICTED BY IDOCK:   -1.37 KCAL/MOL
REMARK 927      BINDING AFFINITY PREDICTED BY RF-SCORE:    0.00 PKD
ROOT
HETATM    1  CA  UNL     1     -11.796  10.101  69.101  1.00  0.00     0.130 C  
HETATM    2  C   UNL     1     -12.246  14.133  69.628  1.00  0.00    -0.326 C  
HETATM    3  C   UNL     1     -10.945  10.590  67.870  1.00  0.00    -0.295 C  
HETATM    4  O   UNL     1     -10.125  10.165  67.090  1.00  0.00    -0.189 OA 
HETATM    5  O   UNL     1      -9.720  12.285  65.749  1.00  0.00    -0.247 OA 
HETATM    6  OXT UNL     1     -10.583  14.319  65.543  1.00  0.00    -0.306 OA 
HETATM    7  N   UNL     1     -11.366  11.857  68.056  1.00  0.00    -0.264 N  
HETATM    8  C   UNL     1     -11.522  14.195  68.289  1.00  0.00    -0.335 C  
HETATM    9  CA  UNL     1     -11.135  13.111  67.562  1.00  0.00    -0.271 C  
HETATM   10  S   UNL     1     -12.108  12.564  70.509  1.00  0.00    -0.147 SA 
HETATM   11  C   UNL     1     -12.393  11.548  69.036  1.00  0.00     0.062 C  
HETATM   12  C   UNL     1     -10.466  13.303  66.214  1.00  0.00    -0.287 C  
ENDROOT
BRANCH   1  13
HETATM   13  N   UNL     1     -11.041   9.783  70.343  1.00  0.00    -0.283 N  
HETATM   14  O   UNL     1     -11.419   7.524  70.348  1.00  0.00    -0.269 OA 
HETATM   15  C   UNL     1     -10.887   8.508  70.838  1.00  0.00    -0.232 C  
HETATM   16  H   UNL     1     -10.614  10.553  70.858  1.00  0.00     0.000 HD 
BRANCH  15  17
HETATM   17  C   UNL     1      -9.981   8.393  72.071  1.00  0.00    -0.284 C  
BRANCH  17  18
HETATM   18  N   UNL     1     -10.404   8.049  73.264  1.00  0.00    -0.218 NA 
HETATM   19  H   UNL     1      -9.792   8.029  74.080  1.00  0.00     0.000 HD 
HETATM   20  O   UNL     1     -11.759   7.712  73.328  1.00  0.00    -0.649 OA 
HETATM   21  H   UNL     1     -12.064   7.462  74.193  1.00  0.00     0.000 HD 
ENDBRANCH  17  18
BRANCH  17  22
HETATM   22  C   UNL     1      -8.547   8.663  71.934  1.00  0.00    -0.162 A  
HETATM   23  S   UNL     1      -6.353   9.056  70.979  1.00  0.00    -0.067 SA 
HETATM   24  H1  UNL     1      -5.556   9.195  74.555  1.00  0.00     0.000 HD 
HETATM   25  N   UNL     1      -7.973   8.758  70.727  1.00  0.00    -0.112 NA 
HETATM   26  N   UNL     1      -7.726   8.782  73.070  1.00  0.00    -0.372 NA 
HETATM   27  H2  UNL     1      -4.552   9.405  73.140  1.00  0.00     0.000 HD 
HETATM   28  C   UNL     1      -6.496   9.018  72.693  1.00  0.00     0.165 A  
HETATM   29  N   UNL     1      -5.471   9.218  73.539  1.00  0.00    -0.209 NA 
ENDBRANCH  17  22
ENDBRANCH  15  17
ENDBRANCH   1  13
BRANCH   8  30
HETATM   30  C   UNL     1     -11.302  15.602  67.933  1.00  0.00    -0.302 C  
HETATM   31  C   UNL     1      -8.768  15.833  68.376  1.00  0.00    -0.177 C  
HETATM   32  C   UNL     1     -10.140  16.272  68.001  1.00  0.00    -0.245 C  
HETATM   33  C   UNL     1      -8.169  17.104  68.953  1.00  0.00    -0.192 C  
HETATM   34  N   UNL     1      -8.942  18.202  68.406  1.00  0.00    -0.289 N  
HETATM   35  C   UNL     1     -10.088  17.744  67.766  1.00  0.00    -0.345 C  
HETATM   36  O   UNL     1     -10.904  18.374  67.121  1.00  0.00    -0.373 OA 
BRANCH  34  37
HETATM   37  C   UNL     1      -8.396  19.561  68.263  1.00  0.00    -0.340 C  
HETATM   38  C   UNL     1      -8.104  19.958  66.814  1.00  0.00    -0.349 C  
HETATM   39  C   UNL     1      -6.719  19.388  66.572  1.00  0.00    -0.190 C  
HETATM   40  N   UNL     1      -5.998  19.523  67.836  1.00  0.00    -0.207 NA 
HETATM   41  H   UNL     1      -5.260  20.227  67.802  1.00  0.00     0.000 HD 
HETATM   42  C   UNL     1      -7.004  19.788  68.885  1.00  0.00    -0.332 C  
ENDBRANCH  34  37
ENDBRANCH   8  30
TORSDOF 6
ENDMDL
MODEL       45
REMARK 921   NORMALIZED FREE ENERGY PREDICTED BY IDOCK:   -6.17 KCAL/MOL
REMARK 922        TOTAL FREE ENERGY PREDICTED BY IDOCK:   -9.86 KCAL/MOL
REMARK 923 INTER-LIGAND FREE ENERGY PREDICTED BY IDOCK:   -8.58 KCAL/MOL
REMARK 924 INTRA-LIGAND FREE ENERGY PREDICTED BY IDOCK:   -1.28 KCAL/MOL
REMARK 927      BINDING AFFINITY PREDICTED BY RF-SCORE:    0.00 PKD
ROOT
HETATM    1  CA  UNL     1     -11.416  13.603  66.799  1.00  0.00    -0.346 C  
HETATM    2  C   UNL     1      -9.202  10.289  67.726  1.00  0.00    -0.141 C  
HETATM    3  C   UNL     1     -11.908  13.405  68.282  1.00  0.00    -0.358 C  
HETATM    4  O   UNL     1     -12.479  14.019  69.153  1.00  0.00    -0.238 OA 
HETATM    5  O   UNL     1     -12.426  12.254  70.981  1.00  0.00    -0.370 OA 
HETATM    6  OXT UNL     1     -11.901  10.110  71.215  1.00  0.00    -0.359 OA 
HETATM    7  N   UNL     1     -11.287  12.210  68.350  1.00  0.00    -0.260 N  
HETATM    8  C   UNL     1     -10.028  10.331  69.006  1.00  0.00    -0.223 C  
HETATM    9  CA  UNL     1     -11.014  11.233  69.268  1.00  0.00    -0.243 C  
HETATM   10  S   UNL     1      -9.191  11.816  66.764  1.00  0.00    -0.198 SA 
HETATM   11  C   UNL     1     -10.970  12.107  66.937  1.00  0.00    -0.270 C  
HETATM   12  C   UNL     1     -11.802  11.139  70.560  1.00  0.00    -0.351 C  
ENDROOT
BRANCH   1  13
HETATM   13  N   UNL     1     -10.309  14.576  66.594  1.00  0.00    -0.270 N  
HETATM   14  O   UNL     1     -11.444  16.455  67.248  1.00  0.00     0.119 OA 
HETATM   15  C   UNL     1     -10.412  15.919  66.876  1.00  0.00    -0.309 C  
HETATM   16  H   UNL     1      -9.424  14.229  66.224  1.00  0.00     0.000 HD 
BRANCH  15  17
HETATM   17  C   UNL     1      -9.118  16.724  66.692  1.00  0.00    -0.249 C  
BRANCH  17  18
HETATM   18  N   UNL     1      -9.000  17.751  65.886  1.00  0.00    -0.506 NA 
HETATM   19  H   UNL     1      -9.794  18.156  65.389  1.00  0.00     0.000 HD 
HETATM   20  O   UNL     1      -7.699  18.249  65.762  1.00  0.00    -0.517 OA 
HETATM   21  H   UNL     1      -7.614  18.994  65.178  1.00  0.00     0.000 HD 
ENDBRANCH  17  18
BRANCH  17  22
HETATM   22  C   UNL     1      -7.929  16.354  67.465  1.00  0.00    -0.152 A  
HETATM   23  S   UNL     1      -5.922  15.215  68.209  1.00  0.00    -0.134 SA 
HETATM   24  H1  UNL     1      -6.251  17.759  70.828  1.00  0.00     0.000 HD 
HETATM   25  N   UNL     1      -7.152  15.329  67.091  1.00  0.00    -0.218 NA 
HETATM   26  N   UNL     1      -7.599  17.038  68.649  1.00  0.00    -0.228 NA 
HETATM   27  H2  UNL     1      -5.049  16.517  70.571  1.00  0.00     0.000 HD 
HETATM   28  C   UNL     1      -6.506  16.528  69.155  1.00  0.00    -0.193 A  
HETATM   29  N   UNL     1      -5.905  16.980  70.268  1.00  0.00    -0.185 NA 
ENDBRANCH  17  22
ENDBRANCH  15  17
ENDBRANCH   1  13
BRANCH   8  30
HETATM   30  C   UNL     1      -9.573   9.259  69.900  1.00  0.00    -0.217 C  
HETATM   31  C   UNL     1     -11.057   7.298  69.111  1.00  0.00    -0.023 C  
HETATM   32  C   UNL     1     -10.039   8.000  69.940  1.00  0.00    -0.198 C  
HETATM   33  C   UNL     1     -11.615   6.273  70.085  1.00  0.00    -0.315 C  
HETATM   34  N   UNL     1     -10.601   6.090  71.105  1.00  0.00    -0.236 N  
HETATM   35  C   UNL     1      -9.604   7.054  71.008  1.00  0.00    -0.170 C  
HETATM   36  O   UNL     1      -8.565   7.143  71.632  1.00  0.00    -0.115 OA 
BRANCH  34  37
HETATM   37  C   UNL     1     -10.487   4.853  71.895  1.00  0.00    -0.163 C  
HETATM   38  C   UNL     1     -11.260   4.892  73.215  1.00  0.00    -0.423 C  
HETATM   39  C   UNL     1     -10.290   5.574  74.164  1.00  0.00    -0.279 C  
HETATM   40  N   UNL     1      -8.956   5.126  73.771  1.00  0.00    -0.117 NA 
HETATM   41  H   UNL     1      -8.529   4.497  74.451  1.00  0.00     0.000 HD 
HETATM   42  C   UNL     1      -9.075   4.530  72.424  1.00  0.00    -0.124 C  
ENDBRANCH  34  37
ENDBRANCH   8  30
TORSDOF 6
ENDMDL
MODEL       46
REMARK 921   NORMALIZED FREE ENERGY PREDICTED BY IDOCK:   -6.15 KCAL/MOL
REMARK 922        TOTAL FREE ENERGY PREDICTED BY IDOCK:   -9.83 KCAL/MOL
REMARK 923 INTER-LIGAND FREE ENERGY PREDICTED BY IDOCK:   -8.57 KCAL/MOL
REMARK 924 INTRA-LIGAND FREE ENERGY PREDICTED BY IDOCK:   -1.26 KCAL/MOL
REMARK 927      BINDING AFFINITY PREDICTED BY RF-SCORE:    0.00 PKD
ROOT
HETATM    1  CA  UNL     1      -9.451   7.654  71.996  1.00  0.00    -0.153 C  
HETATM    2  C   UNL     1      -9.308  10.391  68.959  1.00  0.00    -0.194 C  
HETATM    3  C   UNL     1     -10.877   8.292  72.196  1.00  0.00    -0.320 C  
HETATM    4  O   UNL     1     -11.923   8.056  72.753  1.00  0.00    -0.337 OA 
HETATM    5  O   UNL     1     -13.238  10.099  72.011  1.00  0.00    -0.443 OA 
HETATM    6  OXT UNL     1     -12.879  12.028  70.974  1.00  0.00    -0.294 OA 
HETATM    7  N   UNL     1     -10.586   9.268  71.311  1.00  0.00    -0.326 N  
HETATM    8  C   UNL     1     -10.630  10.848  69.565  1.00  0.00    -0.217 C  
HETATM    9  CA  UNL     1     -11.200  10.315  70.681  1.00  0.00    -0.325 C  
HETATM   10  S   UNL     1      -8.762   8.743  69.450  1.00  0.00    -0.144 SA 
HETATM   11  C   UNL     1      -9.168   8.973  71.200  1.00  0.00    -0.256 C  
HETATM   12  C   UNL     1     -12.496  10.892  71.218  1.00  0.00    -0.388 C  
ENDROOT
BRANCH   1  13
HETATM   13  N   UNL     1      -9.393   6.404  71.190  1.00  0.00    -0.160 N  
HETATM   14  O   UNL     1     -10.279   4.997  72.766  1.00  0.00    -0.168 OA 
HETATM   15  C   UNL     1      -9.851   5.186  71.638  1.00  0.00    -0.173 C  
HETATM   16  H   UNL     1      -8.990   6.453  70.254  1.00  0.00     0.000 HD 
BRANCH  15  17
HETATM   17  C   UNL     1      -9.794   4.051  70.607  1.00  0.00    -0.158 C  
BRANCH  17  18
HETATM   18  N   UNL     1      -9.681   2.782  70.916  1.00  0.00    -0.125 NA 
HETATM   19  H   UNL     1     -10.195   2.048  70.428  1.00  0.00     0.000 HD 
HETATM   20  O   UNL     1      -8.799   2.514  71.967  1.00  0.00    -0.071 OA 
HETATM   21  H   UNL     1      -8.717   1.594  72.191  1.00  0.00     0.000 HD 
ENDBRANCH  17  18
BRANCH  17  22
HETATM   22  C   UNL     1      -9.886   4.373  69.180  1.00  0.00    -0.128 A  
HETATM   23  S   UNL     1      -9.598   4.300  66.773  1.00  0.00    -0.212 SA 
HETATM   24  H1  UNL     1     -11.666   7.309  67.103  1.00  0.00     0.000 HD 
HETATM   25  N   UNL     1      -9.273   3.618  68.259  1.00  0.00    -0.150 NA 
HETATM   26  N   UNL     1     -10.583   5.515  68.744  1.00  0.00    -0.197 NA 
HETATM   27  H2  UNL     1     -11.016   6.504  65.694  1.00  0.00     0.000 HD 
HETATM   28  C   UNL     1     -10.522   5.589  67.439  1.00  0.00    -0.219 A  
HETATM   29  N   UNL     1     -11.118   6.545  66.708  1.00  0.00    -0.293 NA 
ENDBRANCH  17  22
ENDBRANCH  15  17
ENDBRANCH   1  13
BRANCH   8  30
HETATM   30  C   UNL     1     -11.181  11.932  68.742  1.00  0.00    -0.314 C  
HETATM   31  C   UNL     1      -9.214  13.605  68.753  1.00  0.00     0.046 C  
HETATM   32  C   UNL     1     -10.574  13.090  68.436  1.00  0.00    -0.264 C  
HETATM   33  C   UNL     1      -9.441  15.107  68.798  1.00  0.00    -0.209 C  
HETATM   34  N   UNL     1     -10.642  15.359  68.027  1.00  0.00    -0.257 N  
HETATM   35  C   UNL     1     -11.308  14.177  67.726  1.00  0.00    -0.306 C  
HETATM   36  O   UNL     1     -12.286  14.010  67.022  1.00  0.00    -0.430 OA 
BRANCH  34  37
HETATM   37  C   UNL     1     -10.909  16.652  67.376  1.00  0.00    -0.186 C  
HETATM   38  C   UNL     1     -10.328  16.763  65.965  1.00  0.00    -0.346 C  
HETATM   39  C   UNL     1      -8.895  17.196  66.213  1.00  0.00    -0.231 C  
HETATM   40  N   UNL     1      -8.934  18.080  67.377  1.00  0.00    -0.244 NA 
HETATM   41  H   UNL     1      -8.750  19.056  67.144  1.00  0.00     0.000 HD 
HETATM   42  C   UNL     1     -10.243  17.878  68.033  1.00  0.00    -0.376 C  
ENDBRANCH  34  37
ENDBRANCH   8  30
TORSDOF 6
ENDMDL
MODEL       47
REMARK 921   NORMALIZED FREE ENERGY PREDICTED BY IDOCK:   -6.15 KCAL/MOL
REMARK 922        TOTAL FREE ENERGY PREDICTED BY IDOCK:   -9.83 KCAL/MOL
REMARK 923 INTER-LIGAND FREE ENERGY PREDICTED BY IDOCK:   -8.50 KCAL/MOL
REMARK 924 INTRA-LIGAND FREE ENERGY PREDICTED BY IDOCK:   -1.33 KCAL/MOL
REMARK 927      BINDING AFFINITY PREDICTED BY RF-SCORE:    0.00 PKD
ROOT
HETATM    1  CA  UNL     1     -11.249  15.693  67.494  1.00  0.00    -0.245 C  
HETATM    2  C   UNL     1     -10.736  11.647  67.175  1.00  0.00    -0.247 C  
HETATM    3  C   UNL     1     -11.652  15.294  68.964  1.00  0.00    -0.343 C  
HETATM    4  O   UNL     1     -11.803  15.805  70.048  1.00  0.00    -0.344 OA 
HETATM    5  O   UNL     1     -12.414  13.730  71.381  1.00  0.00    -0.351 OA 
HETATM    6  OXT UNL     1     -12.915  11.599  71.014  1.00  0.00    -0.273 OA 
HETATM    7  N   UNL     1     -11.645  13.987  68.632  1.00  0.00    -0.302 N  
HETATM    8  C   UNL     1     -11.340  11.653  68.574  1.00  0.00    -0.332 C  
HETATM    9  CA  UNL     1     -11.776  12.764  69.229  1.00  0.00    -0.319 C  
HETATM   10  S   UNL     1     -10.104  13.237  66.601  1.00  0.00    -0.272 SA 
HETATM   11  C   UNL     1     -11.530  14.181  67.197  1.00  0.00    -0.353 C  
HETATM   12  C   UNL     1     -12.409  12.634  70.602  1.00  0.00    -0.290 C  
ENDROOT
BRANCH   1  13
HETATM   13  N   UNL     1      -9.840  16.127  67.289  1.00  0.00    -0.238 N  
HETATM   14  O   UNL     1     -10.271  17.853  65.846  1.00  0.00    -0.530 OA 
HETATM   15  C   UNL     1      -9.479  17.200  66.507  1.00  0.00    -0.273 C  
HETATM   16  H   UNL     1      -9.101  15.599  67.753  1.00  0.00     0.000 HD 
BRANCH  15  17
HETATM   17  C   UNL     1      -7.982  17.539  66.519  1.00  0.00    -0.274 C  
BRANCH  17  18
HETATM   18  N   UNL     1      -7.235  17.604  65.444  1.00  0.00    -0.115 NA 
HETATM   19  H   UNL     1      -7.619  17.535  64.501  1.00  0.00     0.000 HD 
HETATM   20  O   UNL     1      -5.869  17.777  65.691  1.00  0.00    -0.166 OA 
HETATM   21  H   UNL     1      -5.328  17.824  64.912  1.00  0.00     0.000 HD 
ENDBRANCH  17  18
BRANCH  17  22
HETATM   22  C   UNL     1      -7.323  17.828  67.796  1.00  0.00    -0.202 A  
HETATM   23  S   UNL     1      -6.164  17.557  69.909  1.00  0.00    -0.008 SA 
HETATM   24  H1  UNL     1      -6.630  21.193  69.869  1.00  0.00     0.000 HD 
HETATM   25  N   UNL     1      -6.812  16.844  68.549  1.00  0.00    -0.164 NA 
HETATM   26  N   UNL     1      -7.252  19.144  68.288  1.00  0.00    -0.261 NA 
HETATM   27  H2  UNL     1      -5.852  20.142  71.029  1.00  0.00     0.000 HD 
HETATM   28  C   UNL     1      -6.624  19.145  69.435  1.00  0.00    -0.298 A  
HETATM   29  N   UNL     1      -6.358  20.251  70.150  1.00  0.00    -0.360 NA 
ENDBRANCH  17  22
ENDBRANCH  15  17
ENDBRANCH   1  13
BRANCH   8  30
HETATM   30  C   UNL     1     -11.356  10.279  69.091  1.00  0.00    -0.244 C  
HETATM   31  C   UNL     1      -8.975  10.096  70.074  1.00  0.00    -0.015 C  
HETATM   32  C   UNL     1     -10.340   9.641  69.695  1.00  0.00    -0.245 C  
HETATM   33  C   UNL     1      -8.172   8.808  69.994  1.00  0.00    -0.120 C  
HETATM   34  N   UNL     1      -9.127   7.726  70.123  1.00  0.00    -0.152 N  
HETATM   35  C   UNL     1     -10.434   8.189  70.026  1.00  0.00    -0.231 C  
HETATM   36  O   UNL     1     -11.474   7.579  70.183  1.00  0.00    -0.215 OA 
BRANCH  34  37
HETATM   37  C   UNL     1      -8.753   6.395  70.630  1.00  0.00    -0.144 C  
HETATM   38  C   UNL     1      -7.765   5.650  69.730  1.00  0.00    -0.079 C  
HETATM   39  C   UNL     1      -8.664   4.992  68.699  1.00  0.00    -0.093 C  
HETATM   40  N   UNL     1      -9.887   4.619  69.406  1.00  0.00    -0.206 NA 
HETATM   41  H   UNL     1      -9.988   3.611  69.526  1.00  0.00     0.000 HD 
HETATM   42  C   UNL     1      -9.893   5.359  70.685  1.00  0.00    -0.191 C  
ENDBRANCH  34  37
ENDBRANCH   8  30
TORSDOF 6
ENDMDL
MODEL       48
REMARK 921   NORMALIZED FREE ENERGY PREDICTED BY IDOCK:   -6.12 KCAL/MOL
REMARK 922        TOTAL FREE ENERGY PREDICTED BY IDOCK:   -9.78 KCAL/MOL
REMARK 923 INTER-LIGAND FREE ENERGY PREDICTED BY IDOCK:   -8.20 KCAL/MOL
REMARK 924 INTRA-LIGAND FREE ENERGY PREDICTED BY IDOCK:   -1.59 KCAL/MOL
REMARK 927      BINDING AFFINITY PREDICTED BY RF-SCORE:    0.00 PKD
ROOT
HETATM    1  CA  UNL     1     -10.636   9.732  66.908  1.00  0.00    -0.173 C  
HETATM    2  C   UNL     1     -10.989  13.393  68.699  1.00  0.00    -0.260 C  
HETATM    3  C   UNL     1     -10.369  10.633  65.644  1.00  0.00    -0.216 C  
HETATM    4  O   UNL     1      -9.915  10.542  64.528  1.00  0.00    -0.314 OA 
HETATM    5  O   UNL     1     -10.162  12.965  63.802  1.00  0.00    -0.378 OA 
HETATM    6  OXT UNL     1     -11.112  14.835  64.528  1.00  0.00    -0.336 OA 
HETATM    7  N   UNL     1     -10.728  11.737  66.330  1.00  0.00    -0.260 N  
HETATM    8  C   UNL     1     -10.865  13.894  67.265  1.00  0.00    -0.292 C  
HETATM    9  CA  UNL     1     -10.762  13.095  66.168  1.00  0.00    -0.278 C  
HETATM   10  S   UNL     1     -10.450  11.693  68.973  1.00  0.00    -0.065 SA 
HETATM   11  C   UNL     1     -11.263  11.045  67.490  1.00  0.00    -0.302 C  
HETATM   12  C   UNL     1     -10.696  13.713  64.784  1.00  0.00    -0.410 C  
ENDROOT
BRANCH   1  13
HETATM   13  N   UNL     1      -9.435   9.231  67.629  1.00  0.00    -0.131 N  
HETATM   14  O   UNL     1      -8.887   7.559  66.162  1.00  0.00    -0.152 OA 
HETATM   15  C   UNL     1      -8.640   8.207  67.168  1.00  0.00    -0.124 C  
HETATM   16  H   UNL     1      -9.186   9.672  68.515  1.00  0.00     0.000 HD 
BRANCH  15  17
HETATM   17  C   UNL     1      -7.391   7.921  68.013  1.00  0.00    -0.096 C  
BRANCH  17  18
HETATM   18  N   UNL     1      -6.165   7.972  67.552  1.00  0.00    -0.050 NA 
HETATM   19  H   UNL     1      -5.451   8.583  67.951  1.00  0.00     0.000 HD 
HETATM   20  O   UNL     1      -5.912   7.123  66.471  1.00  0.00    -0.033 OA 
HETATM   21  H   UNL     1      -5.023   7.160  66.137  1.00  0.00     0.000 HD 
ENDBRANCH  17  18
BRANCH  17  22
HETATM   22  C   UNL     1      -7.547   7.585  69.431  1.00  0.00    -0.092 A  
HETATM   23  S   UNL     1      -7.570   6.360  71.524  1.00  0.00    -0.099 SA 
HETATM   24  H1  UNL     1      -8.803   9.623  72.650  1.00  0.00     0.000 HD 
HETATM   25  N   UNL     1      -7.262   6.357  69.886  1.00  0.00    -0.072 NA 
HETATM   26  N   UNL     1      -8.046   8.531  70.344  1.00  0.00    -0.102 NA 
HETATM   27  H2  UNL     1      -8.483   8.146  73.527  1.00  0.00     0.000 HD 
HETATM   28  C   UNL     1      -8.095   7.998  71.538  1.00  0.00    -0.110 A  
HETATM   29  N   UNL     1      -8.493   8.652  72.642  1.00  0.00    -0.411 NA 
ENDBRANCH  17  22
ENDBRANCH  15  17
ENDBRANCH   1  13
BRANCH   8  30
HETATM   30  C   UNL     1     -10.860  15.362  67.273  1.00  0.00    -0.316 C  
HETATM   31  C   UNL     1      -8.347  15.843  67.623  1.00  0.00    -0.165 C  
HETATM   32  C   UNL     1      -9.792  16.156  67.449  1.00  0.00    -0.238 C  
HETATM   33  C   UNL     1      -7.866  17.006  68.476  1.00  0.00    -0.251 C  
HETATM   34  N   UNL     1      -8.819  18.079  68.274  1.00  0.00    -0.279 N  
HETATM   35  C   UNL     1      -9.949  17.632  67.599  1.00  0.00    -0.323 C  
HETATM   36  O   UNL     1     -10.894  18.275  67.184  1.00  0.00    -0.351 OA 
BRANCH  34  37
HETATM   37  C   UNL     1      -8.466  19.497  68.457  1.00  0.00    -0.338 C  
HETATM   38  C   UNL     1      -8.465  20.304  67.157  1.00  0.00    -0.407 C  
HETATM   39  C   UNL     1      -7.082  20.045  66.590  1.00  0.00    -0.240 C  
HETATM   40  N   UNL     1      -6.183  19.952  67.739  1.00  0.00    -0.203 NA 
HETATM   41  H   UNL     1      -5.548  20.747  67.815  1.00  0.00     0.000 HD 
HETATM   42  C   UNL     1      -7.027  19.767  68.938  1.00  0.00    -0.332 C  
ENDBRANCH  34  37
ENDBRANCH   8  30
TORSDOF 6
ENDMDL
MODEL       49
REMARK 921   NORMALIZED FREE ENERGY PREDICTED BY IDOCK:   -6.11 KCAL/MOL
REMARK 922        TOTAL FREE ENERGY PREDICTED BY IDOCK:   -9.78 KCAL/MOL
REMARK 923 INTER-LIGAND FREE ENERGY PREDICTED BY IDOCK:   -8.69 KCAL/MOL
REMARK 924 INTRA-LIGAND FREE ENERGY PREDICTED BY IDOCK:   -1.09 KCAL/MOL
REMARK 927      BINDING AFFINITY PREDICTED BY RF-SCORE:    0.00 PKD
ROOT
HETATM    1  CA  UNL     1     -11.494  14.153  67.010  1.00  0.00    -0.352 C  
HETATM    2  C   UNL     1     -10.336  10.230  66.915  1.00  0.00    -0.239 C  
HETATM    3  C   UNL     1     -11.945  13.745  68.463  1.00  0.00    -0.367 C  
HETATM    4  O   UNL     1     -12.258  14.262  69.509  1.00  0.00    -0.323 OA 
HETATM    5  O   UNL     1     -12.642  12.163  70.889  1.00  0.00    -0.336 OA 
HETATM    6  OXT UNL     1     -12.776   9.968  70.585  1.00  0.00    -0.282 OA 
HETATM    7  N   UNL     1     -11.709  12.445  68.193  1.00  0.00    -0.341 N  
HETATM    8  C   UNL     1     -11.042  10.188  68.265  1.00  0.00    -0.285 C  
HETATM    9  CA  UNL     1     -11.695  11.237  68.835  1.00  0.00    -0.341 C  
HETATM   10  S   UNL     1      -9.916  11.879  66.315  1.00  0.00    -0.227 SA 
HETATM   11  C   UNL     1     -11.513  12.605  66.763  1.00  0.00    -0.351 C  
HETATM   12  C   UNL     1     -12.406  11.056  70.163  1.00  0.00    -0.311 C  
ENDROOT
BRANCH   1  13
HETATM   13  N   UNL     1     -10.158  14.796  66.887  1.00  0.00    -0.243 N  
HETATM   14  O   UNL     1     -10.791  16.532  65.532  1.00  0.00    -0.298 OA 
HETATM   15  C   UNL     1      -9.933  15.958  66.185  1.00  0.00    -0.314 C  
HETATM   16  H   UNL     1      -9.365  14.351  67.349  1.00  0.00     0.000 HD 
BRANCH  15  17
HETATM   17  C   UNL     1      -8.503  16.507  66.277  1.00  0.00    -0.328 C  
BRANCH  17  18
HETATM   18  N   UNL     1      -7.426  15.758  66.261  1.00  0.00    -0.027 NA 
HETATM   19  H   UNL     1      -7.237  15.081  65.522  1.00  0.00     0.000 HD 
HETATM   20  O   UNL     1      -6.558  15.962  67.338  1.00  0.00    -0.165 OA 
HETATM   21  H   UNL     1      -5.778  15.420  67.326  1.00  0.00     0.000 HD 
ENDBRANCH  17  18
BRANCH  17  22
HETATM   22  C   UNL     1      -8.295  17.954  66.372  1.00  0.00    -0.242 A  
HETATM   23  S   UNL     1      -8.490  20.275  67.047  1.00  0.00    -0.290 SA 
HETATM   24  H1  UNL     1      -5.940  20.558  64.429  1.00  0.00     0.000 HD 
HETATM   25  N   UNL     1      -8.993  18.698  67.241  1.00  0.00    -0.271 NA 
HETATM   26  N   UNL     1      -7.390  18.609  65.516  1.00  0.00    -0.509 NA 
HETATM   27  H2  UNL     1      -6.662  21.761  65.472  1.00  0.00     0.000 HD 
HETATM   28  C   UNL     1      -7.383  19.888  65.790  1.00  0.00    -0.321 A  
HETATM   29  N   UNL     1      -6.597  20.788  65.175  1.00  0.00    -0.215 NA 
ENDBRANCH  17  22
ENDBRANCH  15  17
ENDBRANCH   1  13
BRANCH   8  30
HETATM   30  C   UNL     1     -10.885   8.847  68.842  1.00  0.00    -0.052 C  
HETATM   31  C   UNL     1      -8.962   9.254  70.517  1.00  0.00    -0.296 C  
HETATM   32  C   UNL     1      -9.987   8.476  69.768  1.00  0.00    -0.191 C  
HETATM   33  C   UNL     1      -7.887   8.210  70.771  1.00  0.00    -0.089 C  
HETATM   34  N   UNL     1      -8.542   6.921  70.673  1.00  0.00    -0.140 N  
HETATM   35  C   UNL     1      -9.824   7.043  70.150  1.00  0.00    -0.175 C  
HETATM   36  O   UNL     1     -10.680   6.189  70.021  1.00  0.00    -0.246 OA 
BRANCH  34  37
HETATM   37  C   UNL     1      -8.034   5.720  71.356  1.00  0.00    -0.113 C  
HETATM   38  C   UNL     1      -8.919   5.249  72.512  1.00  0.00    -0.134 C  
HETATM   39  C   UNL     1      -8.447   6.098  73.678  1.00  0.00    -0.121 C  
HETATM   40  N   UNL     1      -7.008   6.274  73.496  1.00  0.00    -0.079 NA 
HETATM   41  H   UNL     1      -6.453   5.763  74.183  1.00  0.00     0.000 HD 
HETATM   42  C   UNL     1      -6.696   5.895  72.102  1.00  0.00    -0.071 C  
ENDBRANCH  34  37
ENDBRANCH   8  30
TORSDOF 6
ENDMDL
MODEL       50
REMARK 921   NORMALIZED FREE ENERGY PREDICTED BY IDOCK:   -6.03 KCAL/MOL
REMARK 922        TOTAL FREE ENERGY PREDICTED BY IDOCK:   -9.67 KCAL/MOL
REMARK 923 INTER-LIGAND FREE ENERGY PREDICTED BY IDOCK:   -8.88 KCAL/MOL
REMARK 924 INTRA-LIGAND FREE ENERGY PREDICTED BY IDOCK:   -0.79 KCAL/MOL
REMARK 927      BINDING AFFINITY PREDICTED BY RF-SCORE:    0.00 PKD
ROOT
HETATM    1  CA  UNL     1      -9.578  13.373  68.227  1.00  0.00    -0.220 C  
HETATM    2  C   UNL     1     -10.405   9.938  66.165  1.00  0.00    -0.153 C  
HETATM    3  C   UNL     1      -8.220  12.618  68.485  1.00  0.00    -0.074 C  
HETATM    4  O   UNL     1      -7.093  12.849  68.856  1.00  0.00    -0.097 OA 
HETATM    5  O   UNL     1      -6.121  10.511  68.647  1.00  0.00    -0.044 OA 
HETATM    6  OXT UNL     1      -6.823   8.440  68.265  1.00  0.00    -0.063 OA 
HETATM    7  N   UNL     1      -8.728  11.485  67.959  1.00  0.00    -0.145 N  
HETATM    8  C   UNL     1      -9.079   9.485  66.765  1.00  0.00    -0.173 C  
HETATM    9  CA  UNL     1      -8.319  10.224  67.620  1.00  0.00    -0.114 C  
HETATM   10  S   UNL     1     -10.695  11.719  66.187  1.00  0.00    -0.286 SA 
HETATM   11  C   UNL     1     -10.106  11.938  67.886  1.00  0.00    -0.192 C  
HETATM   12  C   UNL     1      -7.041   9.641  68.192  1.00  0.00    -0.079 C  
ENDROOT
BRANCH   1  13
HETATM   13  N   UNL     1      -9.592  14.338  67.094  1.00  0.00    -0.238 N  
HETATM   14  O   UNL     1     -11.545  15.404  67.641  1.00  0.00    -0.305 OA 
HETATM   15  C   UNL     1     -10.562  15.299  66.923  1.00  0.00    -0.304 C  
HETATM   16  H   UNL     1      -8.842  14.283  66.404  1.00  0.00     0.000 HD 
BRANCH  15  17
HETATM   17  C   UNL     1     -10.328  16.258  65.748  1.00  0.00    -0.374 C  
BRANCH  17  18
HETATM   18  N   UNL     1     -10.507  15.936  64.490  1.00  0.00    -0.592 NA 
HETATM   19  H   UNL     1      -9.914  15.263  64.004  1.00  0.00     0.000 HD 
HETATM   20  O   UNL     1     -11.574  16.589  63.866  1.00  0.00    -1.598 OA 
HETATM   21  H   UNL     1     -11.703  16.356  62.954  1.00  0.00     0.000 HD 
ENDBRANCH  17  18
BRANCH  17  22
HETATM   22  C   UNL     1      -9.893  17.631  66.020  1.00  0.00    -0.170 A  
HETATM   23  S   UNL     1      -9.918  20.007  66.507  1.00  0.00    -0.482 SA 
HETATM   24  H1  UNL     1      -6.311  19.430  66.200  1.00  0.00     0.000 HD 
HETATM   25  N   UNL     1     -10.783  18.605  66.256  1.00  0.00    -0.313 NA 
HETATM   26  N   UNL     1      -8.529  17.973  65.991  1.00  0.00    -0.515 NA 
HETATM   27  H2  UNL     1      -7.221  20.875  66.572  1.00  0.00     0.000 HD 
HETATM   28  C   UNL     1      -8.396  19.247  66.260  1.00  0.00    -0.319 A  
HETATM   29  N   UNL     1      -7.214  19.881  66.346  1.00  0.00    -0.251 NA 
ENDBRANCH  17  22
ENDBRANCH  15  17
ENDBRANCH   1  13
BRANCH   8  30
HETATM   30  C   UNL     1      -8.761   8.145  66.258  1.00  0.00    -0.172 C  
HETATM   31  C   UNL     1     -10.663   6.755  67.317  1.00  0.00    -0.423 C  
HETATM   32  C   UNL     1      -9.429   7.011  66.525  1.00  0.00    -0.199 C  
HETATM   33  C   UNL     1     -10.435   5.339  67.820  1.00  0.00    -0.095 C  
HETATM   34  N   UNL     1      -9.473   4.737  66.917  1.00  0.00    -0.143 N  
HETATM   35  C   UNL     1      -8.904   5.688  66.077  1.00  0.00    -0.146 C  
HETATM   36  O   UNL     1      -8.141   5.523  65.145  1.00  0.00    -0.111 OA 
BRANCH  34  37
HETATM   37  C   UNL     1      -9.386   3.283  66.707  1.00  0.00    -0.147 C  
HETATM   38  C   UNL     1      -8.565   2.555  67.773  1.00  0.00    -0.118 C  
HETATM   39  C   UNL     1      -7.140   2.702  67.273  1.00  0.00    -0.053 C  
HETATM   40  N   UNL     1      -7.213   2.636  65.815  1.00  0.00    -0.064 NA 
HETATM   41  H   UNL     1      -6.816   1.777  65.434  1.00  0.00     0.000 HD 
HETATM   42  C   UNL     1      -8.628   2.839  65.440  1.00  0.00    -0.109 C  
ENDBRANCH  34  37
ENDBRANCH   8  30
TORSDOF 6
ENDMDL
MODEL       51
REMARK 921   NORMALIZED FREE ENERGY PREDICTED BY IDOCK:   -6.02 KCAL/MOL
REMARK 922        TOTAL FREE ENERGY PREDICTED BY IDOCK:   -9.66 KCAL/MOL
REMARK 923 INTER-LIGAND FREE ENERGY PREDICTED BY IDOCK:   -8.04 KCAL/MOL
REMARK 924 INTRA-LIGAND FREE ENERGY PREDICTED BY IDOCK:   -1.62 KCAL/MOL
REMARK 927      BINDING AFFINITY PREDICTED BY RF-SCORE:    0.00 PKD
ROOT
HETATM    1  CA  UNL     1      -8.337  11.482  65.502  1.00  0.00     0.344 C  
HETATM    2  C   UNL     1      -7.306  10.147  69.229  1.00  0.00    -0.098 C  
HETATM    3  C   UNL     1      -8.594   9.945  65.275  1.00  0.00    -0.156 C  
HETATM    4  O   UNL     1      -9.161   9.211  64.500  1.00  0.00    -0.159 OA 
HETATM    5  O   UNL     1      -8.648   6.987  65.616  1.00  0.00    -0.151 OA 
HETATM    6  OXT UNL     1      -7.381   6.198  67.259  1.00  0.00    -0.074 OA 
HETATM    7  N   UNL     1      -8.021   9.654  66.460  1.00  0.00    -0.111 N  
HETATM    8  C   UNL     1      -7.495   8.780  68.583  1.00  0.00    -0.092 C  
HETATM    9  CA  UNL     1      -7.813   8.575  67.275  1.00  0.00    -0.098 C  
HETATM   10  S   UNL     1      -8.049  11.531  68.341  1.00  0.00    -0.152 SA 
HETATM   11  C   UNL     1      -7.480  10.978  66.713  1.00  0.00    -0.139 C  
HETATM   12  C   UNL     1      -7.923   7.162  66.735  1.00  0.00    -0.108 C  
ENDROOT
BRANCH   1  13
HETATM   13  N   UNL     1      -9.522  12.305  65.866  1.00  0.00    -0.376 N  
HETATM   14  O   UNL     1     -10.266  12.706  63.736  1.00  0.00    -0.404 OA 
HETATM   15  C   UNL     1     -10.409  12.815  64.944  1.00  0.00    -0.309 C  
HETATM   16  H   UNL     1      -9.687  12.503  66.853  1.00  0.00     0.000 HD 
BRANCH  15  17
HETATM   17  C   UNL     1     -11.620  13.544  65.541  1.00  0.00    -0.320 C  
BRANCH  17  18
HETATM   18  N   UNL     1     -12.722  13.803  64.879  1.00  0.00    -0.683 NA 
HETATM   19  H   UNL     1     -13.649  13.700  65.292  1.00  0.00     0.000 HD 
HETATM   20  O   UNL     1     -12.525  14.231  63.563  1.00  0.00    -1.095 OA 
HETATM   21  H   UNL     1     -13.323  14.418  63.083  1.00  0.00     0.000 HD 
ENDBRANCH  17  18
BRANCH  17  22
HETATM   22  C   UNL     1     -11.578  13.975  66.941  1.00  0.00    -0.386 A  
HETATM   23  S   UNL     1     -11.195  15.293  68.941  1.00  0.00    -0.306 SA 
HETATM   24  H1  UNL     1     -12.641  12.261  70.410  1.00  0.00     0.000 HD 
HETATM   25  N   UNL     1     -11.083  15.172  67.282  1.00  0.00    -0.328 NA 
HETATM   26  N   UNL     1     -12.014  13.120  67.970  1.00  0.00    -0.342 NA 
HETATM   27  H2  UNL     1     -12.096  13.752  71.143  1.00  0.00     0.000 HD 
HETATM   28  C   UNL     1     -11.877  13.724  69.123  1.00  0.00    -0.354 A  
HETATM   29  N   UNL     1     -12.236  13.191  70.303  1.00  0.00    -0.333 NA 
ENDBRANCH  17  22
ENDBRANCH  15  17
ENDBRANCH   1  13
BRANCH   8  30
HETATM   30  C   UNL     1      -7.294   7.741  69.600  1.00  0.00    -0.088 C  
HETATM   31  C   UNL     1      -9.721   7.351  70.391  1.00  0.00    -0.175 C  
HETATM   32  C   UNL     1      -8.243   7.175  70.363  1.00  0.00    -0.126 C  
HETATM   33  C   UNL     1     -10.052   7.060  71.846  1.00  0.00    -0.182 C  
HETATM   34  N   UNL     1      -8.953   6.267  72.361  1.00  0.00    -0.139 N  
HETATM   35  C   UNL     1      -7.883   6.248  71.475  1.00  0.00    -0.101 C  
HETATM   36  O   UNL     1      -6.848   5.612  71.541  1.00  0.00    -0.061 OA 
BRANCH  34  37
HETATM   37  C   UNL     1      -9.107   5.346  73.499  1.00  0.00    -0.128 C  
HETATM   38  C   UNL     1      -8.840   3.881  73.145  1.00  0.00    -0.101 C  
HETATM   39  C   UNL     1     -10.174   3.409  72.597  1.00  0.00    -0.159 C  
HETATM   40  N   UNL     1     -11.200   4.105  73.371  1.00  0.00    -0.267 NA 
HETATM   41  H   UNL     1     -11.712   3.488  74.001  1.00  0.00     0.000 HD 
HETATM   42  C   UNL     1     -10.534   5.225  74.069  1.00  0.00    -0.281 C  
ENDBRANCH  34  37
ENDBRANCH   8  30
TORSDOF 6
ENDMDL
MODEL       52
REMARK 921   NORMALIZED FREE ENERGY PREDICTED BY IDOCK:   -5.97 KCAL/MOL
REMARK 922        TOTAL FREE ENERGY PREDICTED BY IDOCK:   -9.59 KCAL/MOL
REMARK 923 INTER-LIGAND FREE ENERGY PREDICTED BY IDOCK:   -8.15 KCAL/MOL
REMARK 924 INTRA-LIGAND FREE ENERGY PREDICTED BY IDOCK:   -1.44 KCAL/MOL
REMARK 927      BINDING AFFINITY PREDICTED BY RF-SCORE:    0.00 PKD
ROOT
HETATM    1  CA  UNL     1      -9.642   8.917  66.880  1.00  0.00    -0.190 C  
HETATM    2  C   UNL     1     -10.632  12.602  68.358  1.00  0.00    -0.243 C  
HETATM    3  C   UNL     1      -8.200   9.550  66.905  1.00  0.00    -0.113 C  
HETATM    4  O   UNL     1      -7.042   9.207  66.851  1.00  0.00    -0.080 OA 
HETATM    5  O   UNL     1      -5.943  11.485  67.091  1.00  0.00    -0.080 OA 
HETATM    6  OXT UNL     1      -6.526  13.626  67.101  1.00  0.00    -0.201 OA 
HETATM    7  N   UNL     1      -8.716  10.764  67.186  1.00  0.00    -0.131 N  
HETATM    8  C   UNL     1      -9.165  12.899  68.072  1.00  0.00    -0.212 C  
HETATM    9  CA  UNL     1      -8.290  12.024  67.504  1.00  0.00    -0.166 C  
HETATM   10  S   UNL     1     -11.068  10.851  68.420  1.00  0.00    -0.286 SA 
HETATM   11  C   UNL     1     -10.105  10.413  66.950  1.00  0.00    -0.219 C  
HETATM   12  C   UNL     1      -6.863  12.457  67.222  1.00  0.00    -0.127 C  
ENDROOT
BRANCH   1  13
HETATM   13  N   UNL     1     -10.019   8.083  68.053  1.00  0.00    -0.172 N  
HETATM   14  O   UNL     1     -10.724   6.240  66.890  1.00  0.00    -0.286 OA 
HETATM   15  C   UNL     1     -10.494   6.795  67.953  1.00  0.00    -0.218 C  
HETATM   16  H   UNL     1      -9.920   8.489  68.984  1.00  0.00     0.000 HD 
BRANCH  15  17
HETATM   17  C   UNL     1     -10.720   6.079  69.291  1.00  0.00    -0.332 C  
BRANCH  17  18
HETATM   18  N   UNL     1     -10.341   4.849  69.539  1.00  0.00    -0.180 NA 
HETATM   19  H   UNL     1     -10.075   4.195  68.802  1.00  0.00     0.000 HD 
HETATM   20  O   UNL     1     -10.330   4.503  70.894  1.00  0.00    -0.148 OA 
HETATM   21  H   UNL     1     -10.056   3.611  71.073  1.00  0.00     0.000 HD 
ENDBRANCH  17  18
BRANCH  17  22
HETATM   22  C   UNL     1     -11.383   6.796  70.384  1.00  0.00    -0.347 A  
HETATM   23  S   UNL     1     -11.764   8.112  72.385  1.00  0.00    -0.391 SA 
HETATM   24  H1  UNL     1     -15.218   7.338  71.431  1.00  0.00     0.000 HD 
HETATM   25  N   UNL     1     -10.672   7.437  71.322  1.00  0.00    -0.221 NA 
HETATM   26  N   UNL     1     -12.784   6.788  70.505  1.00  0.00     0.036 NA 
HETATM   27  H2  UNL     1     -14.569   8.278  72.754  1.00  0.00     0.000 HD 
HETATM   28  C   UNL     1     -13.134   7.489  71.552  1.00  0.00    -0.356 A  
HETATM   29  N   UNL     1     -14.405   7.707  71.926  1.00  0.00    -0.408 NA 
ENDBRANCH  17  22
ENDBRANCH  15  17
ENDBRANCH   1  13
BRANCH   8  30
HETATM   30  C   UNL     1      -8.860  14.262  68.523  1.00  0.00    -0.176 C  
HETATM   31  C   UNL     1      -9.578  15.635  66.457  1.00  0.00    -0.293 C  
HETATM   32  C   UNL     1      -9.021  15.392  67.815  1.00  0.00    -0.173 C  
HETATM   33  C   UNL     1      -8.812  16.870  66.010  1.00  0.00    -0.159 C  
HETATM   34  N   UNL     1      -8.344  17.516  67.220  1.00  0.00    -0.209 N  
HETATM   35  C   UNL     1      -8.518  16.699  68.331  1.00  0.00    -0.216 C  
HETATM   36  O   UNL     1      -8.328  16.955  69.504  1.00  0.00     0.118 OA 
BRANCH  34  37
HETATM   37  C   UNL     1      -8.052  18.957  67.286  1.00  0.00    -0.262 C  
HETATM   38  C   UNL     1      -8.927  19.718  68.285  1.00  0.00    -0.347 C  
HETATM   39  C   UNL     1     -10.181  20.020  67.485  1.00  0.00    -0.411 C  
HETATM   40  N   UNL     1      -9.739  20.268  66.115  1.00  0.00    -0.657 NA 
HETATM   41  H   UNL     1      -9.828  21.246  65.837  1.00  0.00     0.000 HD 
HETATM   42  C   UNL     1      -8.356  19.757  66.004  1.00  0.00    -0.295 C  
ENDBRANCH  34  37
ENDBRANCH   8  30
TORSDOF 6
ENDMDL
MODEL       53
REMARK 921   NORMALIZED FREE ENERGY PREDICTED BY IDOCK:   -5.97 KCAL/MOL
REMARK 922        TOTAL FREE ENERGY PREDICTED BY IDOCK:   -9.58 KCAL/MOL
REMARK 923 INTER-LIGAND FREE ENERGY PREDICTED BY IDOCK:   -7.88 KCAL/MOL
REMARK 924 INTRA-LIGAND FREE ENERGY PREDICTED BY IDOCK:   -1.70 KCAL/MOL
REMARK 927      BINDING AFFINITY PREDICTED BY RF-SCORE:    0.00 PKD
ROOT
HETATM    1  CA  UNL     1      -8.759   8.868  69.645  1.00  0.00    -0.140 C  
HETATM    2  C   UNL     1      -7.877  11.827  66.960  1.00  0.00    -0.161 C  
HETATM    3  C   UNL     1     -10.112   9.670  69.733  1.00  0.00    -0.233 C  
HETATM    4  O   UNL     1     -11.245   9.524  70.128  1.00  0.00    -0.240 OA 
HETATM    5  O   UNL     1     -12.193  11.782  69.453  1.00  0.00    -0.256 OA 
HETATM    6  OXT UNL     1     -11.468  13.733  68.681  1.00  0.00    -0.259 OA 
HETATM    7  N   UNL     1      -9.588  10.674  69.001  1.00  0.00    -0.199 N  
HETATM    8  C   UNL     1      -9.205  12.398  67.443  1.00  0.00    -0.184 C  
HETATM    9  CA  UNL     1      -9.981  11.846  68.416  1.00  0.00    -0.203 C  
HETATM   10  S   UNL     1      -7.604  10.083  67.335  1.00  0.00    -0.091 SA 
HETATM   11  C   UNL     1      -8.214  10.205  69.036  1.00  0.00    -0.132 C  
HETATM   12  C   UNL     1     -11.260  12.539  68.847  1.00  0.00    -0.281 C  
ENDROOT
BRANCH   1  13
HETATM   13  N   UNL     1      -8.741   7.700  68.723  1.00  0.00    -0.129 N  
HETATM   14  O   UNL     1      -9.653   6.173  70.167  1.00  0.00    -0.159 OA 
HETATM   15  C   UNL     1      -9.229   6.457  69.057  1.00  0.00    -0.129 C  
HETATM   16  H   UNL     1      -8.345   7.827  67.792  1.00  0.00     0.000 HD 
BRANCH  15  17
HETATM   17  C   UNL     1      -9.210   5.425  67.922  1.00  0.00    -0.110 C  
BRANCH  17  18
HETATM   18  N   UNL     1      -9.904   4.312  67.930  1.00  0.00    -0.107 NA 
HETATM   19  H   UNL     1     -10.355   3.950  68.770  1.00  0.00     0.000 HD 
HETATM   20  O   UNL     1      -9.976   3.661  66.695  1.00  0.00    -0.397 OA 
HETATM   21  H   UNL     1     -10.478   2.855  66.700  1.00  0.00     0.000 HD 
ENDBRANCH  17  18
BRANCH  17  22
HETATM   22  C   UNL     1      -8.389   5.679  66.735  1.00  0.00    -0.108 A  
HETATM   23  S   UNL     1      -6.600   5.579  65.101  1.00  0.00    -0.041 SA 
HETATM   24  H1  UNL     1      -8.707   8.187  63.619  1.00  0.00     0.000 HD 
HETATM   25  N   UNL     1      -7.244   5.014  66.530  1.00  0.00    -0.076 NA 
HETATM   26  N   UNL     1      -8.758   6.666  65.803  1.00  0.00    -0.144 NA 
HETATM   27  H2  UNL     1      -7.212   7.463  63.074  1.00  0.00     0.000 HD 
HETATM   28  C   UNL     1      -7.872   6.706  64.841  1.00  0.00    -0.115 A  
HETATM   29  N   UNL     1      -7.952   7.519  63.774  1.00  0.00    -0.115 NA 
ENDBRANCH  17  22
ENDBRANCH  15  17
ENDBRANCH   1  13
BRANCH   8  30
HETATM   30  C   UNL     1      -9.505  13.615  66.679  1.00  0.00    -0.285 C  
HETATM   31  C   UNL     1      -7.773  15.256  67.669  1.00  0.00    -0.185 C  
HETATM   32  C   UNL     1      -8.905  14.809  66.811  1.00  0.00    -0.281 C  
HETATM   33  C   UNL     1      -8.097  16.724  67.890  1.00  0.00    -0.185 C  
HETATM   34  N   UNL     1      -8.971  17.115  66.802  1.00  0.00    -0.231 N  
HETATM   35  C   UNL     1      -9.416  16.009  66.087  1.00  0.00    -0.336 C  
HETATM   36  O   UNL     1     -10.076  15.975  65.067  1.00  0.00    -0.463 OA 
BRANCH  34  37
HETATM   37  C   UNL     1      -9.078  18.506  66.332  1.00  0.00    -0.269 C  
HETATM   38  C   UNL     1      -8.616  19.540  67.361  1.00  0.00    -0.346 C  
HETATM   39  C   UNL     1      -9.850  19.748  68.221  1.00  0.00    -0.428 C  
HETATM   40  N   UNL     1     -10.995  19.640  67.320  1.00  0.00    -0.406 NA 
HETATM   41  H   UNL     1     -11.465  20.532  67.163  1.00  0.00     0.000 HD 
HETATM   42  C   UNL     1     -10.511  19.012  66.073  1.00  0.00    -0.458 C  
ENDBRANCH  34  37
ENDBRANCH   8  30
TORSDOF 6
ENDMDL
MODEL       54
REMARK 921   NORMALIZED FREE ENERGY PREDICTED BY IDOCK:   -5.96 KCAL/MOL
REMARK 922        TOTAL FREE ENERGY PREDICTED BY IDOCK:   -9.58 KCAL/MOL
REMARK 923 INTER-LIGAND FREE ENERGY PREDICTED BY IDOCK:   -8.22 KCAL/MOL
REMARK 924 INTRA-LIGAND FREE ENERGY PREDICTED BY IDOCK:   -1.36 KCAL/MOL
REMARK 927      BINDING AFFINITY PREDICTED BY RF-SCORE:    0.00 PKD
ROOT
HETATM    1  CA  UNL     1     -10.033  14.880  66.343  1.00  0.00    -0.275 C  
HETATM    2  C   UNL     1      -7.382  12.209  67.948  1.00  0.00    -0.108 C  
HETATM    3  C   UNL     1     -11.070  13.897  67.006  1.00  0.00    -0.301 C  
HETATM    4  O   UNL     1     -12.235  13.866  67.327  1.00  0.00    -0.394 OA 
HETATM    5  O   UNL     1     -12.305  11.536  68.337  1.00  0.00    -0.461 OA 
HETATM    6  OXT UNL     1     -11.004   9.744  68.492  1.00  0.00    -0.215 OA 
HETATM    7  N   UNL     1     -10.089  13.012  67.276  1.00  0.00    -0.233 N  
HETATM    8  C   UNL     1      -8.654  11.438  68.280  1.00  0.00    -0.156 C  
HETATM    9  CA  UNL     1      -9.912  11.828  67.937  1.00  0.00    -0.181 C  
HETATM   10  S   UNL     1      -7.618  13.953  67.548  1.00  0.00    -0.154 SA 
HETATM   11  C   UNL     1      -9.057  13.662  66.487  1.00  0.00    -0.119 C  
HETATM   12  C   UNL     1     -11.098  10.946  68.281  1.00  0.00    -0.266 C  
ENDROOT
BRANCH   1  13
HETATM   13  N   UNL     1      -9.663  16.084  67.135  1.00  0.00    -0.226 N  
HETATM   14  O   UNL     1     -10.099  17.645  65.515  1.00  0.00    -0.566 OA 
HETATM   15  C   UNL     1      -9.766  17.371  66.658  1.00  0.00    -0.290 C  
HETATM   16  H   UNL     1      -9.313  15.948  68.083  1.00  0.00     0.000 HD 
BRANCH  15  17
HETATM   17  C   UNL     1      -9.434  18.470  67.677  1.00  0.00    -0.279 C  
BRANCH  17  18
HETATM   18  N   UNL     1     -10.305  19.337  68.133  1.00  0.00    -0.406 NA 
HETATM   19  H   UNL     1     -10.930  19.864  67.522  1.00  0.00     0.000 HD 
HETATM   20  O   UNL     1     -10.310  19.483  69.523  1.00  0.00    -0.573 OA 
HETATM   21  H   UNL     1     -10.942  20.112  69.853  1.00  0.00     0.000 HD 
ENDBRANCH  17  18
BRANCH  17  22
HETATM   22  C   UNL     1      -8.070  18.571  68.203  1.00  0.00    -0.290 A  
HETATM   23  S   UNL     1      -5.819  18.004  68.905  1.00  0.00    -0.208 SA 
HETATM   24  H1  UNL     1      -5.915  21.559  69.791  1.00  0.00     0.000 HD 
HETATM   25  N   UNL     1      -7.262  17.502  68.240  1.00  0.00    -0.208 NA 
HETATM   26  N   UNL     1      -7.589  19.783  68.728  1.00  0.00    -0.307 NA 
HETATM   27  H2  UNL     1      -4.643  20.369  69.932  1.00  0.00     0.000 HD 
HETATM   28  C   UNL     1      -6.356  19.621  69.135  1.00  0.00    -0.312 A  
HETATM   29  N   UNL     1      -5.597  20.600  69.656  1.00  0.00    -0.347 NA 
ENDBRANCH  17  22
ENDBRANCH  15  17
ENDBRANCH   1  13
BRANCH   8  30
HETATM   30  C   UNL     1      -8.294  10.231  69.035  1.00  0.00    -0.148 C  
HETATM   31  C   UNL     1      -7.772   8.587  67.113  1.00  0.00    -0.097 C  
HETATM   32  C   UNL     1      -7.951   9.039  68.520  1.00  0.00    -0.103 C  
HETATM   33  C   UNL     1      -8.131   7.113  67.200  1.00  0.00    -0.114 C  
HETATM   34  N   UNL     1      -7.953   6.733  68.588  1.00  0.00    -0.117 N  
HETATM   35  C   UNL     1      -7.768   7.847  69.398  1.00  0.00    -0.105 C  
HETATM   36  O   UNL     1      -7.496   7.893  70.582  1.00  0.00    -0.067 OA 
BRANCH  34  37
HETATM   37  C   UNL     1      -7.667   5.349  69.000  1.00  0.00    -0.089 C  
HETATM   38  C   UNL     1      -7.803   4.329  67.868  1.00  0.00    -0.079 C  
HETATM   39  C   UNL     1      -9.287   4.010  67.866  1.00  0.00    -0.171 C  
HETATM   40  N   UNL     1      -9.713   4.052  69.263  1.00  0.00    -0.172 NA 
HETATM   41  H   UNL     1      -9.940   3.132  69.639  1.00  0.00     0.000 HD 
HETATM   42  C   UNL     1      -8.650   4.743  70.022  1.00  0.00    -0.082 C  
ENDBRANCH  34  37
ENDBRANCH   8  30
TORSDOF 6
ENDMDL
MODEL       55
REMARK 921   NORMALIZED FREE ENERGY PREDICTED BY IDOCK:   -5.92 KCAL/MOL
REMARK 922        TOTAL FREE ENERGY PREDICTED BY IDOCK:   -9.52 KCAL/MOL
REMARK 923 INTER-LIGAND FREE ENERGY PREDICTED BY IDOCK:   -8.64 KCAL/MOL
REMARK 924 INTRA-LIGAND FREE ENERGY PREDICTED BY IDOCK:   -0.88 KCAL/MOL
REMARK 927      BINDING AFFINITY PREDICTED BY RF-SCORE:    0.00 PKD
ROOT
HETATM    1  CA  UNL     1     -11.973  11.662  69.310  1.00  0.00    -0.317 C  
HETATM    2  C   UNL     1      -8.962   8.900  69.499  1.00  0.00    -0.145 C  
HETATM    3  C   UNL     1     -12.401  10.948  70.647  1.00  0.00    -0.376 C  
HETATM    4  O   UNL     1     -13.118  11.134  71.601  1.00  0.00    -0.449 OA 
HETATM    5  O   UNL     1     -12.604   9.011  72.900  1.00  0.00    -0.234 OA 
HETATM    6  OXT UNL     1     -11.529   7.092  72.603  1.00  0.00    -0.280 OA 
HETATM    7  N   UNL     1     -11.484   9.980  70.446  1.00  0.00    -0.292 N  
HETATM    8  C   UNL     1      -9.774   8.378  70.679  1.00  0.00    -0.203 C  
HETATM    9  CA  UNL     1     -10.965   8.892  71.092  1.00  0.00    -0.286 C  
HETATM   10  S   UNL     1      -9.353  10.582  68.976  1.00  0.00    -0.182 SA 
HETATM   11  C   UNL     1     -11.146  10.351  69.083  1.00  0.00    -0.246 C  
HETATM   12  C   UNL     1     -11.705   8.251  72.251  1.00  0.00    -0.388 C  
ENDROOT
BRANCH   1  13
HETATM   13  N   UNL     1     -11.164  12.903  69.452  1.00  0.00    -0.429 N  
HETATM   14  O   UNL     1     -12.381  14.213  68.019  1.00  0.00    -0.233 OA 
HETATM   15  C   UNL     1     -11.466  14.087  68.818  1.00  0.00    -0.292 C  
HETATM   16  H   UNL     1     -10.340  12.875  70.052  1.00  0.00     0.000 HD 
BRANCH  15  17
HETATM   17  C   UNL     1     -10.562  15.271  69.188  1.00  0.00    -0.250 C  
BRANCH  17  18
HETATM   18  N   UNL     1     -10.330  15.663  70.417  1.00  0.00    -0.283 NA 
HETATM   19  H   UNL     1      -9.723  16.452  70.639  1.00  0.00     0.000 HD 
HETATM   20  O   UNL     1     -10.981  14.913  71.402  1.00  0.00    -0.567 OA 
HETATM   21  H   UNL     1     -10.813  15.197  72.292  1.00  0.00     0.000 HD 
ENDBRANCH  17  18
BRANCH  17  22
HETATM   22  C   UNL     1      -9.890  16.020  68.122  1.00  0.00    -0.222 A  
HETATM   23  S   UNL     1      -8.238  16.754  66.505  1.00  0.00    -0.316 SA 
HETATM   24  H1  UNL     1     -10.877  19.233  65.932  1.00  0.00     0.000 HD 
HETATM   25  N   UNL     1      -8.664  15.677  67.703  1.00  0.00    -0.172 NA 
HETATM   26  N   UNL     1     -10.496  17.150  67.544  1.00  0.00    -0.348 NA 
HETATM   27  H2  UNL     1      -9.323  19.003  65.165  1.00  0.00     0.000 HD 
HETATM   28  C   UNL     1      -9.705  17.643  66.625  1.00  0.00    -0.301 A  
HETATM   29  N   UNL     1     -10.007  18.706  65.860  1.00  0.00    -0.526 NA 
ENDBRANCH  17  22
ENDBRANCH  15  17
ENDBRANCH   1  13
BRANCH   8  30
HETATM   30  C   UNL     1      -9.053   7.255  71.292  1.00  0.00    -0.146 C  
HETATM   31  C   UNL     1      -9.517   5.379  69.579  1.00  0.00    -0.182 C  
HETATM   32  C   UNL     1      -8.982   6.000  70.822  1.00  0.00    -0.153 C  
HETATM   33  C   UNL     1      -9.746   3.940  70.010  1.00  0.00    -0.172 C  
HETATM   34  N   UNL     1      -8.888   3.719  71.157  1.00  0.00    -0.081 N  
HETATM   35  C   UNL     1      -8.353   4.913  71.627  1.00  0.00    -0.114 C  
HETATM   36  O   UNL     1      -7.527   5.087  72.502  1.00  0.00    -0.089 OA 
BRANCH  34  37
HETATM   37  C   UNL     1      -8.398   2.383  71.535  1.00  0.00    -0.062 C  
HETATM   38  C   UNL     1      -9.454   1.510  72.216  1.00  0.00    -0.138 C  
HETATM   39  C   UNL     1      -9.372   1.938  73.669  1.00  0.00    -0.075 C  
HETATM   40  N   UNL     1      -7.964   2.231  73.927  1.00  0.00    -0.053 NA 
HETATM   41  H   UNL     1      -7.518   1.545  74.537  1.00  0.00     0.000 HD 
HETATM   42  C   UNL     1      -7.298   2.359  72.614  1.00  0.00    -0.032 C  
ENDBRANCH  34  37
ENDBRANCH   8  30
TORSDOF 6
ENDMDL
MODEL       56
REMARK 921   NORMALIZED FREE ENERGY PREDICTED BY IDOCK:   -5.89 KCAL/MOL
REMARK 922        TOTAL FREE ENERGY PREDICTED BY IDOCK:   -9.48 KCAL/MOL
REMARK 923 INTER-LIGAND FREE ENERGY PREDICTED BY IDOCK:   -8.40 KCAL/MOL
REMARK 924 INTRA-LIGAND FREE ENERGY PREDICTED BY IDOCK:   -1.08 KCAL/MOL
REMARK 927      BINDING AFFINITY PREDICTED BY RF-SCORE:    0.00 PKD
ROOT
HETATM    1  CA  UNL     1      -9.010   8.990  66.927  1.00  0.00    -0.123 C  
HETATM    2  C   UNL     1     -11.295  12.158  68.144  1.00  0.00    -0.293 C  
HETATM    3  C   UNL     1      -7.860  10.055  67.086  1.00  0.00    -0.099 C  
HETATM    4  O   UNL     1      -6.656  10.104  67.171  1.00  0.00    -0.068 OA 
HETATM    5  O   UNL     1      -6.381  12.615  67.442  1.00  0.00    -0.151 OA 
HETATM    6  OXT UNL     1      -7.618  14.453  67.305  1.00  0.00    -0.188 OA 
HETATM    7  N   UNL     1      -8.767  11.037  67.261  1.00  0.00    -0.129 N  
HETATM    8  C   UNL     1      -9.978  12.913  68.010  1.00  0.00    -0.236 C  
HETATM    9  CA  UNL     1      -8.808  12.368  67.575  1.00  0.00    -0.181 C  
HETATM   10  S   UNL     1     -11.149  10.361  68.226  1.00  0.00    -0.263 SA 
HETATM   11  C   UNL     1      -9.933  10.255  66.888  1.00  0.00    -0.208 C  
HETATM   12  C   UNL     1      -7.574  13.237  67.434  1.00  0.00    -0.129 C  
ENDROOT
BRANCH   1  13
HETATM   13  N   UNL     1      -9.233   8.080  68.084  1.00  0.00    -0.134 N  
HETATM   14  O   UNL     1     -10.950   6.866  67.175  1.00  0.00    -0.361 OA 
HETATM   15  C   UNL     1     -10.165   7.067  68.089  1.00  0.00    -0.181 C  
HETATM   16  H   UNL     1      -8.664   8.214  68.919  1.00  0.00     0.000 HD 
BRANCH  15  17
HETATM   17  C   UNL     1     -10.155   6.181  69.341  1.00  0.00    -0.184 C  
BRANCH  17  18
HETATM   18  N   UNL     1     -11.236   5.765  69.956  1.00  0.00    -0.274 NA 
HETATM   19  H   UNL     1     -11.354   4.802  70.272  1.00  0.00     0.000 HD 
HETATM   20  O   UNL     1     -12.214   6.746  70.144  1.00  0.00    -0.634 OA 
HETATM   21  H   UNL     1     -12.997   6.445  70.589  1.00  0.00     0.000 HD 
ENDBRANCH  17  18
BRANCH  17  22
HETATM   22  C   UNL     1      -8.873   5.742  69.899  1.00  0.00    -0.127 A  
HETATM   23  S   UNL     1      -6.803   5.683  71.162  1.00  0.00    -0.063 SA 
HETATM   24  H1  UNL     1      -6.583   2.489  69.378  1.00  0.00     0.000 HD 
HETATM   25  N   UNL     1      -8.199   6.505  70.769  1.00  0.00    -0.123 NA 
HETATM   26  N   UNL     1      -8.292   4.525  69.496  1.00  0.00    -0.073 NA 
HETATM   27  H2  UNL     1      -5.512   3.238  70.538  1.00  0.00     0.000 HD 
HETATM   28  C   UNL     1      -7.158   4.357  70.126  1.00  0.00    -0.045 A  
HETATM   29  N   UNL     1      -6.372   3.275  69.992  1.00  0.00    -0.027 NA 
ENDBRANCH  17  22
ENDBRANCH  15  17
ENDBRANCH   1  13
BRANCH   8  30
HETATM   30  C   UNL     1     -10.181  14.302  68.438  1.00  0.00    -0.245 C  
HETATM   31  C   UNL     1     -11.009  15.378  66.241  1.00  0.00    -0.278 C  
HETATM   32  C   UNL     1     -10.592  15.323  67.669  1.00  0.00    -0.270 C  
HETATM   33  C   UNL     1     -10.618  16.792  65.845  1.00  0.00    -0.248 C  
HETATM   34  N   UNL     1     -10.544  17.553  67.077  1.00  0.00    -0.292 N  
HETATM   35  C   UNL     1     -10.601  16.721  68.189  1.00  0.00    -0.350 C  
HETATM   36  O   UNL     1     -10.660  17.024  69.366  1.00  0.00    -0.335 OA 
BRANCH  34  37
HETATM   37  C   UNL     1     -10.733  19.012  67.119  1.00  0.00    -0.456 C  
HETATM   38  C   UNL     1     -10.208  19.737  65.878  1.00  0.00    -0.556 C  
HETATM   39  C   UNL     1      -8.734  19.929  66.186  1.00  0.00    -0.307 C  
HETATM   40  N   UNL     1      -8.649  20.170  67.625  1.00  0.00    -0.322 NA 
HETATM   41  H   UNL     1      -8.396  21.131  67.856  1.00  0.00     0.000 HD 
HETATM   42  C   UNL     1      -9.939  19.753  68.214  1.00  0.00    -0.444 C  
ENDBRANCH  34  37
ENDBRANCH   8  30
TORSDOF 6
ENDMDL
MODEL       57
REMARK 921   NORMALIZED FREE ENERGY PREDICTED BY IDOCK:   -5.86 KCAL/MOL
REMARK 922        TOTAL FREE ENERGY PREDICTED BY IDOCK:   -9.44 KCAL/MOL
REMARK 923 INTER-LIGAND FREE ENERGY PREDICTED BY IDOCK:   -8.58 KCAL/MOL
REMARK 924 INTRA-LIGAND FREE ENERGY PREDICTED BY IDOCK:   -0.86 KCAL/MOL
REMARK 927      BINDING AFFINITY PREDICTED BY RF-SCORE:    0.00 PKD
ROOT
HETATM    1  CA  UNL     1      -9.218   8.736  69.124  1.00  0.00    -0.149 C  
HETATM    2  C   UNL     1      -8.041  12.027  66.997  1.00  0.00    -0.158 C  
HETATM    3  C   UNL     1     -10.480   9.642  69.384  1.00  0.00    -0.220 C  
HETATM    4  O   UNL     1     -11.621   9.542  69.770  1.00  0.00    -0.092 OA 
HETATM    5  O   UNL     1     -12.332  11.970  69.533  1.00  0.00    -0.154 OA 
HETATM    6  OXT UNL     1     -11.410  13.944  69.109  1.00  0.00    -0.259 OA 
HETATM    7  N   UNL     1      -9.857  10.703  68.834  1.00  0.00    -0.194 N  
HETATM    8  C   UNL     1      -9.301  12.633  67.603  1.00  0.00    -0.190 C  
HETATM    9  CA  UNL     1     -10.128  11.996  68.478  1.00  0.00    -0.196 C  
HETATM   10  S   UNL     1      -7.949  10.226  67.046  1.00  0.00    -0.112 SA 
HETATM   11  C   UNL     1      -8.539  10.099  68.754  1.00  0.00    -0.133 C  
HETATM   12  C   UNL     1     -11.327  12.725  69.053  1.00  0.00    -0.294 C  
ENDROOT
BRANCH   1  13
HETATM   13  N   UNL     1      -9.323   7.759  68.007  1.00  0.00    -0.141 N  
HETATM   14  O   UNL     1     -10.851   6.359  68.985  1.00  0.00    -0.261 OA 
HETATM   15  C   UNL     1     -10.166   6.671  68.023  1.00  0.00    -0.167 C  
HETATM   16  H   UNL     1      -8.739   7.903  67.184  1.00  0.00     0.000 HD 
BRANCH  15  17
HETATM   17  C   UNL     1     -10.196   5.853  66.725  1.00  0.00    -0.219 C  
BRANCH  17  18
HETATM   18  N   UNL     1     -11.288   5.580  66.053  1.00  0.00    -0.635 NA 
HETATM   19  H   UNL     1     -12.115   6.177  66.080  1.00  0.00     0.000 HD 
HETATM   20  O   UNL     1     -11.231   4.405  65.297  1.00  0.00    -0.869 OA 
HETATM   21  H   UNL     1     -12.023   4.207  64.811  1.00  0.00     0.000 HD 
ENDBRANCH  17  18
BRANCH  17  22
HETATM   22  C   UNL     1      -8.939   5.346  66.167  1.00  0.00    -0.142 A  
HETATM   23  S   UNL     1      -6.737   4.348  65.970  1.00  0.00    -0.054 SA 
HETATM   24  H1  UNL     1      -7.368   5.259  62.476  1.00  0.00     0.000 HD 
HETATM   25  N   UNL     1      -8.011   4.782  66.953  1.00  0.00    -0.102 NA 
HETATM   26  N   UNL     1      -8.652   5.483  64.797  1.00  0.00    -0.128 NA 
HETATM   27  H2  UNL     1      -6.012   4.458  63.233  1.00  0.00     0.000 HD 
HETATM   28  C   UNL     1      -7.480   4.960  64.545  1.00  0.00    -0.071 A  
HETATM   29  N   UNL     1      -6.928   4.897  63.322  1.00  0.00    -0.042 NA 
ENDBRANCH  17  22
ENDBRANCH  15  17
ENDBRANCH   1  13
BRANCH   8  30
HETATM   30  C   UNL     1      -9.475  13.992  67.077  1.00  0.00    -0.253 C  
HETATM   31  C   UNL     1      -7.623  15.256  68.359  1.00  0.00    -0.116 C  
HETATM   32  C   UNL     1      -8.773  15.081  67.429  1.00  0.00    -0.208 C  
HETATM   33  C   UNL     1      -7.817  16.682  68.847  1.00  0.00    -0.240 C  
HETATM   34  N   UNL     1      -8.631  17.346  67.848  1.00  0.00    -0.228 N  
HETATM   35  C   UNL     1      -9.159  16.436  66.939  1.00  0.00    -0.216 C  
HETATM   36  O   UNL     1      -9.800  16.652  65.929  1.00  0.00    -0.415 OA 
BRANCH  34  37
HETATM   37  C   UNL     1      -8.603  18.803  67.644  1.00  0.00    -0.272 C  
HETATM   38  C   UNL     1      -9.843  19.524  68.178  1.00  0.00    -0.506 C  
HETATM   39  C   UNL     1     -10.837  19.395  67.038  1.00  0.00    -0.432 C  
HETATM   40  N   UNL     1     -10.054  19.479  65.807  1.00  0.00    -0.456 NA 
HETATM   41  H   UNL     1     -10.210  20.346  65.293  1.00  0.00     0.000 HD 
HETATM   42  C   UNL     1      -8.638  19.270  66.175  1.00  0.00    -0.257 C  
ENDBRANCH  34  37
ENDBRANCH   8  30
TORSDOF 6
ENDMDL
MODEL       58
REMARK 921   NORMALIZED FREE ENERGY PREDICTED BY IDOCK:   -5.85 KCAL/MOL
REMARK 922        TOTAL FREE ENERGY PREDICTED BY IDOCK:   -9.42 KCAL/MOL
REMARK 923 INTER-LIGAND FREE ENERGY PREDICTED BY IDOCK:   -8.28 KCAL/MOL
REMARK 924 INTRA-LIGAND FREE ENERGY PREDICTED BY IDOCK:   -1.14 KCAL/MOL
REMARK 927      BINDING AFFINITY PREDICTED BY RF-SCORE:    0.00 PKD
ROOT
HETATM    1  CA  UNL     1      -8.530   9.065  67.292  1.00  0.00    -0.114 C  
HETATM    2  C   UNL     1     -10.639  12.570  67.358  1.00  0.00    -0.223 C  
HETATM    3  C   UNL     1      -7.590   9.881  68.257  1.00  0.00    -0.080 C  
HETATM    4  O   UNL     1      -6.696   9.693  69.049  1.00  0.00    -0.049 OA 
HETATM    5  O   UNL     1      -6.317  12.092  69.795  1.00  0.00    -0.134 OA 
HETATM    6  OXT UNL     1      -6.956  14.139  69.220  1.00  0.00    -0.118 OA 
HETATM    7  N   UNL     1      -8.275  11.014  68.000  1.00  0.00    -0.119 N  
HETATM    8  C   UNL     1      -9.430  13.061  68.146  1.00  0.00    -0.218 C  
HETATM    9  CA  UNL     1      -8.324  12.315  68.419  1.00  0.00    -0.144 C  
HETATM   10  S   UNL     1     -10.812  10.778  67.246  1.00  0.00    -0.278 SA 
HETATM   11  C   UNL     1      -9.059  10.486  66.897  1.00  0.00    -0.147 C  
HETATM   12  C   UNL     1      -7.160  12.933  69.170  1.00  0.00     0.033 C  
ENDROOT
BRANCH   1  13
HETATM   13  N   UNL     1      -9.531   8.175  67.940  1.00  0.00    -0.144 N  
HETATM   14  O   UNL     1      -8.111   6.446  68.433  1.00  0.00    -0.111 OA 
HETATM   15  C   UNL     1      -9.221   6.952  68.490  1.00  0.00    -0.129 C  
HETATM   16  H   UNL     1     -10.501   8.489  67.978  1.00  0.00     0.000 HD 
BRANCH  15  17
HETATM   17  C   UNL     1     -10.383   6.247  69.202  1.00  0.00    -0.216 C  
BRANCH  17  18
HETATM   18  N   UNL     1     -11.649   6.514  68.986  1.00  0.00    -0.594 NA 
HETATM   19  H   UNL     1     -12.033   6.637  68.048  1.00  0.00     0.000 HD 
HETATM   20  O   UNL     1     -12.430   6.616  70.140  1.00  0.00    -0.500 OA 
HETATM   21  H   UNL     1     -13.346   6.810  69.983  1.00  0.00     0.000 HD 
ENDBRANCH  17  18
BRANCH  17  22
HETATM   22  C   UNL     1     -10.092   5.193  70.178  1.00  0.00    -0.272 A  
HETATM   23  S   UNL     1      -9.622   4.038  72.258  1.00  0.00    -0.152 SA 
HETATM   24  H1  UNL     1      -9.480   1.237  69.898  1.00  0.00     0.000 HD 
HETATM   25  N   UNL     1      -9.954   5.474  71.481  1.00  0.00    -0.171 NA 
HETATM   26  N   UNL     1      -9.902   3.861  69.764  1.00  0.00    -0.148 NA 
HETATM   27  H2  UNL     1      -9.284   1.294  71.634  1.00  0.00     0.000 HD 
HETATM   28  C   UNL     1      -9.654   3.114  70.808  1.00  0.00    -0.149 A  
HETATM   29  N   UNL     1      -9.461   1.785  70.758  1.00  0.00    -0.119 NA 
ENDBRANCH  17  22
ENDBRANCH  15  17
ENDBRANCH   1  13
BRANCH   8  30
HETATM   30  C   UNL     1      -9.667  14.447  68.567  1.00  0.00    -0.225 C  
HETATM   31  C   UNL     1      -8.688  15.745  66.561  1.00  0.00    -0.354 C  
HETATM   32  C   UNL     1      -9.324  15.556  67.893  1.00  0.00    -0.192 C  
HETATM   33  C   UNL     1      -7.940  17.055  66.743  1.00  0.00    -0.239 C  
HETATM   34  N   UNL     1      -8.588  17.742  67.843  1.00  0.00    -0.245 N  
HETATM   35  C   UNL     1      -9.477  16.907  68.509  1.00  0.00    -0.266 C  
HETATM   36  O   UNL     1     -10.251  17.176  69.407  1.00  0.00    -0.262 OA 
BRANCH  34  37
HETATM   37  C   UNL     1      -8.551  19.206  67.994  1.00  0.00    -0.310 C  
HETATM   38  C   UNL     1      -9.923  19.872  67.874  1.00  0.00    -0.552 C  
HETATM   39  C   UNL     1     -10.096  20.043  66.376  1.00  0.00    -0.487 C  
HETATM   40  N   UNL     1      -8.766  20.335  65.845  1.00  0.00    -0.552 NA 
HETATM   41  H   UNL     1      -8.666  21.298  65.523  1.00  0.00     0.000 HD 
HETATM   42  C   UNL     1      -7.789  19.970  66.893  1.00  0.00    -0.305 C  
ENDBRANCH  34  37
ENDBRANCH   8  30
TORSDOF 6
ENDMDL
MODEL       59
REMARK 921   NORMALIZED FREE ENERGY PREDICTED BY IDOCK:   -5.84 KCAL/MOL
REMARK 922        TOTAL FREE ENERGY PREDICTED BY IDOCK:   -9.41 KCAL/MOL
REMARK 923 INTER-LIGAND FREE ENERGY PREDICTED BY IDOCK:   -8.35 KCAL/MOL
REMARK 924 INTRA-LIGAND FREE ENERGY PREDICTED BY IDOCK:   -1.06 KCAL/MOL
REMARK 927      BINDING AFFINITY PREDICTED BY RF-SCORE:    0.00 PKD
ROOT
HETATM    1  CA  UNL     1     -10.489   9.041  67.308  1.00  0.00    -0.273 C  
HETATM    2  C   UNL     1     -10.670  12.962  68.463  1.00  0.00    -0.254 C  
HETATM    3  C   UNL     1      -8.950   9.369  67.250  1.00  0.00    -0.130 C  
HETATM    4  O   UNL     1      -7.887   8.795  67.206  1.00  0.00    -0.096 OA 
HETATM    5  O   UNL     1      -6.346  10.816  67.218  1.00  0.00    -0.060 OA 
HETATM    6  OXT UNL     1      -6.490  13.024  67.044  1.00  0.00    -0.165 OA 
HETATM    7  N   UNL     1      -9.202  10.681  67.428  1.00  0.00    -0.143 N  
HETATM    8  C   UNL     1      -9.184  12.931  68.125  1.00  0.00    -0.212 C  
HETATM    9  CA  UNL     1      -8.522  11.852  67.623  1.00  0.00    -0.156 C  
HETATM   10  S   UNL     1     -11.443  11.347  68.692  1.00  0.00    -0.326 SA 
HETATM   11  C   UNL     1     -10.641  10.599  67.250  1.00  0.00    -0.263 C  
HETATM   12  C   UNL     1      -7.049  11.961  67.277  1.00  0.00    -0.143 C  
ENDROOT
BRANCH   1  13
HETATM   13  N   UNL     1     -10.983   8.404  68.559  1.00  0.00    -0.429 N  
HETATM   14  O   UNL     1     -11.071   6.252  67.777  1.00  0.00    -0.334 OA 
HETATM   15  C   UNL     1     -11.194   7.050  68.693  1.00  0.00     0.073 C  
HETATM   16  H   UNL     1     -11.175   9.003  69.362  1.00  0.00     0.000 HD 
BRANCH  15  17
HETATM   17  C   UNL     1     -11.602   6.592  70.100  1.00  0.00    -0.402 C  
BRANCH  17  18
HETATM   18  N   UNL     1     -12.808   6.725  70.595  1.00  0.00    -0.369 NA 
HETATM   19  H   UNL     1     -13.483   5.959  70.614  1.00  0.00     0.000 HD 
HETATM   20  O   UNL     1     -13.097   7.997  71.096  1.00  0.00    -0.507 OA 
HETATM   21  H   UNL     1     -13.972   8.093  71.455  1.00  0.00     0.000 HD 
ENDBRANCH  17  18
BRANCH  17  22
HETATM   22  C   UNL     1     -10.606   5.947  70.960  1.00  0.00    -0.250 A  
HETATM   23  S   UNL     1      -8.495   5.166  71.864  1.00  0.00    -0.126 SA 
HETATM   24  H1  UNL     1     -10.831   3.725  74.293  1.00  0.00     0.000 HD 
HETATM   25  N   UNL     1      -9.298   6.018  70.678  1.00  0.00    -0.159 NA 
HETATM   26  N   UNL     1     -11.002   5.195  72.081  1.00  0.00    -0.156 NA 
HETATM   27  H2  UNL     1      -9.087   3.677  74.202  1.00  0.00     0.000 HD 
HETATM   28  C   UNL     1      -9.941   4.721  72.682  1.00  0.00    -0.164 A  
HETATM   29  N   UNL     1      -9.974   3.989  73.808  1.00  0.00    -0.122 NA 
ENDBRANCH  17  22
ENDBRANCH  15  17
ENDBRANCH   1  13
BRANCH   8  30
HETATM   30  C   UNL     1      -8.597  14.238  68.445  1.00  0.00    -0.175 C  
HETATM   31  C   UNL     1      -9.883  15.768  66.810  1.00  0.00    -0.256 C  
HETATM   32  C   UNL     1      -8.891  15.410  67.861  1.00  0.00    -0.168 C  
HETATM   33  C   UNL     1      -9.215  16.948  66.124  1.00  0.00    -0.235 C  
HETATM   34  N   UNL     1      -8.269  17.490  67.079  1.00  0.00    -0.211 N  
HETATM   35  C   UNL     1      -8.103  16.639  68.166  1.00  0.00    -0.186 C  
HETATM   36  O   UNL     1      -7.467  16.821  69.187  1.00  0.00    -0.239 OA 
BRANCH  34  37
HETATM   37  C   UNL     1      -7.828  18.894  67.048  1.00  0.00    -0.243 C  
HETATM   38  C   UNL     1      -8.478  19.768  68.123  1.00  0.00    -0.327 C  
HETATM   39  C   UNL     1      -9.793  20.179  67.487  1.00  0.00    -0.435 C  
HETATM   40  N   UNL     1      -9.521  20.343  66.061  1.00  0.00    -0.651 NA 
HETATM   41  H   UNL     1      -9.549  21.317  65.758  1.00  0.00     0.000 HD 
HETATM   42  C   UNL     1      -8.224  19.687  65.787  1.00  0.00    -0.061 C  
ENDBRANCH  34  37
ENDBRANCH   8  30
TORSDOF 6
ENDMDL
MODEL       60
REMARK 921   NORMALIZED FREE ENERGY PREDICTED BY IDOCK:   -5.83 KCAL/MOL
REMARK 922        TOTAL FREE ENERGY PREDICTED BY IDOCK:   -9.40 KCAL/MOL
REMARK 923 INTER-LIGAND FREE ENERGY PREDICTED BY IDOCK:   -8.66 KCAL/MOL
REMARK 924 INTRA-LIGAND FREE ENERGY PREDICTED BY IDOCK:   -0.73 KCAL/MOL
REMARK 927      BINDING AFFINITY PREDICTED BY RF-SCORE:    0.00 PKD
ROOT
HETATM    1  CA  UNL     1     -11.323  11.043  66.099  1.00  0.00     0.246 C  
HETATM    2  C   UNL     1      -9.875  14.665  67.332  1.00  0.00    -0.222 C  
HETATM    3  C   UNL     1     -11.790  11.908  64.868  1.00  0.00    -0.167 C  
HETATM    4  O   UNL     1     -12.175  11.761  63.732  1.00  0.00    -0.418 OA 
HETATM    5  O   UNL     1     -12.449  14.203  63.088  1.00  0.00    -0.678 OA 
HETATM    6  OXT UNL     1     -12.410  16.199  64.059  1.00  0.00    -0.796 OA 
HETATM    7  N   UNL     1     -11.450  13.043  65.512  1.00  0.00    -0.311 N  
HETATM    8  C   UNL     1     -10.621  15.167  66.101  1.00  0.00    -0.318 C  
HETATM    9  CA  UNL     1     -11.369  14.387  65.273  1.00  0.00    -0.346 C  
HETATM   10  S   UNL     1      -9.558  12.889  67.372  1.00  0.00    -0.210 SA 
HETATM   11  C   UNL     1     -11.219  12.435  66.811  1.00  0.00    -0.310 C  
HETATM   12  C   UNL     1     -12.108  15.014  64.106  1.00  0.00    -0.223 C  
ENDROOT
BRANCH   1  13
HETATM   13  N   UNL     1     -10.035  10.314  65.945  1.00  0.00    -0.243 N  
HETATM   14  O   UNL     1     -10.623   8.429  67.107  1.00  0.00    -0.311 OA 
HETATM   15  C   UNL     1      -9.812   9.047  66.434  1.00  0.00    -0.286 C  
HETATM   16  H   UNL     1      -9.274  10.779  65.449  1.00  0.00     0.000 HD 
BRANCH  15  17
HETATM   17  C   UNL     1      -8.451   8.439  66.070  1.00  0.00    -0.132 C  
BRANCH  17  18
HETATM   18  N   UNL     1      -7.879   7.464  66.735  1.00  0.00    -0.108 NA 
HETATM   19  H   UNL     1      -7.135   6.889  66.339  1.00  0.00     0.000 HD 
HETATM   20  O   UNL     1      -8.371   7.275  68.031  1.00  0.00    -0.122 OA 
HETATM   21  H   UNL     1      -7.957   6.568  68.512  1.00  0.00     0.000 HD 
ENDBRANCH  17  18
BRANCH  17  22
HETATM   22  C   UNL     1      -7.728   8.949  64.902  1.00  0.00    -0.112 A  
HETATM   23  S   UNL     1      -6.977   9.295  62.622  1.00  0.00    -0.093 SA 
HETATM   24  H1  UNL     1      -4.774  11.618  64.407  1.00  0.00     0.000 HD 
HETATM   25  N   UNL     1      -7.997   8.496  63.670  1.00  0.00    -0.155 NA 
HETATM   26  N   UNL     1      -6.696   9.894  65.049  1.00  0.00    -0.114 NA 
HETATM   27  H2  UNL     1      -4.927  11.252  62.705  1.00  0.00     0.000 HD 
HETATM   28  C   UNL     1      -6.206  10.189  63.873  1.00  0.00    -0.133 A  
HETATM   29  N   UNL     1      -5.230  11.088  63.665  1.00  0.00    -0.148 NA 
ENDBRANCH  17  22
ENDBRANCH  15  17
ENDBRANCH   1  13
BRANCH   8  30
HETATM   30  C   UNL     1     -10.384  16.608  65.958  1.00  0.00    -0.352 C  
HETATM   31  C   UNL     1      -7.860  16.747  66.487  1.00  0.00    -0.338 C  
HETATM   32  C   UNL     1      -9.220  17.250  66.149  1.00  0.00    -0.193 C  
HETATM   33  C   UNL     1      -7.266  17.916  67.256  1.00  0.00    -0.184 C  
HETATM   34  N   UNL     1      -8.019  19.089  66.856  1.00  0.00    -0.252 N  
HETATM   35  C   UNL     1      -9.152  18.740  66.130  1.00  0.00    -0.141 C  
HETATM   36  O   UNL     1      -9.949  19.464  65.564  1.00  0.00    -0.334 OA 
BRANCH  34  37
HETATM   37  C   UNL     1      -7.461  20.449  66.923  1.00  0.00    -0.298 C  
HETATM   38  C   UNL     1      -6.413  20.739  65.847  1.00  0.00    -0.255 C  
HETATM   39  C   UNL     1      -5.133  20.196  66.455  1.00  0.00    -0.157 C  
HETATM   40  N   UNL     1      -5.225  20.454  67.891  1.00  0.00    -0.189 NA 
HETATM   41  H   UNL     1      -4.579  21.176  68.209  1.00  0.00     0.000 HD 
HETATM   42  C   UNL     1      -6.638  20.769  68.187  1.00  0.00    -0.261 C  
ENDBRANCH  34  37
ENDBRANCH   8  30
TORSDOF 6
ENDMDL
MODEL       61
REMARK 921   NORMALIZED FREE ENERGY PREDICTED BY IDOCK:   -5.78 KCAL/MOL
REMARK 922        TOTAL FREE ENERGY PREDICTED BY IDOCK:   -9.33 KCAL/MOL
REMARK 923 INTER-LIGAND FREE ENERGY PREDICTED BY IDOCK:   -7.74 KCAL/MOL
REMARK 924 INTRA-LIGAND FREE ENERGY PREDICTED BY IDOCK:   -1.59 KCAL/MOL
REMARK 927      BINDING AFFINITY PREDICTED BY RF-SCORE:    0.00 PKD
ROOT
HETATM    1  CA  UNL     1      -9.170   6.993  72.431  1.00  0.00    -0.132 C  
HETATM    2  C   UNL     1      -9.198   8.871  68.796  1.00  0.00    -0.140 C  
HETATM    3  C   UNL     1     -10.533   7.767  72.583  1.00  0.00    -0.302 C  
HETATM    4  O   UNL     1     -11.527   7.757  73.270  1.00  0.00    -0.295 OA 
HETATM    5  O   UNL     1     -12.803   9.646  72.149  1.00  0.00    -0.390 OA 
HETATM    6  OXT UNL     1     -12.453  11.224  70.629  1.00  0.00    -0.342 OA 
HETATM    7  N   UNL     1     -10.283   8.467  71.458  1.00  0.00    -0.226 N  
HETATM    8  C   UNL     1     -10.425   9.564  69.378  1.00  0.00    -0.231 C  
HETATM    9  CA  UNL     1     -10.904   9.370  70.638  1.00  0.00    -0.283 C  
HETATM   10  S   UNL     1      -8.691   7.360  69.641  1.00  0.00    -0.137 SA 
HETATM   11  C   UNL     1      -8.902   8.047  71.303  1.00  0.00    -0.139 C  
HETATM   12  C   UNL     1     -12.106  10.159  71.120  1.00  0.00    -0.388 C  
ENDROOT
BRANCH   1  13
HETATM   13  N   UNL     1      -9.260   5.581  71.967  1.00  0.00    -0.141 N  
HETATM   14  O   UNL     1      -9.993   4.671  73.938  1.00  0.00    -0.144 OA 
HETATM   15  C   UNL     1      -9.703   4.546  72.758  1.00  0.00    -0.140 C  
HETATM   16  H   UNL     1      -8.977   5.369  71.010  1.00  0.00     0.000 HD 
BRANCH  15  17
HETATM   17  C   UNL     1      -9.818   3.189  72.049  1.00  0.00    -0.171 C  
BRANCH  17  18
HETATM   18  N   UNL     1     -10.436   2.148  72.551  1.00  0.00    -0.149 NA 
HETATM   19  H   UNL     1     -11.197   1.672  72.066  1.00  0.00     0.000 HD 
HETATM   20  O   UNL     1      -9.968   1.739  73.804  1.00  0.00    -0.084 OA 
HETATM   21  H   UNL     1     -10.416   0.985  74.168  1.00  0.00     0.000 HD 
ENDBRANCH  17  18
BRANCH  17  22
HETATM   22  C   UNL     1      -9.225   3.023  70.719  1.00  0.00    -0.135 A  
HETATM   23  S   UNL     1      -7.772   2.313  68.912  1.00  0.00    -0.042 SA 
HETATM   24  H1  UNL     1     -10.052   4.537  67.097  1.00  0.00     0.000 HD 
HETATM   25  N   UNL     1      -8.155   2.239  70.532  1.00  0.00    -0.042 NA 
HETATM   26  N   UNL     1      -9.735   3.723  69.611  1.00  0.00    -0.172 NA 
HETATM   27  H2  UNL     1      -8.703   3.571  66.548  1.00  0.00     0.000 HD 
HETATM   28  C   UNL     1      -9.043   3.413  68.545  1.00  0.00    -0.151 A  
HETATM   29  N   UNL     1      -9.299   3.885  67.314  1.00  0.00    -0.178 NA 
ENDBRANCH  17  22
ENDBRANCH  15  17
ENDBRANCH   1  13
BRANCH   8  30
HETATM   30  C   UNL     1     -11.000  10.448  68.357  1.00  0.00    -0.312 C  
HETATM   31  C   UNL     1      -9.418  12.483  68.521  1.00  0.00    -0.100 C  
HETATM   32  C   UNL     1     -10.572  11.679  68.034  1.00  0.00    -0.232 C  
HETATM   33  C   UNL     1      -9.926  13.906  68.360  1.00  0.00    -0.233 C  
HETATM   34  N   UNL     1     -10.983  13.850  67.370  1.00  0.00    -0.284 N  
HETATM   35  C   UNL     1     -11.347  12.538  67.091  1.00  0.00    -0.324 C  
HETATM   36  O   UNL     1     -12.123  12.122  66.252  1.00  0.00    -0.626 OA 
BRANCH  34  37
HETATM   37  C   UNL     1     -11.357  15.009  66.543  1.00  0.00    -0.280 C  
HETATM   38  C   UNL     1     -10.646  15.054  65.189  1.00  0.00    -0.440 C  
HETATM   39  C   UNL     1      -9.324  15.726  65.513  1.00  0.00    -0.020 C  
HETATM   40  N   UNL     1      -9.616  16.714  66.551  1.00  0.00    -0.258 NA 
HETATM   41  H   UNL     1      -9.546  17.675  66.218  1.00  0.00     0.000 HD 
HETATM   42  C   UNL     1     -10.946  16.386  67.103  1.00  0.00    -0.082 C  
ENDBRANCH  34  37
ENDBRANCH   8  30
TORSDOF 6
ENDMDL
MODEL       62
REMARK 921   NORMALIZED FREE ENERGY PREDICTED BY IDOCK:   -5.76 KCAL/MOL
REMARK 922        TOTAL FREE ENERGY PREDICTED BY IDOCK:   -9.30 KCAL/MOL
REMARK 923 INTER-LIGAND FREE ENERGY PREDICTED BY IDOCK:   -7.80 KCAL/MOL
REMARK 924 INTRA-LIGAND FREE ENERGY PREDICTED BY IDOCK:   -1.50 KCAL/MOL
REMARK 927      BINDING AFFINITY PREDICTED BY RF-SCORE:    0.00 PKD
ROOT
HETATM    1  CA  UNL     1     -12.285  11.924  69.465  1.00  0.00    -0.136 C  
HETATM    2  C   UNL     1      -8.822   9.963  68.518  1.00  0.00    -0.122 C  
HETATM    3  C   UNL     1     -12.257  10.913  70.672  1.00  0.00    -0.376 C  
HETATM    4  O   UNL     1     -12.767  10.758  71.757  1.00  0.00    -0.413 OA 
HETATM    5  O   UNL     1     -11.569   8.630  72.458  1.00  0.00    -0.356 OA 
HETATM    6  OXT UNL     1     -10.230   7.099  71.569  1.00  0.00    -0.198 OA 
HETATM    7  N   UNL     1     -11.235  10.238  70.108  1.00  0.00    -0.296 N  
HETATM    8  C   UNL     1      -9.233   9.071  69.684  1.00  0.00    -0.160 C  
HETATM    9  CA  UNL     1     -10.381   9.211  70.403  1.00  0.00    -0.223 C  
HETATM   10  S   UNL     1      -9.643  11.568  68.446  1.00  0.00    -0.188 SA 
HETATM   11  C   UNL     1     -11.287  10.904  68.819  1.00  0.00    -0.292 C  
HETATM   12  C   UNL     1     -10.704   8.226  71.510  1.00  0.00    -0.235 C  
ENDROOT
BRANCH   1  13
HETATM   13  N   UNL     1     -11.726  13.279  69.724  1.00  0.00    -0.409 N  
HETATM   14  O   UNL     1     -13.462  14.077  70.988  1.00  0.00    -0.248 OA 
HETATM   15  C   UNL     1     -12.353  14.227  70.500  1.00  0.00    -0.360 C  
HETATM   16  H   UNL     1     -10.829  13.518  69.302  1.00  0.00     0.000 HD 
BRANCH  15  17
HETATM   17  C   UNL     1     -11.551  15.517  70.724  1.00  0.00    -0.367 C  
BRANCH  17  18
HETATM   18  N   UNL     1     -11.722  16.319  71.746  1.00  0.00    -0.588 NA 
HETATM   19  H   UNL     1     -11.692  17.336  71.660  1.00  0.00     0.000 HD 
HETATM   20  O   UNL     1     -11.947  15.673  72.965  1.00  0.00    -0.428 OA 
HETATM   21  H   UNL     1     -12.070  16.255  73.706  1.00  0.00     0.000 HD 
ENDBRANCH  17  18
BRANCH  17  22
HETATM   22  C   UNL     1     -10.513  15.892  69.760  1.00  0.00    -0.311 A  
HETATM   23  S   UNL     1      -8.398  16.027  68.582  1.00  0.00    -0.216 SA 
HETATM   24  H1  UNL     1     -10.378  18.451  66.673  1.00  0.00     0.000 HD 
HETATM   25  N   UNL     1      -9.287  15.354  69.820  1.00  0.00    -0.208 NA 
HETATM   26  N   UNL     1     -10.763  16.864  68.775  1.00  0.00    -0.341 NA 
HETATM   27  H2  UNL     1      -8.730  17.902  66.482  1.00  0.00     0.000 HD 
HETATM   28  C   UNL     1      -9.690  17.026  68.043  1.00  0.00    -0.260 A  
HETATM   29  N   UNL     1      -9.611  17.860  66.993  1.00  0.00    -0.276 NA 
ENDBRANCH  17  22
ENDBRANCH  15  17
ENDBRANCH   1  13
BRANCH   8  30
HETATM   30  C   UNL     1      -8.188   8.064  69.904  1.00  0.00    -0.119 C  
HETATM   31  C   UNL     1      -8.691   6.408  67.987  1.00  0.00    -0.115 C  
HETATM   32  C   UNL     1      -7.997   6.942  69.191  1.00  0.00    -0.119 C  
HETATM   33  C   UNL     1      -8.533   4.907  68.164  1.00  0.00    -0.102 C  
HETATM   34  N   UNL     1      -7.398   4.719  69.046  1.00  0.00    -0.053 N  
HETATM   35  C   UNL     1      -6.999   5.920  69.621  1.00  0.00    -0.067 C  
HETATM   36  O   UNL     1      -6.034   6.146  70.325  1.00  0.00    -0.027 OA 
BRANCH  34  37
HETATM   37  C   UNL     1      -6.588   3.489  69.044  1.00  0.00    -0.037 C  
HETATM   38  C   UNL     1      -7.241   2.324  68.298  1.00  0.00    -0.047 C  
HETATM   39  C   UNL     1      -8.153   1.710  69.345  1.00  0.00    -0.044 C  
HETATM   40  N   UNL     1      -7.454   1.846  70.621  1.00  0.00    -0.033 NA 
HETATM   41  H   UNL     1      -7.120   0.956  70.991  1.00  0.00     0.000 HD 
HETATM   42  C   UNL     1      -6.373   2.834  70.423  1.00  0.00    -0.024 C  
ENDBRANCH  34  37
ENDBRANCH   8  30
TORSDOF 6
ENDMDL
MODEL       63
REMARK 921   NORMALIZED FREE ENERGY PREDICTED BY IDOCK:   -5.72 KCAL/MOL
REMARK 922        TOTAL FREE ENERGY PREDICTED BY IDOCK:   -9.24 KCAL/MOL
REMARK 923 INTER-LIGAND FREE ENERGY PREDICTED BY IDOCK:   -7.74 KCAL/MOL
REMARK 924 INTRA-LIGAND FREE ENERGY PREDICTED BY IDOCK:   -1.51 KCAL/MOL
REMARK 927      BINDING AFFINITY PREDICTED BY RF-SCORE:    0.00 PKD
ROOT
HETATM    1  CA  UNL     1      -8.562   4.792  69.482  1.00  0.00    -0.085 C  
HETATM    2  C   UNL     1     -10.465   7.094  66.686  1.00  0.00    -0.135 C  
HETATM    3  C   UNL     1      -7.394   5.807  69.187  1.00  0.00    -0.083 C  
HETATM    4  O   UNL     1      -6.350   6.177  69.671  1.00  0.00    -0.032 OA 
HETATM    5  O   UNL     1      -5.719   7.939  67.953  1.00  0.00    -0.035 OA 
HETATM    6  OXT UNL     1      -6.396   8.644  65.960  1.00  0.00    -0.052 OA 
HETATM    7  N   UNL     1      -8.077   6.320  68.143  1.00  0.00    -0.114 N  
HETATM    8  C   UNL     1      -9.090   7.737  66.558  1.00  0.00    -0.208 C  
HETATM    9  CA  UNL     1      -7.980   7.343  67.241  1.00  0.00    -0.115 C  
HETATM   10  S   UNL     1     -10.727   6.123  68.185  1.00  0.00    -0.301 SA 
HETATM   11  C   UNL     1      -9.114   5.303  68.108  1.00  0.00    -0.110 C  
HETATM   12  C   UNL     1      -6.652   8.032  66.988  1.00  0.00    -0.057 C  
ENDROOT
BRANCH   1  13
HETATM   13  N   UNL     1      -9.420   5.094  70.660  1.00  0.00    -0.161 N  
HETATM   14  O   UNL     1      -8.024   4.244  72.265  1.00  0.00    -0.087 OA 
HETATM   15  C   UNL     1      -9.053   4.825  71.959  1.00  0.00    -0.128 C  
HETATM   16  H   UNL     1     -10.330   5.524  70.495  1.00  0.00     0.000 HD 
BRANCH  15  17
HETATM   17  C   UNL     1     -10.040   5.315  73.027  1.00  0.00    -0.176 C  
BRANCH  17  18
HETATM   18  N   UNL     1     -10.084   4.854  74.254  1.00  0.00    -0.201 NA 
HETATM   19  H   UNL     1     -10.229   5.457  75.064  1.00  0.00     0.000 HD 
HETATM   20  O   UNL     1      -9.915   3.471  74.364  1.00  0.00    -0.118 OA 
HETATM   21  H   UNL     1      -9.946   3.137  75.253  1.00  0.00     0.000 HD 
ENDBRANCH  17  18
BRANCH  17  22
HETATM   22  C   UNL     1     -10.994   6.375  72.690  1.00  0.00    -0.253 A  
HETATM   23  S   UNL     1     -12.037   8.551  72.451  1.00  0.00    -0.317 SA 
HETATM   24  H1  UNL     1     -14.632   6.408  71.000  1.00  0.00     0.000 HD 
HETATM   25  N   UNL     1     -10.729   7.659  72.969  1.00  0.00    -0.369 NA 
HETATM   26  N   UNL     1     -12.236   6.067  72.106  1.00  0.00    -0.202 NA 
HETATM   27  H2  UNL     1     -14.550   8.141  71.204  1.00  0.00     0.000 HD 
HETATM   28  C   UNL     1     -12.906   7.172  71.903  1.00  0.00    -0.260 A  
HETATM   29  N   UNL     1     -14.118   7.226  71.325  1.00  0.00    -0.325 NA 
ENDBRANCH  17  22
ENDBRANCH  15  17
ENDBRANCH   1  13
BRANCH   8  30
HETATM   30  C   UNL     1      -9.171   8.847  65.600  1.00  0.00    -0.268 C  
HETATM   31  C   UNL     1      -9.742  10.814  67.173  1.00  0.00    -0.198 C  
HETATM   32  C   UNL     1      -9.471  10.125  65.882  1.00  0.00    -0.249 C  
HETATM   33  C   UNL     1     -10.687  11.927  66.753  1.00  0.00    -0.246 C  
HETATM   34  N   UNL     1     -10.465  12.134  65.335  1.00  0.00    -0.261 N  
HETATM   35  C   UNL     1      -9.682  11.122  64.792  1.00  0.00    -0.257 C  
HETATM   36  O   UNL     1      -9.226  11.029  63.669  1.00  0.00    -0.213 OA 
BRANCH  34  37
HETATM   37  C   UNL     1     -10.746  13.416  64.668  1.00  0.00    -0.411 C  
HETATM   38  C   UNL     1     -10.829  14.605  65.628  1.00  0.00    -0.335 C  
HETATM   39  C   UNL     1     -12.265  14.556  66.115  1.00  0.00    -0.251 C  
HETATM   40  N   UNL     1     -13.064  14.099  64.980  1.00  0.00    -0.681 NA 
HETATM   41  H   UNL     1     -13.659  14.830  64.590  1.00  0.00     0.000 HD 
HETATM   42  C   UNL     1     -12.127  13.525  63.992  1.00  0.00    -0.441 C  
ENDBRANCH  34  37
ENDBRANCH   8  30
TORSDOF 6
ENDMDL
MODEL       64
REMARK 921   NORMALIZED FREE ENERGY PREDICTED BY IDOCK:   -5.67 KCAL/MOL
REMARK 922        TOTAL FREE ENERGY PREDICTED BY IDOCK:   -9.18 KCAL/MOL
REMARK 923 INTER-LIGAND FREE ENERGY PREDICTED BY IDOCK:   -7.63 KCAL/MOL
REMARK 924 INTRA-LIGAND FREE ENERGY PREDICTED BY IDOCK:   -1.55 KCAL/MOL
REMARK 927      BINDING AFFINITY PREDICTED BY RF-SCORE:    0.00 PKD
ROOT
HETATM    1  CA  UNL     1      -9.086  13.192  66.466  1.00  0.00    -0.124 C  
HETATM    2  C   UNL     1      -7.159  10.802  69.170  1.00  0.00    -0.101 C  
HETATM    3  C   UNL     1     -10.008  11.921  66.347  1.00  0.00    -0.213 C  
HETATM    4  O   UNL     1     -11.097  11.609  65.926  1.00  0.00    -0.303 OA 
HETATM    5  O   UNL     1     -11.086   9.154  66.580  1.00  0.00     0.209 OA 
HETATM    6  OXT UNL     1      -9.663   7.644  67.368  1.00  0.00    -0.145 OA 
HETATM    7  N   UNL     1      -9.144  11.200  67.090  1.00  0.00    -0.146 N  
HETATM    8  C   UNL     1      -8.141   9.756  68.657  1.00  0.00    -0.105 C  
HETATM    9  CA  UNL     1      -9.052   9.963  67.666  1.00  0.00    -0.131 C  
HETATM   10  S   UNL     1      -7.592  12.515  68.801  1.00  0.00     0.039 SA 
HETATM   11  C   UNL     1      -8.068  12.176  67.087  1.00  0.00    -0.175 C  
HETATM   12  C   UNL     1      -9.942   8.824  67.207  1.00  0.00    -0.220 C  
ENDROOT
BRANCH   1  13
HETATM   13  N   UNL     1      -9.552  14.263  67.388  1.00  0.00    -0.210 N  
HETATM   14  O   UNL     1     -11.272  15.041  66.090  1.00  0.00    -0.342 OA 
HETATM   15  C   UNL     1     -10.635  15.072  67.131  1.00  0.00    -0.295 C  
HETATM   16  H   UNL     1      -9.039  14.407  68.258  1.00  0.00     0.000 HD 
BRANCH  15  17
HETATM   17  C   UNL     1     -11.007  16.039  68.263  1.00  0.00    -0.335 C  
BRANCH  17  18
HETATM   18  N   UNL     1     -10.935  17.345  68.168  1.00  0.00    -0.265 NA 
HETATM   19  H   UNL     1     -11.615  17.898  67.646  1.00  0.00     0.000 HD 
HETATM   20  O   UNL     1      -9.852  17.920  68.840  1.00  0.00    -0.338 OA 
HETATM   21  H   UNL     1      -9.799  18.866  68.771  1.00  0.00     0.000 HD 
ENDBRANCH  17  18
BRANCH  17  22
HETATM   22  C   UNL     1     -11.494  15.499  69.536  1.00  0.00    -0.333 A  
HETATM   23  S   UNL     1     -12.121  15.300  71.870  1.00  0.00    -0.422 SA 
HETATM   24  H1  UNL     1     -12.859  11.908  70.692  1.00  0.00     0.000 HD 
HETATM   25  N   UNL     1     -11.524  16.255  70.642  1.00  0.00    -0.349 NA 
HETATM   26  N   UNL     1     -11.896  14.155  69.641  1.00  0.00    -0.303 NA 
HETATM   27  H2  UNL     1     -13.047  12.650  72.264  1.00  0.00     0.000 HD 
HETATM   28  C   UNL     1     -12.284  13.913  70.867  1.00  0.00    -0.361 A  
HETATM   29  N   UNL     1     -12.762  12.730  71.288  1.00  0.00    -0.336 NA 
ENDBRANCH  17  22
ENDBRANCH  15  17
ENDBRANCH   1  13
BRANCH   8  30
HETATM   30  C   UNL     1      -7.949   8.513  69.414  1.00  0.00    -0.107 C  
HETATM   31  C   UNL     1      -9.907   8.652  71.092  1.00  0.00    -0.285 C  
HETATM   32  C   UNL     1      -8.691   8.085  70.448  1.00  0.00    -0.136 C  
HETATM   33  C   UNL     1      -9.769   8.166  72.525  1.00  0.00    -0.287 C  
HETATM   34  N   UNL     1      -8.895   7.010  72.480  1.00  0.00    -0.124 N  
HETATM   35  C   UNL     1      -8.289   6.882  71.235  1.00  0.00    -0.119 C  
HETATM   36  O   UNL     1      -7.580   5.986  70.820  1.00  0.00    -0.088 OA 
BRANCH  34  37
HETATM   37  C   UNL     1      -8.929   5.950  73.500  1.00  0.00    -0.128 C  
HETATM   38  C   UNL     1      -9.133   4.548  72.924  1.00  0.00    -0.132 C  
HETATM   39  C   UNL     1     -10.642   4.447  72.786  1.00  0.00    -0.182 C  
HETATM   40  N   UNL     1     -11.203   5.181  73.918  1.00  0.00    -0.427 NA 
HETATM   41  H   UNL     1     -11.643   4.574  74.609  1.00  0.00     0.000 HD 
HETATM   42  C   UNL     1     -10.116   6.010  74.482  1.00  0.00    -0.314 C  
ENDBRANCH  34  37
ENDBRANCH   8  30
TORSDOF 6
ENDMDL
MODEL       65
REMARK 921   NORMALIZED FREE ENERGY PREDICTED BY IDOCK:   -5.58 KCAL/MOL
REMARK 922        TOTAL FREE ENERGY PREDICTED BY IDOCK:   -9.07 KCAL/MOL
REMARK 923 INTER-LIGAND FREE ENERGY PREDICTED BY IDOCK:   -7.67 KCAL/MOL
REMARK 924 INTRA-LIGAND FREE ENERGY PREDICTED BY IDOCK:   -1.40 KCAL/MOL
REMARK 927      BINDING AFFINITY PREDICTED BY RF-SCORE:    0.00 PKD
ROOT
HETATM    1  CA  UNL     1     -10.211  12.221  66.938  1.00  0.00    -0.213 C  
HETATM    2  C   UNL     1      -8.154   9.766  69.483  1.00  0.00    -0.141 C  
HETATM    3  C   UNL     1     -11.285  12.129  68.087  1.00  0.00    -0.267 C  
HETATM    4  O   UNL     1     -12.282  12.699  68.464  1.00  0.00    -0.178 OA 
HETATM    5  O   UNL     1     -12.778  11.304  70.529  1.00  0.00    -0.253 OA 
HETATM    6  OXT UNL     1     -12.075   9.427  71.482  1.00  0.00    -0.329 OA 
HETATM    7  N   UNL     1     -10.577  11.158  68.699  1.00  0.00    -0.183 N  
HETATM    8  C   UNL     1      -9.466   9.786  70.257  1.00  0.00    -0.250 C  
HETATM    9  CA  UNL     1     -10.596  10.433  69.858  1.00  0.00    -0.251 C  
HETATM   10  S   UNL     1      -7.956  11.082  68.264  1.00  0.00    -0.132 SA 
HETATM   11  C   UNL     1      -9.639  10.928  67.613  1.00  0.00    -0.163 C  
HETATM   12  C   UNL     1     -11.859  10.336  70.693  1.00  0.00    -0.347 C  
ENDROOT
BRANCH   1  13
HETATM   13  N   UNL     1      -9.308  13.404  66.970  1.00  0.00    -0.235 N  
HETATM   14  O   UNL     1     -10.540  14.751  65.586  1.00  0.00    -0.301 OA 
HETATM   15  C   UNL     1      -9.576  14.585  66.316  1.00  0.00    -0.304 C  
HETATM   16  H   UNL     1      -8.443  13.335  67.506  1.00  0.00     0.000 HD 
BRANCH  15  17
HETATM   17  C   UNL     1      -8.565  15.711  66.570  1.00  0.00    -0.300 C  
BRANCH  17  18
HETATM   18  N   UNL     1      -8.655  16.911  66.049  1.00  0.00    -0.516 NA 
HETATM   19  H   UNL     1      -9.528  17.284  65.673  1.00  0.00     0.000 HD 
HETATM   20  O   UNL     1      -7.462  17.640  66.049  1.00  0.00    -0.387 OA 
HETATM   21  H   UNL     1      -7.528  18.509  65.671  1.00  0.00     0.000 HD 
ENDBRANCH  17  18
BRANCH  17  22
HETATM   22  C   UNL     1      -7.425  15.465  67.458  1.00  0.00    -0.189 A  
HETATM   23  S   UNL     1      -5.171  15.104  68.275  1.00  0.00    -0.119 SA 
HETATM   24  H1  UNL     1      -7.066  14.794  71.398  1.00  0.00     0.000 HD 
HETATM   25  N   UNL     1      -6.175  15.406  66.980  1.00  0.00    -0.175 NA 
HETATM   26  N   UNL     1      -7.621  15.237  68.833  1.00  0.00    -0.138 NA 
HETATM   27  H2  UNL     1      -5.351  14.700  71.075  1.00  0.00     0.000 HD 
HETATM   28  C   UNL     1      -6.463  15.041  69.409  1.00  0.00    -0.135 A  
HETATM   29  N   UNL     1      -6.300  14.830  70.726  1.00  0.00    -0.050 NA 
ENDBRANCH  17  22
ENDBRANCH  15  17
ENDBRANCH   1  13
BRANCH   8  30
HETATM   30  C   UNL     1      -9.300   9.014  71.495  1.00  0.00    -0.294 C  
HETATM   31  C   UNL     1      -9.593   6.604  70.614  1.00  0.00    -0.177 C  
HETATM   32  C   UNL     1      -9.382   7.680  71.621  1.00  0.00    -0.165 C  
HETATM   33  C   UNL     1     -10.302   5.535  71.429  1.00  0.00    -0.229 C  
HETATM   34  N   UNL     1      -9.972   5.796  72.816  1.00  0.00    -0.174 N  
HETATM   35  C   UNL     1      -9.355   7.033  72.965  1.00  0.00    -0.147 C  
HETATM   36  O   UNL     1      -8.864   7.525  73.963  1.00  0.00    -0.212 OA 
BRANCH  34  37
HETATM   37  C   UNL     1      -9.986   4.744  73.846  1.00  0.00    -0.162 C  
HETATM   38  C   UNL     1      -8.671   3.970  73.952  1.00  0.00    -0.093 C  
HETATM   39  C   UNL     1      -8.807   2.906  72.879  1.00  0.00    -0.083 C  
HETATM   40  N   UNL     1     -10.219   2.528  72.859  1.00  0.00    -0.140 NA 
HETATM   41  H   UNL     1     -10.387   1.591  73.224  1.00  0.00     0.000 HD 
HETATM   42  C   UNL     1     -10.960   3.577  73.591  1.00  0.00    -0.238 C  
ENDBRANCH  34  37
ENDBRANCH   8  30
TORSDOF 6
ENDMDL
MODEL       66
REMARK 921   NORMALIZED FREE ENERGY PREDICTED BY IDOCK:   -5.52 KCAL/MOL
REMARK 922        TOTAL FREE ENERGY PREDICTED BY IDOCK:   -8.98 KCAL/MOL
REMARK 923 INTER-LIGAND FREE ENERGY PREDICTED BY IDOCK:   -7.43 KCAL/MOL
REMARK 924 INTRA-LIGAND FREE ENERGY PREDICTED BY IDOCK:   -1.56 KCAL/MOL
REMARK 927      BINDING AFFINITY PREDICTED BY RF-SCORE:    0.00 PKD
ROOT
HETATM    1  CA  UNL     1      -9.796   6.977  67.554  1.00  0.00    -0.148 C  
HETATM    2  C   UNL     1     -11.048  10.867  67.753  1.00  0.00    -0.309 C  
HETATM    3  C   UNL     1      -9.144   7.496  66.217  1.00  0.00    -0.157 C  
HETATM    4  O   UNL     1      -8.304   7.168  65.414  1.00  0.00    -0.136 OA 
HETATM    5  O   UNL     1      -8.437   9.173  63.859  1.00  0.00    -0.178 OA 
HETATM    6  OXT UNL     1      -9.720  10.957  63.544  1.00  0.00    -0.277 OA 
HETATM    7  N   UNL     1      -9.810   8.664  66.324  1.00  0.00    -0.270 N  
HETATM    8  C   UNL     1     -10.437  10.934  66.358  1.00  0.00    -0.307 C  
HETATM    9  CA  UNL     1      -9.878   9.881  65.701  1.00  0.00    -0.298 C  
HETATM   10  S   UNL     1     -10.528   9.459  68.756  1.00  0.00    -0.201 SA 
HETATM   11  C   UNL     1     -10.685   8.258  67.409  1.00  0.00    -0.166 C  
HETATM   12  C   UNL     1      -9.350  10.062  64.291  1.00  0.00    -0.288 C  
ENDROOT
BRANCH   1  13
HETATM   13  N   UNL     1      -8.914   6.951  68.753  1.00  0.00    -0.131 N  
HETATM   14  O   UNL     1      -7.767   5.037  68.233  1.00  0.00    -0.081 OA 
HETATM   15  C   UNL     1      -7.946   5.997  68.967  1.00  0.00    -0.104 C  
HETATM   16  H   UNL     1      -9.035   7.681  69.455  1.00  0.00     0.000 HD 
BRANCH  15  17
HETATM   17  C   UNL     1      -7.078   6.219  70.213  1.00  0.00    -0.074 C  
BRANCH  17  18
HETATM   18  N   UNL     1      -5.777   6.378  70.185  1.00  0.00    -0.018 NA 
HETATM   19  H   UNL     1      -5.169   5.835  69.571  1.00  0.00     0.000 HD 
HETATM   20  O   UNL     1      -5.289   7.352  71.061  1.00  0.00    -0.027 OA 
HETATM   21  H   UNL     1      -4.346   7.467  71.040  1.00  0.00     0.000 HD 
ENDBRANCH  17  18
BRANCH  17  22
HETATM   22  C   UNL     1      -7.719   6.278  71.530  1.00  0.00    -0.100 A  
HETATM   23  S   UNL     1      -8.198   5.928  73.882  1.00  0.00    -0.107 SA 
HETATM   24  H1  UNL     1     -11.047   8.029  72.928  1.00  0.00     0.000 HD 
HETATM   25  N   UNL     1      -7.195   5.635  72.583  1.00  0.00    -0.089 NA 
HETATM   26  N   UNL     1      -8.928   6.973  71.712  1.00  0.00    -0.133 NA 
HETATM   27  H2  UNL     1     -10.587   7.337  74.466  1.00  0.00     0.000 HD 
HETATM   28  C   UNL     1      -9.298   6.880  72.964  1.00  0.00    -0.140 A  
HETATM   29  N   UNL     1     -10.395   7.465  73.473  1.00  0.00    -0.360 NA 
ENDBRANCH  17  22
ENDBRANCH  15  17
ENDBRANCH   1  13
BRANCH   8  30
HETATM   30  C   UNL     1     -10.541  12.311  65.860  1.00  0.00    -0.290 C  
HETATM   31  C   UNL     1      -8.451  13.381  66.936  1.00  0.00    -0.066 C  
HETATM   32  C   UNL     1      -9.706  13.326  66.138  1.00  0.00    -0.258 C  
HETATM   33  C   UNL     1      -8.458  14.811  67.449  1.00  0.00    -0.201 C  
HETATM   34  N   UNL     1      -9.311  15.561  66.548  1.00  0.00    -0.259 N  
HETATM   35  C   UNL     1     -10.017  14.717  65.699  1.00  0.00    -0.360 C  
HETATM   36  O   UNL     1     -10.742  15.005  64.766  1.00  0.00    -0.404 OA 
BRANCH  34  37
HETATM   37  C   UNL     1      -9.170  17.013  66.349  1.00  0.00    -0.271 C  
HETATM   38  C   UNL     1      -8.355  17.709  67.441  1.00  0.00    -0.217 C  
HETATM   39  C   UNL     1      -9.383  17.969  68.527  1.00  0.00    -0.304 C  
HETATM   40  N   UNL     1     -10.635  18.268  67.837  1.00  0.00    -0.398 NA 
HETATM   41  H   UNL     1     -10.913  19.246  67.920  1.00  0.00     0.000 HD 
HETATM   42  C   UNL     1     -10.477  17.826  66.436  1.00  0.00    -0.297 C  
ENDBRANCH  34  37
ENDBRANCH   8  30
TORSDOF 6
ENDMDL
MODEL       67
REMARK 921   NORMALIZED FREE ENERGY PREDICTED BY IDOCK:   -5.51 KCAL/MOL
REMARK 922        TOTAL FREE ENERGY PREDICTED BY IDOCK:   -8.96 KCAL/MOL
REMARK 923 INTER-LIGAND FREE ENERGY PREDICTED BY IDOCK:   -7.54 KCAL/MOL
REMARK 924 INTRA-LIGAND FREE ENERGY PREDICTED BY IDOCK:   -1.42 KCAL/MOL
REMARK 927      BINDING AFFINITY PREDICTED BY RF-SCORE:    0.00 PKD
ROOT
HETATM    1  CA  UNL     1      -9.087  14.081  68.348  1.00  0.00    -0.191 C  
HETATM    2  C   UNL     1     -10.147  10.228  69.228  1.00  0.00    -0.227 C  
HETATM    3  C   UNL     1      -7.671  13.411  68.190  1.00  0.00    -0.143 C  
HETATM    4  O   UNL     1      -6.587  13.650  67.712  1.00  0.00    -0.145 OA 
HETATM    5  O   UNL     1      -5.413  11.470  68.281  1.00  0.00    -0.043 OA 
HETATM    6  OXT UNL     1      -5.779   9.644  69.490  1.00  0.00    -0.034 OA 
HETATM    7  N   UNL     1      -8.137  12.256  68.707  1.00  0.00    -0.017 N  
HETATM    8  C   UNL     1      -8.642  10.000  69.154  1.00  0.00    -0.158 C  
HETATM    9  CA  UNL     1      -7.717  10.973  68.926  1.00  0.00    -0.140 C  
HETATM   10  S   UNL     1     -10.735  11.754  68.463  1.00  0.00    -0.229 SA 
HETATM   11  C   UNL     1      -9.414  12.780  69.158  1.00  0.00     0.630 C  
HETATM   12  C   UNL     1      -6.240  10.628  68.927  1.00  0.00    -0.044 C  
ENDROOT
BRANCH   1  13
HETATM   13  N   UNL     1      -9.876  14.263  67.099  1.00  0.00    -0.247 N  
HETATM   14  O   UNL     1      -9.072  16.335  66.544  1.00  0.00    -0.222 OA 
HETATM   15  C   UNL     1      -9.768  15.366  66.283  1.00  0.00    -0.299 C  
HETATM   16  H   UNL     1     -10.534  13.530  66.833  1.00  0.00     0.000 HD 
BRANCH  15  17
HETATM   17  C   UNL     1     -10.593  15.302  64.991  1.00  0.00    -0.418 C  
BRANCH  17  18
HETATM   18  N   UNL     1     -10.977  16.355  64.311  1.00  0.00    -1.139 NA 
HETATM   19  H   UNL     1     -10.381  17.173  64.179  1.00  0.00     0.000 HD 
HETATM   20  O   UNL     1     -12.267  16.269  63.780  1.00  0.00    -1.239 OA 
HETATM   21  H   UNL     1     -12.545  17.033  63.288  1.00  0.00     0.000 HD 
ENDBRANCH  17  18
BRANCH  17  22
HETATM   22  C   UNL     1     -10.976  13.995  64.449  1.00  0.00    -0.265 A  
HETATM   23  S   UNL     1     -10.879  11.822  63.376  1.00  0.00    -0.358 SA 
HETATM   24  H1  UNL     1     -14.450  12.005  64.185  1.00  0.00     0.000 HD 
HETATM   25  N   UNL     1     -10.072  13.194  63.869  1.00  0.00    -0.197 NA 
HETATM   26  N   UNL     1     -12.316  13.567  64.482  1.00  0.00    -0.560 NA 
HETATM   27  H2  UNL     1     -13.503  10.751  63.418  1.00  0.00     0.000 HD 
HETATM   28  C   UNL     1     -12.405  12.379  63.941  1.00  0.00    -0.508 A  
HETATM   29  N   UNL     1     -13.545  11.674  63.849  1.00  0.00     0.023 NA 
ENDBRANCH  17  22
ENDBRANCH  15  17
ENDBRANCH   1  13
BRANCH   8  30
HETATM   30  C   UNL     1      -8.368   8.571  69.352  1.00  0.00    -0.119 C  
HETATM   31  C   UNL     1      -8.885   8.315  71.869  1.00  0.00    -0.238 C  
HETATM   32  C   UNL     1      -8.455   7.894  70.508  1.00  0.00    -0.126 C  
HETATM   33  C   UNL     1      -8.073   7.394  72.764  1.00  0.00    -0.104 C  
HETATM   34  N   UNL     1      -7.710   6.252  71.948  1.00  0.00    -0.096 N  
HETATM   35  C   UNL     1      -7.991   6.479  70.605  1.00  0.00    -0.111 C  
HETATM   36  O   UNL     1      -7.905   5.711  69.667  1.00  0.00    -0.088 OA 
BRANCH  34  37
HETATM   37  C   UNL     1      -7.414   4.930  72.523  1.00  0.00    -0.090 C  
HETATM   38  C   UNL     1      -8.486   3.878  72.233  1.00  0.00    -0.098 C  
HETATM   39  C   UNL     1      -9.508   4.114  73.331  1.00  0.00    -0.110 C  
HETATM   40  N   UNL     1      -8.747   4.501  74.517  1.00  0.00    -0.108 NA 
HETATM   41  H   UNL     1      -8.747   3.784  75.243  1.00  0.00     0.000 HD 
HETATM   42  C   UNL     1      -7.388   4.865  74.063  1.00  0.00    -0.082 C  
ENDBRANCH  34  37
ENDBRANCH   8  30
TORSDOF 6
ENDMDL
MODEL       68
REMARK 921   NORMALIZED FREE ENERGY PREDICTED BY IDOCK:   -5.48 KCAL/MOL
REMARK 922        TOTAL FREE ENERGY PREDICTED BY IDOCK:   -8.93 KCAL/MOL
REMARK 923 INTER-LIGAND FREE ENERGY PREDICTED BY IDOCK:   -7.86 KCAL/MOL
REMARK 924 INTRA-LIGAND FREE ENERGY PREDICTED BY IDOCK:   -1.07 KCAL/MOL
REMARK 927      BINDING AFFINITY PREDICTED BY RF-SCORE:    0.00 PKD
ROOT
HETATM    1  CA  UNL     1     -10.398   9.499  66.308  1.00  0.00    -0.156 C  
HETATM    2  C   UNL     1      -8.327  12.294  68.461  1.00  0.00    -0.084 C  
HETATM    3  C   UNL     1     -10.465  10.683  65.272  1.00  0.00    -0.194 C  
HETATM    4  O   UNL     1     -10.707  10.872  64.103  1.00  0.00    -0.362 OA 
HETATM    5  O   UNL     1     -10.299  13.378  64.014  1.00  0.00    -0.336 OA 
HETATM    6  OXT UNL     1      -9.929  15.059  65.416  1.00  0.00    -0.344 OA 
HETATM    7  N   UNL     1      -9.962  11.538  66.186  1.00  0.00    -0.216 N  
HETATM    8  C   UNL     1      -8.748  13.208  67.317  1.00  0.00    -0.210 C  
HETATM    9  CA  UNL     1      -9.532  12.833  66.269  1.00  0.00    -0.196 C  
HETATM   10  S   UNL     1      -8.448  10.526  68.121  1.00  0.00    -0.126 SA 
HETATM   11  C   UNL     1     -10.071  10.644  67.326  1.00  0.00    -0.199 C  
HETATM   12  C   UNL     1      -9.926  13.852  65.216  1.00  0.00    -0.238 C  
ENDROOT
BRANCH   1  13
HETATM   13  N   UNL     1      -9.310   8.504  66.106  1.00  0.00    -0.232 N  
HETATM   14  O   UNL     1     -10.365   6.715  67.073  1.00  0.00    -0.205 OA 
HETATM   15  C   UNL     1      -9.408   7.181  66.475  1.00  0.00    -0.164 C  
HETATM   16  H   UNL     1      -8.444   8.819  65.669  1.00  0.00     0.000 HD 
BRANCH  15  17
HETATM   17  C   UNL     1      -8.213   6.305  66.077  1.00  0.00    -0.125 C  
BRANCH  17  18
HETATM   18  N   UNL     1      -7.032   6.372  66.642  1.00  0.00    -0.066 NA 
HETATM   19  H   UNL     1      -6.766   7.127  67.276  1.00  0.00     0.000 HD 
HETATM   20  O   UNL     1      -6.165   5.328  66.309  1.00  0.00    -0.029 OA 
HETATM   21  H   UNL     1      -5.309   5.377  66.719  1.00  0.00     0.000 HD 
ENDBRANCH  17  18
BRANCH  17  22
HETATM   22  C   UNL     1      -8.376   5.310  65.014  1.00  0.00    -0.146 A  
HETATM   23  S   UNL     1      -8.402   4.240  62.838  1.00  0.00    -0.094 SA 
HETATM   24  H1  UNL     1      -9.690   1.520  64.931  1.00  0.00     0.000 HD 
HETATM   25  N   UNL     1      -8.079   5.603  63.740  1.00  0.00    -0.123 NA 
HETATM   26  N   UNL     1      -8.897   4.034  65.296  1.00  0.00    -0.123 NA 
HETATM   27  H2  UNL     1      -9.357   1.598  63.217  1.00  0.00     0.000 HD 
HETATM   28  C   UNL     1      -8.949   3.333  64.193  1.00  0.00    -0.102 A  
HETATM   29  N   UNL     1      -9.366   2.057  64.127  1.00  0.00    -0.122 NA 
ENDBRANCH  17  22
ENDBRANCH  15  17
ENDBRANCH   1  13
BRANCH   8  30
HETATM   30  C   UNL     1      -8.158  14.536  67.529  1.00  0.00    -0.204 C  
HETATM   31  C   UNL     1     -10.067  15.725  68.799  1.00  0.00    -0.215 C  
HETATM   32  C   UNL     1      -8.743  15.583  68.133  1.00  0.00    -0.164 C  
HETATM   33  C   UNL     1     -10.385  17.194  68.574  1.00  0.00    -0.364 C  
HETATM   34  N   UNL     1      -9.116  17.851  68.331  1.00  0.00    -0.284 N  
HETATM   35  C   UNL     1      -8.096  16.927  68.137  1.00  0.00    -0.201 C  
HETATM   36  O   UNL     1      -6.903  17.123  68.007  1.00  0.00    -0.162 OA 
BRANCH  34  37
HETATM   37  C   UNL     1      -8.900  19.282  68.601  1.00  0.00    -0.374 C  
HETATM   38  C   UNL     1     -10.120  20.156  68.300  1.00  0.00    -0.471 C  
HETATM   39  C   UNL     1      -9.993  20.428  66.813  1.00  0.00    -0.384 C  
HETATM   40  N   UNL     1      -8.561  20.540  66.542  1.00  0.00    -0.545 NA 
HETATM   41  H   UNL     1      -8.270  21.492  66.318  1.00  0.00     0.000 HD 
HETATM   42  C   UNL     1      -7.852  19.976  67.709  1.00  0.00    -0.295 C  
ENDBRANCH  34  37
ENDBRANCH   8  30
TORSDOF 6
ENDMDL
MODEL       69
REMARK 921   NORMALIZED FREE ENERGY PREDICTED BY IDOCK:   -5.45 KCAL/MOL
REMARK 922        TOTAL FREE ENERGY PREDICTED BY IDOCK:   -8.88 KCAL/MOL
REMARK 923 INTER-LIGAND FREE ENERGY PREDICTED BY IDOCK:   -7.76 KCAL/MOL
REMARK 924 INTRA-LIGAND FREE ENERGY PREDICTED BY IDOCK:   -1.12 KCAL/MOL
REMARK 927      BINDING AFFINITY PREDICTED BY RF-SCORE:    0.00 PKD
ROOT
HETATM    1  CA  UNL     1      -9.473   6.243  70.654  1.00  0.00    -0.168 C  
HETATM    2  C   UNL     1      -9.088  10.164  69.552  1.00  0.00    -0.195 C  
HETATM    3  C   UNL     1     -10.938   6.719  70.983  1.00  0.00    -0.255 C  
HETATM    4  O   UNL     1     -12.031   6.252  71.200  1.00  0.00    -0.270 OA 
HETATM    5  O   UNL     1     -13.335   8.414  71.488  1.00  0.00    -0.327 OA 
HETATM    6  OXT UNL     1     -12.937  10.590  71.671  1.00  0.00    -0.412 OA 
HETATM    7  N   UNL     1     -10.585   8.005  70.786  1.00  0.00    -0.211 N  
HETATM    8  C   UNL     1     -10.490  10.268  70.140  1.00  0.00    -0.259 C  
HETATM    9  CA  UNL     1     -11.164   9.243  70.731  1.00  0.00    -0.288 C  
HETATM   10  S   UNL     1      -8.535   8.490  69.166  1.00  0.00    -0.126 SA 
HETATM   11  C   UNL     1      -9.153   7.776  70.711  1.00  0.00    -0.149 C  
HETATM   12  C   UNL     1     -12.538   9.485  71.327  1.00  0.00    -0.339 C  
ENDROOT
BRANCH   1  13
HETATM   13  N   UNL     1      -9.267   5.603  69.327  1.00  0.00    -0.115 N  
HETATM   14  O   UNL     1      -9.500   3.428  70.009  1.00  0.00    -0.171 OA 
HETATM   15  C   UNL     1      -9.338   4.245  69.115  1.00  0.00    -0.161 C  
HETATM   16  H   UNL     1      -9.063   6.204  68.528  1.00  0.00     0.000 HD 
BRANCH  15  17
HETATM   17  C   UNL     1      -9.201   3.807  67.651  1.00  0.00    -0.174 C  
BRANCH  17  18
HETATM   18  N   UNL     1      -9.541   2.622  67.203  1.00  0.00    -0.405 NA 
HETATM   19  H   UNL     1     -10.313   2.480  66.552  1.00  0.00     0.000 HD 
HETATM   20  O   UNL     1      -8.761   1.568  67.689  1.00  0.00    -0.085 OA 
HETATM   21  H   UNL     1      -9.007   0.710  67.365  1.00  0.00     0.000 HD 
ENDBRANCH  17  18
BRANCH  17  22
HETATM   22  C   UNL     1      -8.676   4.756  66.665  1.00  0.00    -0.111 A  
HETATM   23  S   UNL     1      -7.408   5.720  64.837  1.00  0.00    -0.072 SA 
HETATM   24  H1  UNL     1      -9.325   8.647  65.932  1.00  0.00     0.000 HD 
HETATM   25  N   UNL     1      -7.758   4.381  65.764  1.00  0.00    -0.089 NA 
HETATM   26  N   UNL     1      -9.089   6.101  66.670  1.00  0.00    -0.135 NA 
HETATM   27  H2  UNL     1      -8.171   8.443  64.636  1.00  0.00     0.000 HD 
HETATM   28  C   UNL     1      -8.484   6.744  65.705  1.00  0.00    -0.138 A  
HETATM   29  N   UNL     1      -8.687   8.040  65.418  1.00  0.00    -0.117 NA 
ENDBRANCH  17  22
ENDBRANCH  15  17
ENDBRANCH   1  13
BRANCH   8  30
HETATM   30  C   UNL     1     -10.985  11.637  69.949  1.00  0.00     0.104 C  
HETATM   31  C   UNL     1     -10.921  11.827  67.374  1.00  0.00    -0.314 C  
HETATM   32  C   UNL     1     -11.134  12.276  68.778  1.00  0.00    -0.295 C  
HETATM   33  C   UNL     1     -10.538  13.122  66.676  1.00  0.00    -0.279 C  
HETATM   34  N   UNL     1     -11.057  14.196  67.500  1.00  0.00    -0.283 N  
HETATM   35  C   UNL     1     -11.491  13.724  68.733  1.00  0.00    -0.303 C  
HETATM   36  O   UNL     1     -12.064  14.325  69.622  1.00  0.00    -0.317 OA 
BRANCH  34  37
HETATM   37  C   UNL     1     -11.384  15.524  66.957  1.00  0.00    -0.106 C  
HETATM   38  C   UNL     1     -10.578  15.894  65.710  1.00  0.00    -0.368 C  
HETATM   39  C   UNL     1      -9.291  16.459  66.284  1.00  0.00    -0.315 C  
HETATM   40  N   UNL     1      -9.668  17.165  67.507  1.00  0.00    -0.251 NA 
HETATM   41  H   UNL     1      -9.587  18.178  67.425  1.00  0.00     0.000 HD 
HETATM   42  C   UNL     1     -11.031  16.719  67.864  1.00  0.00    -0.260 C  
ENDBRANCH  34  37
ENDBRANCH   8  30
TORSDOF 6
ENDMDL
MODEL       70
REMARK 921   NORMALIZED FREE ENERGY PREDICTED BY IDOCK:   -5.43 KCAL/MOL
REMARK 922        TOTAL FREE ENERGY PREDICTED BY IDOCK:   -8.86 KCAL/MOL
REMARK 923 INTER-LIGAND FREE ENERGY PREDICTED BY IDOCK:   -7.83 KCAL/MOL
REMARK 924 INTRA-LIGAND FREE ENERGY PREDICTED BY IDOCK:   -1.03 KCAL/MOL
REMARK 927      BINDING AFFINITY PREDICTED BY RF-SCORE:    0.00 PKD
ROOT
HETATM    1  CA  UNL     1      -7.643   6.018  69.008  1.00  0.00    -0.091 C  
HETATM    2  C   UNL     1      -9.028   9.708  70.106  1.00  0.00    -0.236 C  
HETATM    3  C   UNL     1      -9.083   5.591  69.483  1.00  0.00    -0.120 C  
HETATM    4  O   UNL     1      -9.845   4.658  69.388  1.00  0.00    -0.192 OA 
HETATM    5  O   UNL     1     -11.799   5.608  70.706  1.00  0.00     0.379 OA 
HETATM    6  OXT UNL     1     -12.245   7.354  72.002  1.00  0.00    -0.297 OA 
HETATM    7  N   UNL     1      -9.301   6.820  69.992  1.00  0.00    -0.158 N  
HETATM    8  C   UNL     1     -10.216   8.899  70.613  1.00  0.00    -0.267 C  
HETATM    9  CA  UNL     1     -10.312   7.542  70.564  1.00  0.00    -0.215 C  
HETATM   10  S   UNL     1      -7.958   8.853  68.930  1.00  0.00    -0.105 SA 
HETATM   11  C   UNL     1      -7.936   7.299  69.861  1.00  0.00    -0.122 C  
HETATM   12  C   UNL     1     -11.527   6.848  71.151  1.00  0.00    -0.304 C  
ENDROOT
BRANCH   1  13
HETATM   13  N   UNL     1      -7.471   6.255  67.549  1.00  0.00    -0.087 N  
HETATM   14  O   UNL     1      -7.854   4.106  66.855  1.00  0.00    -0.095 OA 
HETATM   15  C   UNL     1      -7.631   5.278  66.593  1.00  0.00    -0.088 C  
HETATM   16  H   UNL     1      -7.220   7.194  67.240  1.00  0.00     0.000 HD 
BRANCH  15  17
HETATM   17  C   UNL     1      -7.513   5.762  65.142  1.00  0.00    -0.078 C  
BRANCH  17  18
HETATM   18  N   UNL     1      -7.247   4.978  64.125  1.00  0.00    -0.050 NA 
HETATM   19  H   UNL     1      -7.743   5.042  63.236  1.00  0.00     0.000 HD 
HETATM   20  O   UNL     1      -6.229   4.048  64.356  1.00  0.00    -0.025 OA 
HETATM   21  H   UNL     1      -6.037   3.480  63.619  1.00  0.00     0.000 HD 
ENDBRANCH  17  18
BRANCH  17  22
HETATM   22  C   UNL     1      -7.722   7.181  64.840  1.00  0.00    -0.117 A  
HETATM   23  S   UNL     1      -7.456   9.409  63.921  1.00  0.00    -0.122 SA 
HETATM   24  H1  UNL     1     -10.373   9.925  66.080  1.00  0.00     0.000 HD 
HETATM   25  N   UNL     1      -6.911   7.836  63.998  1.00  0.00    -0.064 NA 
HETATM   26  N   UNL     1      -8.753   7.905  65.466  1.00  0.00    -0.123 NA 
HETATM   27  H2  UNL     1      -9.519  11.016  65.015  1.00  0.00     0.000 HD 
HETATM   28  C   UNL     1      -8.735   9.142  65.039  1.00  0.00    -0.189 A  
HETATM   29  N   UNL     1      -9.615  10.084  65.417  1.00  0.00    -0.257 NA 
ENDBRANCH  17  22
ENDBRANCH  15  17
ENDBRANCH   1  13
BRANCH   8  30
HETATM   30  C   UNL     1     -11.229   9.823  71.140  1.00  0.00    -0.444 C  
HETATM   31  C   UNL     1     -11.400  11.521  69.202  1.00  0.00    -0.351 C  
HETATM   32  C   UNL     1     -11.691  10.930  70.537  1.00  0.00    -0.441 C  
HETATM   33  C   UNL     1     -11.610  13.005  69.454  1.00  0.00    -0.299 C  
HETATM   34  N   UNL     1     -12.466  13.102  70.620  1.00  0.00    -0.321 N  
HETATM   35  C   UNL     1     -12.601  11.871  71.252  1.00  0.00    -0.277 C  
HETATM   36  O   UNL     1     -13.312  11.569  72.191  1.00  0.00    -0.477 OA 
BRANCH  34  37
HETATM   37  C   UNL     1     -13.330  14.266  70.875  1.00  0.00    -0.208 C  
HETATM   38  C   UNL     1     -12.585  15.602  70.852  1.00  0.00    -0.503 C  
HETATM   39  C   UNL     1     -12.035  15.716  72.262  1.00  0.00    -0.467 C  
HETATM   40  N   UNL     1     -13.039  15.119  73.139  1.00  0.00    -0.492 NA 
HETATM   41  H   UNL     1     -13.523  15.805  73.719  1.00  0.00     0.000 HD 
HETATM   42  C   UNL     1     -13.955  14.335  72.283  1.00  0.00    -0.531 C  
ENDBRANCH  34  37
ENDBRANCH   8  30
TORSDOF 6
ENDMDL
MODEL       71
REMARK 921   NORMALIZED FREE ENERGY PREDICTED BY IDOCK:   -5.42 KCAL/MOL
REMARK 922        TOTAL FREE ENERGY PREDICTED BY IDOCK:   -8.84 KCAL/MOL
REMARK 923 INTER-LIGAND FREE ENERGY PREDICTED BY IDOCK:   -7.73 KCAL/MOL
REMARK 924 INTRA-LIGAND FREE ENERGY PREDICTED BY IDOCK:   -1.10 KCAL/MOL
REMARK 927      BINDING AFFINITY PREDICTED BY RF-SCORE:    0.00 PKD
ROOT
HETATM    1  CA  UNL     1      -9.001  12.414  68.598  1.00  0.00     0.036 C  
HETATM    2  C   UNL     1     -10.430   8.585  68.788  1.00  0.00    -0.184 C  
HETATM    3  C   UNL     1      -8.782  12.012  67.091  1.00  0.00    -0.183 C  
HETATM    4  O   UNL     1      -8.573  12.531  66.021  1.00  0.00     0.223 OA 
HETATM    5  O   UNL     1      -8.537  10.446  64.569  1.00  0.00    -0.174 OA 
HETATM    6  OXT UNL     1      -8.530   8.240  64.818  1.00  0.00    -0.148 OA 
HETATM    7  N   UNL     1      -9.077  10.726  67.371  1.00  0.00    -0.143 N  
HETATM    8  C   UNL     1      -9.916   8.526  67.354  1.00  0.00    -0.275 C  
HETATM    9  CA  UNL     1      -9.268   9.539  66.718  1.00  0.00    -0.149 C  
HETATM   10  S   UNL     1     -10.640  10.244  69.465  1.00  0.00    -0.260 SA 
HETATM   11  C   UNL     1      -9.067  10.863  68.817  1.00  0.00    -0.171 C  
HETATM   12  C   UNL     1      -8.757   9.340  65.303  1.00  0.00    -0.184 C  
ENDROOT
BRANCH   1  13
HETATM   13  N   UNL     1     -10.257  13.149  68.911  1.00  0.00    -0.431 N  
HETATM   14  O   UNL     1      -9.298  15.172  69.397  1.00  0.00    -0.218 OA 
HETATM   15  C   UNL     1     -10.295  14.483  69.248  1.00  0.00    -0.142 C  
HETATM   16  H   UNL     1     -11.138  12.637  68.873  1.00  0.00     0.000 HD 
BRANCH  15  17
HETATM   17  C   UNL     1     -11.702  15.069  69.425  1.00  0.00    -0.326 C  
BRANCH  17  18
HETATM   18  N   UNL     1     -12.358  15.704  68.484  1.00  0.00    -0.402 NA 
HETATM   19  H   UNL     1     -12.904  16.547  68.665  1.00  0.00     0.000 HD 
HETATM   20  O   UNL     1     -12.251  15.134  67.212  1.00  0.00    -0.264 OA 
HETATM   21  H   UNL     1     -12.727  15.594  66.530  1.00  0.00     0.000 HD 
ENDBRANCH  17  18
BRANCH  17  22
HETATM   22  C   UNL     1     -12.388  14.910  70.710  1.00  0.00    -0.329 A  
HETATM   23  S   UNL     1     -13.653  13.964  72.550  1.00  0.00    -0.546 SA 
HETATM   24  H1  UNL     1     -13.057  17.348  73.826  1.00  0.00     0.000 HD 
HETATM   25  N   UNL     1     -12.984  13.755  71.039  1.00  0.00    -0.286 NA 
HETATM   26  N   UNL     1     -12.480  15.983  71.615  1.00  0.00    -0.443 NA 
HETATM   27  H2  UNL     1     -13.878  15.977  74.533  1.00  0.00     0.000 HD 
HETATM   28  C   UNL     1     -13.135  15.598  72.680  1.00  0.00    -0.480 A  
HETATM   29  N   UNL     1     -13.365  16.379  73.749  1.00  0.00    -0.540 NA 
ENDBRANCH  17  22
ENDBRANCH  15  17
ENDBRANCH   1  13
BRANCH   8  30
HETATM   30  C   UNL     1     -10.251   7.215  66.784  1.00  0.00    -0.289 C  
HETATM   31  C   UNL     1      -8.442   5.728  67.874  1.00  0.00    -0.103 C  
HETATM   32  C   UNL     1      -9.600   6.060  66.999  1.00  0.00    -0.148 C  
HETATM   33  C   UNL     1      -7.789   4.580  67.122  1.00  0.00    -0.097 C  
HETATM   34  N   UNL     1      -8.818   4.016  66.270  1.00  0.00    -0.117 N  
HETATM   35  C   UNL     1      -9.944   4.830  66.229  1.00  0.00    -0.242 C  
HETATM   36  O   UNL     1     -11.017   4.621  65.698  1.00  0.00    -0.253 OA 
BRANCH  34  37
HETATM   37  C   UNL     1      -8.785   2.619  65.807  1.00  0.00    -0.127 C  
HETATM   38  C   UNL     1      -7.374   2.096  65.527  1.00  0.00    -0.065 C  
HETATM   39  C   UNL     1      -7.109   2.561  64.107  1.00  0.00    -0.049 C  
HETATM   40  N   UNL     1      -8.389   2.479  63.407  1.00  0.00    -0.084 NA 
HETATM   41  H   UNL     1      -8.419   1.732  62.714  1.00  0.00     0.000 HD 
HETATM   42  C   UNL     1      -9.442   2.356  64.438  1.00  0.00    -0.139 C  
ENDBRANCH  34  37
ENDBRANCH   8  30
TORSDOF 6
ENDMDL
MODEL       72
REMARK 921   NORMALIZED FREE ENERGY PREDICTED BY IDOCK:   -5.41 KCAL/MOL
REMARK 922        TOTAL FREE ENERGY PREDICTED BY IDOCK:   -8.82 KCAL/MOL
REMARK 923 INTER-LIGAND FREE ENERGY PREDICTED BY IDOCK:   -7.71 KCAL/MOL
REMARK 924 INTRA-LIGAND FREE ENERGY PREDICTED BY IDOCK:   -1.11 KCAL/MOL
REMARK 927      BINDING AFFINITY PREDICTED BY RF-SCORE:    0.00 PKD
ROOT
HETATM    1  CA  UNL     1      -8.346   9.108  68.745  1.00  0.00    -0.121 C  
HETATM    2  C   UNL     1      -7.795  12.681  66.830  1.00  0.00     0.056 C  
HETATM    3  C   UNL     1      -9.844   9.596  68.734  1.00  0.00    -0.165 C  
HETATM    4  O   UNL     1     -10.958   9.154  68.890  1.00  0.00    -0.124 OA 
HETATM    5  O   UNL     1     -12.288  11.278  68.472  1.00  0.00    -0.543 OA 
HETATM    6  OXT UNL     1     -11.920  13.450  68.201  1.00  0.00    -0.349 OA 
HETATM    7  N   UNL     1      -9.464  10.814  68.298  1.00  0.00    -0.158 N  
HETATM    8  C   UNL     1      -9.270  12.870  67.165  1.00  0.00    -0.225 C  
HETATM    9  CA  UNL     1     -10.027  11.986  67.871  1.00  0.00    -0.197 C  
HETATM   10  S   UNL     1      -7.191  10.983  66.930  1.00  0.00    -0.140 SA 
HETATM   11  C   UNL     1      -8.037  10.623  68.491  1.00  0.00    -0.125 C  
HETATM   12  C   UNL     1     -11.475  12.311  68.186  1.00  0.00    -0.316 C  
ENDROOT
BRANCH   1  13
HETATM   13  N   UNL     1      -7.942   8.187  67.648  1.00  0.00    -0.121 N  
HETATM   14  O   UNL     1      -7.494   6.357  68.950  1.00  0.00    -0.084 OA 
HETATM   15  C   UNL     1      -7.586   6.873  67.847  1.00  0.00    -0.107 C  
HETATM   16  H   UNL     1      -7.928   8.551  66.695  1.00  0.00     0.000 HD 
BRANCH  15  17
HETATM   17  C   UNL     1      -7.309   6.073  66.567  1.00  0.00    -0.081 C  
BRANCH  17  18
HETATM   18  N   UNL     1      -6.125   5.955  66.016  1.00  0.00    -0.031 NA 
HETATM   19  H   UNL     1      -5.700   6.697  65.459  1.00  0.00     0.000 HD 
HETATM   20  O   UNL     1      -5.491   4.732  66.252  1.00  0.00    -0.012 OA 
HETATM   21  H   UNL     1      -4.633   4.646  65.852  1.00  0.00     0.000 HD 
ENDBRANCH  17  18
BRANCH  17  22
HETATM   22  C   UNL     1      -8.414   5.373  65.906  1.00  0.00    -0.127 A  
HETATM   23  S   UNL     1     -10.621   4.508  65.392  1.00  0.00    -0.050 SA 
HETATM   24  H1  UNL     1      -8.675   3.030  62.659  1.00  0.00     0.000 HD 
HETATM   25  N   UNL     1      -9.659   5.424  66.399  1.00  0.00    -0.152 NA 
HETATM   26  N   UNL     1      -8.186   4.587  64.762  1.00  0.00    -0.104 NA 
HETATM   27  H2  UNL     1     -10.379   2.945  63.040  1.00  0.00     0.000 HD 
HETATM   28  C   UNL     1      -9.317   4.066  64.361  1.00  0.00    -0.159 A  
HETATM   29  N   UNL     1      -9.448   3.292  63.271  1.00  0.00    -0.095 NA 
ENDBRANCH  17  22
ENDBRANCH  15  17
ENDBRANCH   1  13
BRANCH   8  30
HETATM   30  C   UNL     1      -9.729  14.140  66.590  1.00  0.00    -0.297 C  
HETATM   31  C   UNL     1      -8.967  15.807  68.409  1.00  0.00    -0.187 C  
HETATM   32  C   UNL     1      -9.611  15.357  67.144  1.00  0.00    -0.218 C  
HETATM   33  C   UNL     1      -9.799  17.024  68.778  1.00  0.00    -0.278 C  
HETATM   34  N   UNL     1     -10.420  17.479  67.550  1.00  0.00    -0.355 N  
HETATM   35  C   UNL     1     -10.266  16.548  66.529  1.00  0.00    -0.300 C  
HETATM   36  O   UNL     1     -10.574  16.642  65.357  1.00  0.00    -0.537 OA 
BRANCH  34  37
HETATM   37  C   UNL     1     -10.841  18.875  67.345  1.00  0.00    -0.374 C  
HETATM   38  C   UNL     1     -10.361  19.475  66.022  1.00  0.00    -0.604 C  
HETATM   39  C   UNL     1      -8.960  19.958  66.350  1.00  0.00    -0.363 C  
HETATM   40  N   UNL     1      -9.007  20.431  67.732  1.00  0.00    -0.237 NA 
HETATM   41  H   UNL     1      -8.926  21.445  67.811  1.00  0.00     0.000 HD 
HETATM   42  C   UNL     1     -10.249  19.900  68.332  1.00  0.00    -0.433 C  
ENDBRANCH  34  37
ENDBRANCH   8  30
TORSDOF 6
ENDMDL
MODEL       73
REMARK 921   NORMALIZED FREE ENERGY PREDICTED BY IDOCK:   -5.38 KCAL/MOL
REMARK 922        TOTAL FREE ENERGY PREDICTED BY IDOCK:   -8.79 KCAL/MOL
REMARK 923 INTER-LIGAND FREE ENERGY PREDICTED BY IDOCK:   -7.47 KCAL/MOL
REMARK 924 INTRA-LIGAND FREE ENERGY PREDICTED BY IDOCK:   -1.32 KCAL/MOL
REMARK 927      BINDING AFFINITY PREDICTED BY RF-SCORE:    0.00 PKD
ROOT
HETATM    1  CA  UNL     1      -8.450   7.395  69.879  1.00  0.00    -0.139 C  
HETATM    2  C   UNL     1      -9.216  10.475  67.297  1.00  0.00    -0.143 C  
HETATM    3  C   UNL     1      -7.539   8.491  70.551  1.00  0.00    -0.074 C  
HETATM    4  O   UNL     1      -6.968   8.699  71.595  1.00  0.00    -0.078 OA 
HETATM    5  O   UNL     1      -5.987  10.981  71.059  1.00  0.00    -0.352 OA 
HETATM    6  OXT UNL     1      -5.752  12.327  69.310  1.00  0.00    -0.066 OA 
HETATM    7  N   UNL     1      -7.726   9.318  69.502  1.00  0.00    -0.079 N  
HETATM    8  C   UNL     1      -8.128  11.171  68.105  1.00  0.00    -0.128 C  
HETATM    9  CA  UNL     1      -7.430  10.599  69.125  1.00  0.00    -0.123 C  
HETATM   10  S   UNL     1      -9.951   9.023  68.078  1.00  0.00    -0.185 SA 
HETATM   11  C   UNL     1      -8.367   8.344  68.635  1.00  0.00    -0.120 C  
HETATM   12  C   UNL     1      -6.332  11.379  69.822  1.00  0.00    -0.139 C  
ENDROOT
BRANCH   1  13
HETATM   13  N   UNL     1      -9.812   7.225  70.454  1.00  0.00    -0.183 N  
HETATM   14  O   UNL     1      -9.186   6.160  72.383  1.00  0.00    -0.141 OA 
HETATM   15  C   UNL     1     -10.056   6.652  71.681  1.00  0.00    -0.184 C  
HETATM   16  H   UNL     1     -10.610   7.550  69.907  1.00  0.00     0.000 HD 
BRANCH  15  17
HETATM   17  C   UNL     1     -11.524   6.673  72.128  1.00  0.00    -0.287 C  
BRANCH  17  18
HETATM   18  N   UNL     1     -12.106   5.699  72.786  1.00  0.00    -0.514 NA 
HETATM   19  H   UNL     1     -13.110   5.680  72.968  1.00  0.00     0.000 HD 
HETATM   20  O   UNL     1     -11.242   4.688  73.217  1.00  0.00    -0.295 OA 
HETATM   21  H   UNL     1     -11.664   3.983  73.694  1.00  0.00     0.000 HD 
ENDBRANCH  17  18
BRANCH  17  22
HETATM   22  C   UNL     1     -12.347   7.848  71.831  1.00  0.00    -0.315 A  
HETATM   23  S   UNL     1     -14.248   9.269  71.332  1.00  0.00     0.142 SA 
HETATM   24  H1  UNL     1     -11.542  11.741  71.285  1.00  0.00     0.000 HD 
HETATM   25  N   UNL     1     -13.672   7.740  71.659  1.00  0.00    -0.368 NA 
HETATM   26  N   UNL     1     -11.760   9.116  71.670  1.00  0.00    -0.353 NA 
HETATM   27  H2  UNL     1     -13.265  11.912  71.049  1.00  0.00     0.000 HD 
HETATM   28  C   UNL     1     -12.692   9.997  71.410  1.00  0.00    -0.415 A  
HETATM   29  N   UNL     1     -12.465  11.309  71.238  1.00  0.00    -0.361 NA 
ENDBRANCH  17  22
ENDBRANCH  15  17
ENDBRANCH   1  13
BRANCH   8  30
HETATM   30  C   UNL     1      -7.977  12.545  67.614  1.00  0.00    -0.170 C  
HETATM   31  C   UNL     1      -9.951  13.713  68.800  1.00  0.00    -0.095 C  
HETATM   32  C   UNL     1      -8.771  13.589  67.902  1.00  0.00    -0.183 C  
HETATM   33  C   UNL     1     -10.759  14.807  68.122  1.00  0.00    -0.247 C  
HETATM   34  N   UNL     1      -9.824  15.552  67.302  1.00  0.00    -0.223 N  
HETATM   35  C   UNL     1      -8.602  14.898  67.206  1.00  0.00    -0.213 C  
HETATM   36  O   UNL     1      -7.572  15.278  66.683  1.00  0.00    -0.005 OA 
BRANCH  34  37
HETATM   37  C   UNL     1     -10.047  16.957  66.925  1.00  0.00    -0.289 C  
HETATM   38  C   UNL     1      -8.767  17.794  66.884  1.00  0.00    -0.262 C  
HETATM   39  C   UNL     1      -8.587  18.222  68.329  1.00  0.00    -0.285 C  
HETATM   40  N   UNL     1      -9.932  18.433  68.860  1.00  0.00    -0.376 NA 
HETATM   41  H   UNL     1     -10.145  19.416  69.031  1.00  0.00     0.000 HD 
HETATM   42  C   UNL     1     -10.876  17.790  67.922  1.00  0.00    -0.218 C  
ENDBRANCH  34  37
ENDBRANCH   8  30
TORSDOF 6
ENDMDL
MODEL       74
REMARK 921   NORMALIZED FREE ENERGY PREDICTED BY IDOCK:   -5.35 KCAL/MOL
REMARK 922        TOTAL FREE ENERGY PREDICTED BY IDOCK:   -8.75 KCAL/MOL
REMARK 923 INTER-LIGAND FREE ENERGY PREDICTED BY IDOCK:   -7.77 KCAL/MOL
REMARK 924 INTRA-LIGAND FREE ENERGY PREDICTED BY IDOCK:   -0.99 KCAL/MOL
REMARK 927      BINDING AFFINITY PREDICTED BY RF-SCORE:    0.00 PKD
ROOT
HETATM    1  CA  UNL     1     -11.214   8.310  72.514  1.00  0.00    -0.376 C  
HETATM    2  C   UNL     1     -10.817   5.508  69.559  1.00  0.00    -0.184 C  
HETATM    3  C   UNL     1      -9.755   7.823  72.853  1.00  0.00    -0.249 C  
HETATM    4  O   UNL     1      -8.792   8.177  73.491  1.00  0.00    -0.256 OA 
HETATM    5  O   UNL     1      -7.220   6.262  72.927  1.00  0.00    -0.079 OA 
HETATM    6  OXT UNL     1      -7.294   4.284  71.921  1.00  0.00    -0.063 OA 
HETATM    7  N   UNL     1      -9.870   6.805  71.977  1.00  0.00    -0.158 N  
HETATM    8  C   UNL     1      -9.515   5.201  70.290  1.00  0.00    -0.233 C  
HETATM    9  CA  UNL     1      -9.102   5.812  71.434  1.00  0.00    -0.140 C  
HETATM   10  S   UNL     1     -11.564   7.103  69.951  1.00  0.00     0.021 SA 
HETATM   11  C   UNL     1     -11.294   6.952  71.736  1.00  0.00    -0.261 C  
HETATM   12  C   UNL     1      -7.807   5.381  72.097  1.00  0.00    -0.106 C  
ENDROOT
BRANCH   1  13
HETATM   13  N   UNL     1     -11.325   9.530  71.668  1.00  0.00    -0.382 N  
HETATM   14  O   UNL     1     -13.550   9.937  72.029  1.00  0.00    -0.384 OA 
HETATM   15  C   UNL     1     -12.483  10.261  71.532  1.00  0.00    -0.422 C  
HETATM   16  H   UNL     1     -10.496   9.842  71.162  1.00  0.00     0.000 HD 
BRANCH  15  17
HETATM   17  C   UNL     1     -12.348  11.543  70.699  1.00  0.00    -0.364 C  
BRANCH  17  18
HETATM   18  N   UNL     1     -11.967  11.568  69.445  1.00  0.00    -0.326 NA 
HETATM   19  H   UNL     1     -11.565  12.397  69.007  1.00  0.00     0.000 HD 
HETATM   20  O   UNL     1     -12.155  10.367  68.753  1.00  0.00    -0.723 OA 
HETATM   21  H   UNL     1     -11.879  10.385  67.845  1.00  0.00     0.000 HD 
ENDBRANCH  17  18
BRANCH  17  22
HETATM   22  C   UNL     1     -12.676  12.833  71.311  1.00  0.00    -0.269 A  
HETATM   23  S   UNL     1     -13.728  14.541  72.675  1.00  0.00    -0.374 SA 
HETATM   24  H1  UNL     1     -11.280  16.566  70.846  1.00  0.00     0.000 HD 
HETATM   25  N   UNL     1     -13.648  12.937  72.228  1.00  0.00    -0.565 NA 
HETATM   26  N   UNL     1     -12.009  14.008  70.916  1.00  0.00    -0.308 NA 
HETATM   27  H2  UNL     1     -12.449  16.997  72.072  1.00  0.00     0.000 HD 
HETATM   28  C   UNL     1     -12.475  15.022  71.599  1.00  0.00    -0.339 A  
HETATM   29  N   UNL     1     -12.023  16.281  71.484  1.00  0.00    -0.411 NA 
ENDBRANCH  17  22
ENDBRANCH  15  17
ENDBRANCH   1  13
BRANCH   8  30
HETATM   30  C   UNL     1      -8.789   4.161  69.550  1.00  0.00    -0.139 C  
HETATM   31  C   UNL     1      -7.693   5.563  67.679  1.00  0.00    -0.093 C  
HETATM   32  C   UNL     1      -8.051   4.337  68.442  1.00  0.00    -0.081 C  
HETATM   33  C   UNL     1      -7.536   5.029  66.265  1.00  0.00    -0.087 C  
HETATM   34  N   UNL     1      -7.276   3.609  66.394  1.00  0.00    -0.063 N  
HETATM   35  C   UNL     1      -7.499   3.170  67.694  1.00  0.00    -0.061 C  
HETATM   36  O   UNL     1      -7.290   2.073  68.176  1.00  0.00    -0.046 OA 
BRANCH  34  37
HETATM   37  C   UNL     1      -6.552   2.839  65.370  1.00  0.00    -0.035 C  
HETATM   38  C   UNL     1      -6.351   3.598  64.057  1.00  0.00    -0.026 C  
HETATM   39  C   UNL     1      -7.649   3.348  63.310  1.00  0.00    -0.063 C  
HETATM   40  N   UNL     1      -8.059   1.989  63.655  1.00  0.00    -0.071 NA 
HETATM   41  H   UNL     1      -7.971   1.335  62.876  1.00  0.00     0.000 HD 
HETATM   42  C   UNL     1      -7.277   1.585  64.843  1.00  0.00    -0.048 C  
ENDBRANCH  34  37
ENDBRANCH   8  30
TORSDOF 6
ENDMDL
MODEL       75
REMARK 921   NORMALIZED FREE ENERGY PREDICTED BY IDOCK:   -5.35 KCAL/MOL
REMARK 922        TOTAL FREE ENERGY PREDICTED BY IDOCK:   -8.74 KCAL/MOL
REMARK 923 INTER-LIGAND FREE ENERGY PREDICTED BY IDOCK:   -7.54 KCAL/MOL
REMARK 924 INTRA-LIGAND FREE ENERGY PREDICTED BY IDOCK:   -1.20 KCAL/MOL
REMARK 927      BINDING AFFINITY PREDICTED BY RF-SCORE:    0.00 PKD
ROOT
HETATM    1  CA  UNL     1     -11.897  11.713  68.966  1.00  0.00    -0.328 C  
HETATM    2  C   UNL     1      -8.327   9.787  69.498  1.00  0.00    -0.161 C  
HETATM    3  C   UNL     1     -12.410  10.522  69.860  1.00  0.00    -0.178 C  
HETATM    4  O   UNL     1     -13.371  10.218  70.526  1.00  0.00    -0.253 OA 
HETATM    5  O   UNL     1     -12.571   7.957  71.366  1.00  0.00    -0.316 OA 
HETATM    6  OXT UNL     1     -10.908   6.534  70.997  1.00  0.00    -0.234 OA 
HETATM    7  N   UNL     1     -11.216   9.904  69.756  1.00  0.00    -0.248 N  
HETATM    8  C   UNL     1      -9.211   8.739  70.164  1.00  0.00    -0.179 C  
HETATM    9  CA  UNL     1     -10.567   8.809  70.256  1.00  0.00    -0.216 C  
HETATM   10  S   UNL     1      -9.079  11.416  69.298  1.00  0.00     0.516 SA 
HETATM   11  C   UNL     1     -10.670  10.769  68.725  1.00  0.00    -0.208 C  
HETATM   12  C   UNL     1     -11.342   7.674  70.899  1.00  0.00    -0.276 C  
ENDROOT
BRANCH   1  13
HETATM   13  N   UNL     1     -11.587  12.985  69.674  1.00  0.00    -0.430 N  
HETATM   14  O   UNL     1     -11.299  14.293  67.815  1.00  0.00    -0.279 OA 
HETATM   15  C   UNL     1     -11.352  14.179  69.030  1.00  0.00    -0.275 C  
HETATM   16  H   UNL     1     -11.545  12.972  70.693  1.00  0.00     0.000 HD 
BRANCH  15  17
HETATM   17  C   UNL     1     -11.157  15.389  69.953  1.00  0.00    -0.293 C  
BRANCH  17  18
HETATM   18  N   UNL     1     -10.232  16.302  69.783  1.00  0.00    -0.215 NA 
HETATM   19  H   UNL     1      -9.237  16.108  69.906  1.00  0.00     0.000 HD 
HETATM   20  O   UNL     1     -10.715  17.562  69.419  1.00  0.00    -0.383 OA 
HETATM   21  H   UNL     1     -10.044  18.223  69.296  1.00  0.00     0.000 HD 
ENDBRANCH  17  18
BRANCH  17  22
HETATM   22  C   UNL     1     -12.058  15.571  71.095  1.00  0.00    -0.380 A  
HETATM   23  S   UNL     1     -14.058  15.702  72.459  1.00  0.00    -0.318 SA 
HETATM   24  H1  UNL     1     -11.510  16.625  74.927  1.00  0.00     0.000 HD 
HETATM   25  N   UNL     1     -13.381  15.400  70.967  1.00  0.00    -0.497 NA 
HETATM   26  N   UNL     1     -11.560  15.978  72.346  1.00  0.00    -0.413 NA 
HETATM   27  H2  UNL     1     -13.242  16.440  75.071  1.00  0.00     0.000 HD 
HETATM   28  C   UNL     1     -12.550  16.073  73.197  1.00  0.00    -0.520 A  
HETATM   29  N   UNL     1     -12.405  16.406  74.490  1.00  0.00    -0.731 NA 
ENDBRANCH  17  22
ENDBRANCH  15  17
ENDBRANCH   1  13
BRANCH   8  30
HETATM   30  C   UNL     1      -8.359   7.667  70.694  1.00  0.00    -0.125 C  
HETATM   31  C   UNL     1      -7.762   6.396  68.527  1.00  0.00    -0.104 C  
HETATM   32  C   UNL     1      -7.782   6.681  69.988  1.00  0.00    -0.102 C  
HETATM   33  C   UNL     1      -7.633   4.882  68.496  1.00  0.00    -0.077 C  
HETATM   34  N   UNL     1      -7.072   4.496  69.776  1.00  0.00    -0.049 N  
HETATM   35  C   UNL     1      -7.074   5.560  70.671  1.00  0.00    -0.062 C  
HETATM   36  O   UNL     1      -6.596   5.619  71.787  1.00  0.00    -0.050 OA 
BRANCH  34  37
HETATM   37  C   UNL     1      -6.305   3.254  69.963  1.00  0.00    -0.028 C  
HETATM   38  C   UNL     1      -6.676   2.146  68.975  1.00  0.00    -0.033 C  
HETATM   39  C   UNL     1      -7.878   1.489  69.629  1.00  0.00    -0.042 C  
HETATM   40  N   UNL     1      -7.634   1.537  71.069  1.00  0.00    -0.033 NA 
HETATM   41  H   UNL     1      -7.437   0.621  71.472  1.00  0.00     0.000 HD 
HETATM   42  C   UNL     1      -6.549   2.515  71.294  1.00  0.00    -0.023 C  
ENDBRANCH  34  37
ENDBRANCH   8  30
TORSDOF 6
ENDMDL
MODEL       76
REMARK 921   NORMALIZED FREE ENERGY PREDICTED BY IDOCK:   -5.34 KCAL/MOL
REMARK 922        TOTAL FREE ENERGY PREDICTED BY IDOCK:   -8.74 KCAL/MOL
REMARK 923 INTER-LIGAND FREE ENERGY PREDICTED BY IDOCK:   -7.34 KCAL/MOL
REMARK 924 INTRA-LIGAND FREE ENERGY PREDICTED BY IDOCK:   -1.40 KCAL/MOL
REMARK 927      BINDING AFFINITY PREDICTED BY RF-SCORE:    0.00 PKD
ROOT
HETATM    1  CA  UNL     1     -11.307   8.119  72.658  1.00  0.00    -0.381 C  
HETATM    2  C   UNL     1     -10.777   5.513  69.549  1.00  0.00    -0.262 C  
HETATM    3  C   UNL     1      -9.846   7.643  73.005  1.00  0.00    -0.261 C  
HETATM    4  O   UNL     1      -8.906   7.976  73.687  1.00  0.00    -0.255 OA 
HETATM    5  O   UNL     1      -7.280   6.132  73.047  1.00  0.00    -0.083 OA 
HETATM    6  OXT UNL     1      -7.285   4.219  71.921  1.00  0.00    -0.055 OA 
HETATM    7  N   UNL     1      -9.917   6.678  72.065  1.00  0.00    -0.166 N  
HETATM    8  C   UNL     1      -9.487   5.188  70.293  1.00  0.00    -0.233 C  
HETATM    9  CA  UNL     1      -9.114   5.736  71.482  1.00  0.00    -0.140 C  
HETATM   10  S   UNL     1     -11.569   7.065  70.019  1.00  0.00    -0.121 SA 
HETATM   11  C   UNL     1     -11.338   6.811  71.798  1.00  0.00    -0.269 C  
HETATM   12  C   UNL     1      -7.827   5.292  72.150  1.00  0.00    -0.105 C  
ENDROOT
BRANCH   1  13
HETATM   13  N   UNL     1     -11.424   9.386  71.887  1.00  0.00    -0.333 N  
HETATM   14  O   UNL     1     -13.709   9.546  71.929  1.00  0.00    -0.377 OA 
HETATM   15  C   UNL     1     -12.622  10.011  71.622  1.00  0.00    -0.427 C  
HETATM   16  H   UNL     1     -10.569   9.816  71.534  1.00  0.00     0.000 HD 
BRANCH  15  17
HETATM   17  C   UNL     1     -12.506  11.362  70.904  1.00  0.00    -0.379 C  
BRANCH  17  18
HETATM   18  N   UNL     1     -12.883  12.505  71.423  1.00  0.00    -0.329 NA 
HETATM   19  H   UNL     1     -12.738  13.399  70.953  1.00  0.00     0.000 HD 
HETATM   20  O   UNL     1     -13.501  12.403  72.674  1.00  0.00    -0.600 OA 
HETATM   21  H   UNL     1     -13.774  13.231  73.050  1.00  0.00     0.000 HD 
ENDBRANCH  17  18
BRANCH  17  22
HETATM   22  C   UNL     1     -11.926  11.411  69.559  1.00  0.00    -0.341 A  
HETATM   23  S   UNL     1     -11.260  12.184  67.359  1.00  0.00    -0.324 SA 
HETATM   24  H1  UNL     1      -9.954   8.760  67.283  1.00  0.00     0.000 HD 
HETATM   25  N   UNL     1     -12.020  12.515  68.805  1.00  0.00    -0.291 NA 
HETATM   26  N   UNL     1     -11.297  10.282  69.005  1.00  0.00    -0.213 NA 
HETATM   27  H2  UNL     1      -9.888  10.047  66.102  1.00  0.00     0.000 HD 
HETATM   28  C   UNL     1     -10.866  10.571  67.804  1.00  0.00    -0.294 A  
HETATM   29  N   UNL     1     -10.188   9.717  67.019  1.00  0.00    -0.230 NA 
ENDBRANCH  17  22
ENDBRANCH  15  17
ENDBRANCH   1  13
BRANCH   8  30
HETATM   30  C   UNL     1      -8.721   4.211  69.509  1.00  0.00    -0.124 C  
HETATM   31  C   UNL     1      -7.935   5.674  67.531  1.00  0.00    -0.102 C  
HETATM   32  C   UNL     1      -8.099   4.435  68.340  1.00  0.00    -0.082 C  
HETATM   33  C   UNL     1      -7.842   5.125  66.117  1.00  0.00    -0.103 C  
HETATM   34  N   UNL     1      -7.426   3.742  66.245  1.00  0.00    -0.079 N  
HETATM   35  C   UNL     1      -7.493   3.313  67.566  1.00  0.00    -0.062 C  
HETATM   36  O   UNL     1      -7.132   2.255  68.044  1.00  0.00    -0.046 OA 
BRANCH  34  37
HETATM   37  C   UNL     1      -6.713   3.027  65.175  1.00  0.00    -0.040 C  
HETATM   38  C   UNL     1      -6.666   3.790  63.849  1.00  0.00    -0.043 C  
HETATM   39  C   UNL     1      -7.987   3.429  63.195  1.00  0.00    -0.072 C  
HETATM   40  N   UNL     1      -8.260   2.043  63.570  1.00  0.00    -0.072 NA 
HETATM   41  H   UNL     1      -8.172   1.393  62.788  1.00  0.00     0.000 HD 
HETATM   42  C   UNL     1      -7.368   1.714  64.701  1.00  0.00    -0.053 C  
ENDBRANCH  34  37
ENDBRANCH   8  30
TORSDOF 6
ENDMDL
MODEL       77
REMARK 921   NORMALIZED FREE ENERGY PREDICTED BY IDOCK:   -5.34 KCAL/MOL
REMARK 922        TOTAL FREE ENERGY PREDICTED BY IDOCK:   -8.73 KCAL/MOL
REMARK 923 INTER-LIGAND FREE ENERGY PREDICTED BY IDOCK:   -8.24 KCAL/MOL
REMARK 924 INTRA-LIGAND FREE ENERGY PREDICTED BY IDOCK:   -0.50 KCAL/MOL
REMARK 927      BINDING AFFINITY PREDICTED BY RF-SCORE:    0.00 PKD
ROOT
HETATM    1  CA  UNL     1      -9.342   9.433  68.667  1.00  0.00    -0.142 C  
HETATM    2  C   UNL     1      -7.261  12.776  67.559  1.00  0.00    -0.154 C  
HETATM    3  C   UNL     1     -10.562  10.331  68.238  1.00  0.00    -0.221 C  
HETATM    4  O   UNL     1     -11.733  10.222  67.958  1.00  0.00    -0.293 OA 
HETATM    5  O   UNL     1     -12.242  12.655  67.432  1.00  0.00    -0.406 OA 
HETATM    6  OXT UNL     1     -11.262  14.639  67.604  1.00  0.00    -0.295 OA 
HETATM    7  N   UNL     1      -9.756  11.406  68.125  1.00  0.00    -0.186 N  
HETATM    8  C   UNL     1      -8.659  13.366  67.418  1.00  0.00    -0.204 C  
HETATM    9  CA  UNL     1      -9.814  12.707  67.707  1.00  0.00    -0.212 C  
HETATM   10  S   UNL     1      -7.185  10.974  67.611  1.00  0.00    -0.097 SA 
HETATM   11  C   UNL     1      -8.588  10.804  68.743  1.00  0.00    -0.156 C  
HETATM   12  C   UNL     1     -11.146  13.422  67.575  1.00  0.00    -0.274 C  
ENDROOT
BRANCH   1  13
HETATM   13  N   UNL     1      -8.826   8.484  67.644  1.00  0.00    -0.136 N  
HETATM   14  O   UNL     1     -10.707   7.187  67.471  1.00  0.00    -0.254 OA 
HETATM   15  C   UNL     1      -9.575   7.462  67.105  1.00  0.00    -0.159 C  
HETATM   16  H   UNL     1      -7.865   8.596  67.323  1.00  0.00     0.000 HD 
BRANCH  15  17
HETATM   17  C   UNL     1      -8.884   6.669  65.987  1.00  0.00    -0.139 C  
BRANCH  17  18
HETATM   18  N   UNL     1      -8.463   7.198  64.864  1.00  0.00    -0.338 NA 
HETATM   19  H   UNL     1      -7.898   6.681  64.190  1.00  0.00     0.000 HD 
HETATM   20  O   UNL     1      -8.849   8.526  64.663  1.00  0.00    -0.405 OA 
HETATM   21  H   UNL     1      -8.543   8.909  63.849  1.00  0.00     0.000 HD 
ENDBRANCH  17  18
BRANCH  17  22
HETATM   22  C   UNL     1      -8.653   5.233  66.165  1.00  0.00    -0.120 A  
HETATM   23  S   UNL     1      -9.017   2.845  66.380  1.00  0.00    -0.139 SA 
HETATM   24  H1  UNL     1      -5.387   3.008  66.859  1.00  0.00     0.000 HD 
HETATM   25  N   UNL     1      -9.668   4.359  66.132  1.00  0.00    -0.194 NA 
HETATM   26  N   UNL     1      -7.361   4.739  66.424  1.00  0.00    -0.080 NA 
HETATM   27  H2  UNL     1      -6.487   1.650  66.830  1.00  0.00     0.000 HD 
HETATM   28  C   UNL     1      -7.411   3.437  66.546  1.00  0.00    -0.076 A  
HETATM   29  N   UNL     1      -6.339   2.657  66.761  1.00  0.00    -0.028 NA 
ENDBRANCH  17  22
ENDBRANCH  15  17
ENDBRANCH   1  13
BRANCH   8  30
HETATM   30  C   UNL     1      -8.546  14.739  66.909  1.00  0.00    -0.254 C  
HETATM   31  C   UNL     1      -8.640  16.088  69.109  1.00  0.00    -0.247 C  
HETATM   32  C   UNL     1      -8.565  15.865  67.639  1.00  0.00    -0.172 C  
HETATM   33  C   UNL     1      -9.350  17.429  69.196  1.00  0.00    -0.009 C  
HETATM   34  N   UNL     1      -9.142  18.082  67.918  1.00  0.00    -0.263 N  
HETATM   35  C   UNL     1      -8.606  17.205  66.983  1.00  0.00    -0.218 C  
HETATM   36  O   UNL     1      -8.220  17.436  65.853  1.00  0.00    -0.537 OA 
BRANCH  34  37
HETATM   37  C   UNL     1      -9.178  19.545  67.761  1.00  0.00    -0.324 C  
HETATM   38  C   UNL     1     -10.522  20.078  67.261  1.00  0.00    -0.505 C  
HETATM   39  C   UNL     1     -10.413  19.930  65.754  1.00  0.00    -0.414 C  
HETATM   40  N   UNL     1      -9.016  20.199  65.420  1.00  0.00    -0.306 NA 
HETATM   41  H   UNL     1      -8.886  21.081  64.925  1.00  0.00     0.000 HD 
HETATM   42  C   UNL     1      -8.244  20.120  66.678  1.00  0.00    -0.282 C  
ENDBRANCH  34  37
ENDBRANCH   8  30
TORSDOF 6
ENDMDL
MODEL       78
REMARK 921   NORMALIZED FREE ENERGY PREDICTED BY IDOCK:   -5.34 KCAL/MOL
REMARK 922        TOTAL FREE ENERGY PREDICTED BY IDOCK:   -8.73 KCAL/MOL
REMARK 923 INTER-LIGAND FREE ENERGY PREDICTED BY IDOCK:   -8.93 KCAL/MOL
REMARK 924 INTRA-LIGAND FREE ENERGY PREDICTED BY IDOCK:    0.20 KCAL/MOL
REMARK 927      BINDING AFFINITY PREDICTED BY RF-SCORE:    0.00 PKD
ROOT
HETATM    1  CA  UNL     1     -11.282  13.967  67.533  1.00  0.00    -0.309 C  
HETATM    2  C   UNL     1      -9.000  10.722  68.534  1.00  0.00    -0.160 C  
HETATM    3  C   UNL     1     -12.009  13.580  68.875  1.00  0.00    -0.341 C  
HETATM    4  O   UNL     1     -12.773  14.059  69.680  1.00  0.00    -0.152 OA 
HETATM    5  O   UNL     1     -12.896  12.116  71.313  1.00  0.00    -0.358 OA 
HETATM    6  OXT UNL     1     -12.246   9.997  71.437  1.00  0.00    -0.362 OA 
HETATM    7  N   UNL     1     -11.313  12.427  68.944  1.00  0.00    -0.273 N  
HETATM    8  C   UNL     1     -10.038  10.574  69.640  1.00  0.00    -0.177 C  
HETATM    9  CA  UNL     1     -11.126  11.377  69.799  1.00  0.00    -0.126 C  
HETATM   10  S   UNL     1      -8.946  12.341  67.739  1.00  0.00    -0.186 SA 
HETATM   11  C   UNL     1     -10.745  12.497  67.608  1.00  0.00    -0.218 C  
HETATM   12  C   UNL     1     -12.119  11.095  70.911  1.00  0.00    -0.322 C  
ENDROOT
BRANCH   1  13
HETATM   13  N   UNL     1     -10.241  15.026  67.626  1.00  0.00    -0.235 N  
HETATM   14  O   UNL     1     -10.558  15.557  69.832  1.00  0.00    -0.273 OA 
HETATM   15  C   UNL     1      -9.944  15.704  68.787  1.00  0.00    -0.213 C  
HETATM   16  H   UNL     1      -9.717  15.263  66.783  1.00  0.00     0.000 HD 
BRANCH  15  17
HETATM   17  C   UNL     1      -8.763  16.679  68.686  1.00  0.00    -0.250 C  
BRANCH  17  18
HETATM   18  N   UNL     1      -7.548  16.405  69.096  1.00  0.00    -0.235 NA 
HETATM   19  H   UNL     1      -6.744  16.990  68.865  1.00  0.00     0.000 HD 
HETATM   20  O   UNL     1      -7.441  15.250  69.877  1.00  0.00    -0.177 OA 
HETATM   21  H   UNL     1      -6.560  15.053  70.173  1.00  0.00     0.000 HD 
ENDBRANCH  17  18
BRANCH  17  22
HETATM   22  C   UNL     1      -8.972  17.998  68.084  1.00  0.00    -0.283 A  
HETATM   23  S   UNL     1      -9.984  19.873  66.926  1.00  0.00    -0.468 SA 
HETATM   24  H1  UNL     1      -6.671  21.257  67.661  1.00  0.00     0.000 HD 
HETATM   25  N   UNL     1     -10.132  18.312  67.492  1.00  0.00    -0.333 NA 
HETATM   26  N   UNL     1      -7.940  18.954  68.069  1.00  0.00    -0.278 NA 
HETATM   27  H2  UNL     1      -8.062  21.955  66.865  1.00  0.00     0.000 HD 
HETATM   28  C   UNL     1      -8.364  20.042  67.479  1.00  0.00    -0.334 A  
HETATM   29  N   UNL     1      -7.631  21.158  67.333  1.00  0.00    -0.357 NA 
ENDBRANCH  17  22
ENDBRANCH  15  17
ENDBRANCH   1  13
BRANCH   8  30
HETATM   30  C   UNL     1      -9.661   9.443  70.497  1.00  0.00    -0.330 C  
HETATM   31  C   UNL     1     -10.637   7.463  69.159  1.00  0.00    -0.213 C  
HETATM   32  C   UNL     1      -9.946   8.149  70.284  1.00  0.00    -0.189 C  
HETATM   33  C   UNL     1     -11.260   6.260  69.848  1.00  0.00    -0.429 C  
HETATM   34  N   UNL     1     -10.495   6.047  71.061  1.00  0.00    -0.219 N  
HETATM   35  C   UNL     1      -9.645   7.116  71.318  1.00  0.00    -0.163 C  
HETATM   36  O   UNL     1      -8.801   7.229  72.186  1.00  0.00    -0.126 OA 
BRANCH  34  37
HETATM   37  C   UNL     1     -10.399   4.732  71.717  1.00  0.00    -0.160 C  
HETATM   38  C   UNL     1     -11.332   4.574  72.919  1.00  0.00    -0.160 C  
HETATM   39  C   UNL     1     -10.536   5.187  74.057  1.00  0.00    -0.288 C  
HETATM   40  N   UNL     1      -9.136   4.859  73.797  1.00  0.00    -0.113 NA 
HETATM   41  H   UNL     1      -8.757   4.176  74.453  1.00  0.00     0.000 HD 
HETATM   42  C   UNL     1      -9.046   4.421  72.388  1.00  0.00    -0.120 C  
ENDBRANCH  34  37
ENDBRANCH   8  30
TORSDOF 6
ENDMDL
MODEL       79
REMARK 921   NORMALIZED FREE ENERGY PREDICTED BY IDOCK:   -5.32 KCAL/MOL
REMARK 922        TOTAL FREE ENERGY PREDICTED BY IDOCK:   -8.71 KCAL/MOL
REMARK 923 INTER-LIGAND FREE ENERGY PREDICTED BY IDOCK:   -7.65 KCAL/MOL
REMARK 924 INTRA-LIGAND FREE ENERGY PREDICTED BY IDOCK:   -1.05 KCAL/MOL
REMARK 927      BINDING AFFINITY PREDICTED BY RF-SCORE:    0.00 PKD
ROOT
HETATM    1  CA  UNL     1      -8.486  12.461  68.153  1.00  0.00    -0.180 C  
HETATM    2  C   UNL     1     -10.781   9.108  67.678  1.00  0.00    -0.189 C  
HETATM    3  C   UNL     1      -7.486  11.621  67.272  1.00  0.00    -0.143 C  
HETATM    4  O   UNL     1      -6.493  11.779  66.602  1.00  0.00    -0.114 OA 
HETATM    5  O   UNL     1      -6.172   9.389  65.802  1.00  0.00    -0.058 OA 
HETATM    6  OXT UNL     1      -7.000   7.369  66.204  1.00  0.00    -0.062 OA 
HETATM    7  N   UNL     1      -8.266  10.528  67.395  1.00  0.00    -0.117 N  
HETATM    8  C   UNL     1      -9.517   8.568  67.020  1.00  0.00    -0.223 C  
HETATM    9  CA  UNL     1      -8.342   9.249  66.916  1.00  0.00    -0.123 C  
HETATM   10  S   UNL     1     -10.857  10.903  67.848  1.00  0.00    -0.269 SA 
HETATM   11  C   UNL     1      -9.146  11.065  68.418  1.00  0.00    -0.161 C  
HETATM   12  C   UNL     1      -7.135   8.583  66.283  1.00  0.00    -0.078 C  
ENDROOT
BRANCH   1  13
HETATM   13  N   UNL     1      -9.344  13.438  67.430  1.00  0.00    -0.212 N  
HETATM   14  O   UNL     1      -7.724  15.005  67.019  1.00  0.00    -0.198 OA 
HETATM   15  C   UNL     1      -8.874  14.614  66.890  1.00  0.00    -0.242 C  
HETATM   16  H   UNL     1     -10.337  13.226  67.328  1.00  0.00     0.000 HD 
BRANCH  15  17
HETATM   17  C   UNL     1      -9.906  15.424  66.094  1.00  0.00    -0.311 C  
BRANCH  17  18
HETATM   18  N   UNL     1     -10.692  14.913  65.178  1.00  0.00    -0.381 NA 
HETATM   19  H   UNL     1     -11.670  15.188  65.075  1.00  0.00     0.000 HD 
HETATM   20  O   UNL     1     -10.086  13.960  64.353  1.00  0.00    -0.711 OA 
HETATM   21  H   UNL     1     -10.657  13.590  63.690  1.00  0.00     0.000 HD 
ENDBRANCH  17  18
BRANCH  17  22
HETATM   22  C   UNL     1     -10.057  16.856  66.365  1.00  0.00    -0.322 A  
HETATM   23  S   UNL     1     -10.428  19.234  66.070  1.00  0.00    -0.435 SA 
HETATM   24  H1  UNL     1      -9.723  19.113  69.665  1.00  0.00     0.000 HD 
HETATM   25  N   UNL     1     -10.350  17.719  65.382  1.00  0.00    -0.533 NA 
HETATM   26  N   UNL     1      -9.850  17.370  67.658  1.00  0.00    -0.274 NA 
HETATM   27  H2  UNL     1     -10.130  20.448  68.614  1.00  0.00     0.000 HD 
HETATM   28  C   UNL     1     -10.039  18.664  67.645  1.00  0.00    -0.367 A  
HETATM   29  N   UNL     1      -9.953  19.451  68.731  1.00  0.00    -0.434 NA 
ENDBRANCH  17  22
ENDBRANCH  15  17
ENDBRANCH   1  13
BRANCH   8  30
HETATM   30  C   UNL     1      -9.785   7.217  66.512  1.00  0.00    -0.199 C  
HETATM   31  C   UNL     1      -9.445   5.811  68.652  1.00  0.00    -0.144 C  
HETATM   32  C   UNL     1      -9.724   6.073  67.213  1.00  0.00    -0.138 C  
HETATM   33  C   UNL     1      -8.811   4.431  68.611  1.00  0.00    -0.104 C  
HETATM   34  N   UNL     1      -9.244   3.822  67.369  1.00  0.00    -0.168 N  
HETATM   35  C   UNL     1      -9.861   4.750  66.538  1.00  0.00    -0.217 C  
HETATM   36  O   UNL     1     -10.422   4.569  65.475  1.00  0.00    -0.272 OA 
BRANCH  34  37
HETATM   37  C   UNL     1      -9.319   2.364  67.185  1.00  0.00    -0.036 C  
HETATM   38  C   UNL     1      -8.235   1.592  67.941  1.00  0.00    -0.068 C  
HETATM   39  C   UNL     1      -7.051   1.639  66.992  1.00  0.00    -0.046 C  
HETATM   40  N   UNL     1      -7.610   1.565  65.643  1.00  0.00    -0.064 NA 
HETATM   41  H   UNL     1      -7.415   0.679  65.178  1.00  0.00     0.000 HD 
HETATM   42  C   UNL     1      -9.054   1.859  65.753  1.00  0.00    -0.059 C  
ENDBRANCH  34  37
ENDBRANCH   8  30
TORSDOF 6
ENDMDL
MODEL       80
REMARK 921   NORMALIZED FREE ENERGY PREDICTED BY IDOCK:   -5.31 KCAL/MOL
REMARK 922        TOTAL FREE ENERGY PREDICTED BY IDOCK:   -8.70 KCAL/MOL
REMARK 923 INTER-LIGAND FREE ENERGY PREDICTED BY IDOCK:   -7.58 KCAL/MOL
REMARK 924 INTRA-LIGAND FREE ENERGY PREDICTED BY IDOCK:   -1.11 KCAL/MOL
REMARK 927      BINDING AFFINITY PREDICTED BY RF-SCORE:    0.00 PKD
ROOT
HETATM    1  CA  UNL     1      -7.465   9.172  66.179  1.00  0.00    -0.095 C  
HETATM    2  C   UNL     1     -10.116  12.288  66.123  1.00  0.00    -0.245 C  
HETATM    3  C   UNL     1      -6.985   9.905  67.488  1.00  0.00    -0.083 C  
HETATM    4  O   UNL     1      -6.320   9.689  68.474  1.00  0.00    -0.047 OA 
HETATM    5  O   UNL     1      -6.599  11.930  69.638  1.00  0.00    -0.117 OA 
HETATM    6  OXT UNL     1      -7.421  13.946  69.203  1.00  0.00    -0.081 OA 
HETATM    7  N   UNL     1      -7.770  10.965  67.206  1.00  0.00    -0.108 N  
HETATM    8  C   UNL     1      -9.274  12.774  67.298  1.00  0.00    -0.203 C  
HETATM    9  CA  UNL     1      -8.166  12.144  67.775  1.00  0.00    -0.154 C  
HETATM   10  S   UNL     1      -9.922  10.543  65.706  1.00  0.00    -0.266 SA 
HETATM   11  C   UNL     1      -8.118  10.559  65.855  1.00  0.00    -0.154 C  
HETATM   12  C   UNL     1      -7.382  12.756  68.920  1.00  0.00    -0.008 C  
ENDROOT
BRANCH   1  13
HETATM   13  N   UNL     1      -8.424   8.049  66.364  1.00  0.00    -0.129 N  
HETATM   14  O   UNL     1      -6.983   6.598  67.396  1.00  0.00    -0.073 OA 
HETATM   15  C   UNL     1      -8.104   6.869  66.995  1.00  0.00    -0.117 C  
HETATM   16  H   UNL     1      -9.371   8.161  66.002  1.00  0.00     0.000 HD 
BRANCH  15  17
HETATM   17  C   UNL     1      -9.272   5.889  67.172  1.00  0.00    -0.116 C  
BRANCH  17  18
HETATM   18  N   UNL     1     -10.212   6.021  68.076  1.00  0.00    -0.163 NA 
HETATM   19  H   UNL     1     -10.061   5.809  69.063  1.00  0.00     0.000 HD 
HETATM   20  O   UNL     1     -11.438   6.477  67.582  1.00  0.00    -0.694 OA 
HETATM   21  H   UNL     1     -12.119   6.572  68.238  1.00  0.00     0.000 HD 
ENDBRANCH  17  18
BRANCH  17  22
HETATM   22  C   UNL     1      -9.379   4.733  66.278  1.00  0.00    -0.149 A  
HETATM   23  S   UNL     1      -9.101   2.523  65.317  1.00  0.00    -0.102 SA 
HETATM   24  H1  UNL     1     -11.240   4.084  62.783  1.00  0.00     0.000 HD 
HETATM   25  N   UNL     1      -8.752   3.582  66.556  1.00  0.00    -0.117 NA 
HETATM   26  N   UNL     1     -10.106   4.817  65.076  1.00  0.00     0.018 NA 
HETATM   27  H2  UNL     1     -10.578   2.471  62.899  1.00  0.00     0.000 HD 
HETATM   28  C   UNL     1     -10.053   3.667  64.455  1.00  0.00    -0.186 A  
HETATM   29  N   UNL     1     -10.675   3.406  63.294  1.00  0.00    -0.237 NA 
ENDBRANCH  17  22
ENDBRANCH  15  17
ENDBRANCH   1  13
BRANCH   8  30
HETATM   30  C   UNL     1      -9.865  14.010  67.825  1.00  0.00    -0.232 C  
HETATM   31  C   UNL     1      -8.984  15.742  66.124  1.00  0.00    -0.372 C  
HETATM   32  C   UNL     1      -9.708  15.247  67.327  1.00  0.00    -0.212 C  
HETATM   33  C   UNL     1      -8.577  17.144  66.547  1.00  0.00    -0.271 C  
HETATM   34  N   UNL     1      -9.484  17.526  67.612  1.00  0.00    -0.253 N  
HETATM   35  C   UNL     1     -10.230  16.440  68.055  1.00  0.00    -0.264 C  
HETATM   36  O   UNL     1     -11.142  16.418  68.859  1.00  0.00    -0.325 OA 
BRANCH  34  37
HETATM   37  C   UNL     1      -9.796  18.931  67.921  1.00  0.00    -0.345 C  
HETATM   38  C   UNL     1     -11.090  19.430  67.275  1.00  0.00    -0.293 C  
HETATM   39  C   UNL     1     -10.645  19.846  65.885  1.00  0.00    -0.417 C  
HETATM   40  N   UNL     1      -9.299  20.394  66.037  1.00  0.00    -0.631 NA 
HETATM   41  H   UNL     1      -9.260  21.404  65.899  1.00  0.00     0.000 HD 
HETATM   42  C   UNL     1      -8.804  19.970  67.364  1.00  0.00    -0.346 C  
ENDBRANCH  34  37
ENDBRANCH   8  30
TORSDOF 6
ENDMDL
MODEL       81
REMARK 921   NORMALIZED FREE ENERGY PREDICTED BY IDOCK:   -5.29 KCAL/MOL
REMARK 922        TOTAL FREE ENERGY PREDICTED BY IDOCK:   -8.67 KCAL/MOL
REMARK 923 INTER-LIGAND FREE ENERGY PREDICTED BY IDOCK:   -7.75 KCAL/MOL
REMARK 924 INTRA-LIGAND FREE ENERGY PREDICTED BY IDOCK:   -0.92 KCAL/MOL
REMARK 927      BINDING AFFINITY PREDICTED BY RF-SCORE:    0.00 PKD
ROOT
HETATM    1  CA  UNL     1     -11.475  12.567  67.143  1.00  0.00    -0.351 C  
HETATM    2  C   UNL     1      -9.023   9.424  66.223  1.00  0.00    -0.156 C  
HETATM    3  C   UNL     1     -11.373  11.927  68.578  1.00  0.00    -0.276 C  
HETATM    4  O   UNL     1     -11.587  12.216  69.732  1.00  0.00    -0.297 OA 
HETATM    5  O   UNL     1     -10.824  10.054  70.828  1.00  0.00    -0.312 OA 
HETATM    6  OXT UNL     1     -10.216   8.005  70.230  1.00  0.00    -0.195 OA 
HETATM    7  N   UNL     1     -10.752  10.842  68.073  1.00  0.00    -0.202 N  
HETATM    8  C   UNL     1      -9.310   9.026  67.667  1.00  0.00    -0.154 C  
HETATM    9  CA  UNL     1     -10.140   9.699  68.509  1.00  0.00    -0.175 C  
HETATM   10  S   UNL     1      -9.397  11.139  65.806  1.00  0.00    -0.219 SA 
HETATM   11  C   UNL     1     -10.986  11.154  66.674  1.00  0.00    -0.228 C  
HETATM   12  C   UNL     1     -10.386   9.173  69.911  1.00  0.00    -0.212 C  
ENDROOT
BRANCH   1  13
HETATM   13  N   UNL     1     -10.541  13.688  66.850  1.00  0.00    -0.271 N  
HETATM   14  O   UNL     1     -11.567  15.271  68.150  1.00  0.00    -0.337 OA 
HETATM   15  C   UNL     1     -10.650  14.938  67.414  1.00  0.00    -0.263 C  
HETATM   16  H   UNL     1      -9.778  13.521  66.194  1.00  0.00     0.000 HD 
BRANCH  15  17
HETATM   17  C   UNL     1      -9.520  15.914  67.058  1.00  0.00    -0.222 C  
BRANCH  17  18
HETATM   18  N   UNL     1      -8.371  15.550  66.542  1.00  0.00    -0.349 NA 
HETATM   19  H   UNL     1      -8.066  15.845  65.614  1.00  0.00     0.000 HD 
HETATM   20  O   UNL     1      -7.597  14.726  67.363  1.00  0.00    -0.183 OA 
HETATM   21  H   UNL     1      -6.764  14.462  66.989  1.00  0.00     0.000 HD 
ENDBRANCH  17  18
BRANCH  17  22
HETATM   22  C   UNL     1      -9.715  17.349  67.281  1.00  0.00    -0.267 A  
HETATM   23  S   UNL     1     -10.108  19.485  68.360  1.00  0.00    -0.444 SA 
HETATM   24  H1  UNL     1      -9.857  20.545  64.860  1.00  0.00     0.000 HD 
HETATM   25  N   UNL     1      -9.923  17.836  68.512  1.00  0.00    -0.351 NA 
HETATM   26  N   UNL     1      -9.738  18.249  66.200  1.00  0.00    -0.507 NA 
HETATM   27  H2  UNL     1     -10.107  21.461  66.328  1.00  0.00     0.000 HD 
HETATM   28  C   UNL     1      -9.927  19.463  66.650  1.00  0.00    -0.390 A  
HETATM   29  N   UNL     1      -9.964  20.559  65.874  1.00  0.00    -0.093 NA 
ENDBRANCH  17  22
ENDBRANCH  15  17
ENDBRANCH   1  13
BRANCH   8  30
HETATM   30  C   UNL     1      -8.536   7.821  67.990  1.00  0.00    -0.123 C  
HETATM   31  C   UNL     1      -9.706   6.069  66.496  1.00  0.00    -0.183 C  
HETATM   32  C   UNL     1      -8.739   6.586  67.502  1.00  0.00    -0.114 C  
HETATM   33  C   UNL     1      -9.914   4.636  66.955  1.00  0.00    -0.211 C  
HETATM   34  N   UNL     1      -8.752   4.293  67.752  1.00  0.00    -0.103 N  
HETATM   35  C   UNL     1      -7.984   5.416  68.037  1.00  0.00    -0.096 C  
HETATM   36  O   UNL     1      -6.906   5.481  68.595  1.00  0.00    -0.055 OA 
BRANCH  34  37
HETATM   37  C   UNL     1      -8.292   2.905  67.925  1.00  0.00    -0.080 C  
HETATM   38  C   UNL     1      -6.929   2.624  67.288  1.00  0.00    -0.045 C  
HETATM   39  C   UNL     1      -7.280   2.316  65.844  1.00  0.00    -0.064 C  
HETATM   40  N   UNL     1      -8.559   1.610  65.879  1.00  0.00    -0.106 NA 
HETATM   41  H   UNL     1      -8.478   0.623  65.634  1.00  0.00     0.000 HD 
HETATM   42  C   UNL     1      -9.141   1.830  67.219  1.00  0.00    -0.112 C  
ENDBRANCH  34  37
ENDBRANCH   8  30
TORSDOF 6
ENDMDL
MODEL       82
REMARK 921   NORMALIZED FREE ENERGY PREDICTED BY IDOCK:   -5.28 KCAL/MOL
REMARK 922        TOTAL FREE ENERGY PREDICTED BY IDOCK:   -8.66 KCAL/MOL
REMARK 923 INTER-LIGAND FREE ENERGY PREDICTED BY IDOCK:   -7.43 KCAL/MOL
REMARK 924 INTRA-LIGAND FREE ENERGY PREDICTED BY IDOCK:   -1.22 KCAL/MOL
REMARK 927      BINDING AFFINITY PREDICTED BY RF-SCORE:    0.00 PKD
ROOT
HETATM    1  CA  UNL     1      -9.139  14.355  66.839  1.00  0.00    -0.251 C  
HETATM    2  C   UNL     1      -7.833  10.523  67.433  1.00  0.00    -0.106 C  
HETATM    3  C   UNL     1      -9.934  13.658  65.672  1.00  0.00    -0.243 C  
HETATM    4  O   UNL     1     -10.865  13.876  64.933  1.00  0.00    -0.358 OA 
HETATM    5  O   UNL     1     -10.891  11.672  63.668  1.00  0.00    -0.372 OA 
HETATM    6  OXT UNL     1      -9.635   9.854  63.459  1.00  0.00    -0.212 OA 
HETATM    7  N   UNL     1      -9.249  12.512  65.863  1.00  0.00    -0.034 N  
HETATM    8  C   UNL     1      -8.599  10.265  66.141  1.00  0.00    -0.146 C  
HETATM    9  CA  UNL     1      -9.240  11.220  65.413  1.00  0.00    -0.183 C  
HETATM   10  S   UNL     1      -8.248  12.060  68.283  1.00  0.00    -0.157 SA 
HETATM   11  C   UNL     1      -8.259  13.060  66.773  1.00  0.00     0.124 C  
HETATM   12  C   UNL     1      -9.926  10.847  64.112  1.00  0.00    -0.344 C  
ENDROOT
BRANCH   1  13
HETATM   13  N   UNL     1      -9.877  14.553  68.116  1.00  0.00    -0.218 N  
HETATM   14  O   UNL     1     -11.155  16.332  67.444  1.00  0.00    -0.232 OA 
HETATM   15  C   UNL     1     -10.853  15.507  68.292  1.00  0.00    -0.292 C  
HETATM   16  H   UNL     1      -9.646  13.949  68.905  1.00  0.00     0.000 HD 
BRANCH  15  17
HETATM   17  C   UNL     1     -11.561  15.469  69.654  1.00  0.00    -0.348 C  
BRANCH  17  18
HETATM   18  N   UNL     1     -11.823  16.531  70.376  1.00  0.00    -0.272 NA 
HETATM   19  H   UNL     1     -12.637  16.594  70.988  1.00  0.00     0.000 HD 
HETATM   20  O   UNL     1     -10.898  17.571  70.242  1.00  0.00    -0.039 OA 
HETATM   21  H   UNL     1     -11.088  18.341  70.765  1.00  0.00     0.000 HD 
ENDBRANCH  17  18
BRANCH  17  22
HETATM   22  C   UNL     1     -11.999  14.180  70.198  1.00  0.00    -0.332 A  
HETATM   23  S   UNL     1     -12.264  11.797  70.558  1.00  0.00    -0.283 SA 
HETATM   24  H1  UNL     1     -14.558  13.111  73.097  1.00  0.00     0.000 HD 
HETATM   25  N   UNL     1     -11.538  13.025  69.698  1.00  0.00    -0.278 NA 
HETATM   26  N   UNL     1     -12.953  14.121  71.230  1.00  0.00    -0.341 NA 
HETATM   27  H2  UNL     1     -14.113  11.473  72.682  1.00  0.00     0.000 HD 
HETATM   28  C   UNL     1     -13.180  12.871  71.540  1.00  0.00    -0.257 A  
HETATM   29  N   UNL     1     -14.016  12.474  72.514  1.00  0.00    -0.198 NA 
ENDBRANCH  17  22
ENDBRANCH  15  17
ENDBRANCH   1  13
BRANCH   8  30
HETATM   30  C   UNL     1      -8.539   8.832  65.832  1.00  0.00    -0.174 C  
HETATM   31  C   UNL     1     -10.575   7.957  67.159  1.00  0.00    -0.383 C  
HETATM   32  C   UNL     1      -9.367   7.880  66.292  1.00  0.00    -0.225 C  
HETATM   33  C   UNL     1     -10.553   6.610  67.862  1.00  0.00    -0.247 C  
HETATM   34  N   UNL     1      -9.762   5.729  67.026  1.00  0.00    -0.133 N  
HETATM   35  C   UNL     1      -9.098   6.436  66.031  1.00  0.00    -0.097 C  
HETATM   36  O   UNL     1      -8.432   6.010  65.107  1.00  0.00    -0.148 OA 
BRANCH  34  37
HETATM   37  C   UNL     1      -9.930   4.266  67.036  1.00  0.00    -0.123 C  
HETATM   38  C   UNL     1      -9.398   3.594  68.303  1.00  0.00    -0.228 C  
HETATM   39  C   UNL     1      -7.921   3.411  68.004  1.00  0.00    -0.074 C  
HETATM   40  N   UNL     1      -7.829   3.121  66.575  1.00  0.00    -0.077 NA 
HETATM   41  H   UNL     1      -7.562   2.156  66.380  1.00  0.00     0.000 HD 
HETATM   42  C   UNL     1      -9.124   3.498  65.970  1.00  0.00    -0.155 C  
ENDBRANCH  34  37
ENDBRANCH   8  30
TORSDOF 6
ENDMDL
MODEL       83
REMARK 921   NORMALIZED FREE ENERGY PREDICTED BY IDOCK:   -5.21 KCAL/MOL
REMARK 922        TOTAL FREE ENERGY PREDICTED BY IDOCK:   -8.56 KCAL/MOL
REMARK 923 INTER-LIGAND FREE ENERGY PREDICTED BY IDOCK:   -8.40 KCAL/MOL
REMARK 924 INTRA-LIGAND FREE ENERGY PREDICTED BY IDOCK:   -0.16 KCAL/MOL
REMARK 927      BINDING AFFINITY PREDICTED BY RF-SCORE:    0.00 PKD
ROOT
HETATM    1  CA  UNL     1     -10.030   7.931  73.157  1.00  0.00    -0.290 C  
HETATM    2  C   UNL     1      -8.739   8.534  69.322  1.00  0.00    -0.133 C  
HETATM    3  C   UNL     1     -11.341   8.580  72.573  1.00  0.00    -0.286 C  
HETATM    4  O   UNL     1     -12.512   8.696  72.846  1.00  0.00    -0.278 OA 
HETATM    5  O   UNL     1     -13.269   9.997  70.799  1.00  0.00    -0.348 OA 
HETATM    6  OXT UNL     1     -12.370  11.030  69.052  1.00  0.00    -0.481 OA 
HETATM    7  N   UNL     1     -10.696   8.903  71.433  1.00  0.00    -0.284 N  
HETATM    8  C   UNL     1     -10.075   9.256  69.189  1.00  0.00    -0.204 C  
HETATM    9  CA  UNL     1     -10.968   9.432  70.201  1.00  0.00    -0.246 C  
HETATM   10  S   UNL     1      -8.597   7.428  70.741  1.00  0.00    -0.137 SA 
HETATM   11  C   UNL     1      -9.359   8.589  71.904  1.00  0.00    -0.267 C  
HETATM   12  C   UNL     1     -12.244  10.216  69.957  1.00  0.00    -0.051 C  
ENDROOT
BRANCH   1  13
HETATM   13  N   UNL     1      -9.987   6.444  73.189  1.00  0.00    -0.168 N  
HETATM   14  O   UNL     1     -12.014   6.069  72.189  1.00  0.00    -0.309 OA 
HETATM   15  C   UNL     1     -10.973   5.640  72.664  1.00  0.00    -0.270 C  
HETATM   16  H   UNL     1      -9.182   5.994  73.625  1.00  0.00     0.000 HD 
BRANCH  15  17
HETATM   17  C   UNL     1     -10.678   4.135  72.708  1.00  0.00    -0.114 C  
BRANCH  17  18
HETATM   18  N   UNL     1     -11.393   3.265  73.379  1.00  0.00    -0.161 NA 
HETATM   19  H   UNL     1     -12.284   3.504  73.816  1.00  0.00     0.000 HD 
HETATM   20  O   UNL     1     -10.839   1.983  73.449  1.00  0.00    -0.134 OA 
HETATM   21  H   UNL     1     -11.357   1.353  73.936  1.00  0.00     0.000 HD 
ENDBRANCH  17  18
BRANCH  17  22
HETATM   22  C   UNL     1      -9.543   3.605  71.948  1.00  0.00    -0.146 A  
HETATM   23  S   UNL     1      -8.221   2.509  70.235  1.00  0.00    -0.041 SA 
HETATM   24  H1  UNL     1      -5.579   3.524  72.564  1.00  0.00     0.000 HD 
HETATM   25  N   UNL     1      -9.727   2.965  70.784  1.00  0.00    -0.119 NA 
HETATM   26  N   UNL     1      -8.231   3.711  72.445  1.00  0.00    -0.083 NA 
HETATM   27  H2  UNL     1      -5.506   2.693  71.028  1.00  0.00     0.000 HD 
HETATM   28  C   UNL     1      -7.399   3.166  71.595  1.00  0.00    -0.040 A  
HETATM   29  N   UNL     1      -6.066   3.134  71.757  1.00  0.00    -0.013 NA 
ENDBRANCH  17  22
ENDBRANCH  15  17
ENDBRANCH   1  13
BRANCH   8  30
HETATM   30  C   UNL     1     -10.234   9.707  67.802  1.00  0.00    -0.253 C  
HETATM   31  C   UNL     1      -9.093  12.022  67.902  1.00  0.00    -0.183 C  
HETATM   32  C   UNL     1      -9.834  10.884  67.293  1.00  0.00    -0.202 C  
HETATM   33  C   UNL     1      -9.619  13.209  67.113  1.00  0.00    -0.235 C  
HETATM   34  N   UNL     1     -10.130  12.673  65.867  1.00  0.00    -0.261 N  
HETATM   35  C   UNL     1     -10.204  11.286  65.905  1.00  0.00    -0.249 C  
HETATM   36  O   UNL     1     -10.493  10.512  65.012  1.00  0.00    -0.286 OA 
BRANCH  34  37
HETATM   37  C   UNL     1     -10.221  13.477  64.637  1.00  0.00    -0.316 C  
HETATM   38  C   UNL     1     -10.825  14.867  64.853  1.00  0.00    -0.431 C  
HETATM   39  C   UNL     1     -12.319  14.610  64.783  1.00  0.00    -0.351 C  
HETATM   40  N   UNL     1     -12.503  13.557  63.786  1.00  0.00    -0.727 NA 
HETATM   41  H   UNL     1     -12.941  13.892  62.928  1.00  0.00     0.000 HD 
HETATM   42  C   UNL     1     -11.181  12.937  63.559  1.00  0.00    -0.297 C  
ENDBRANCH  34  37
ENDBRANCH   8  30
TORSDOF 6
ENDMDL
MODEL       84
REMARK 921   NORMALIZED FREE ENERGY PREDICTED BY IDOCK:   -5.19 KCAL/MOL
REMARK 922        TOTAL FREE ENERGY PREDICTED BY IDOCK:   -8.53 KCAL/MOL
REMARK 923 INTER-LIGAND FREE ENERGY PREDICTED BY IDOCK:   -7.46 KCAL/MOL
REMARK 924 INTRA-LIGAND FREE ENERGY PREDICTED BY IDOCK:   -1.07 KCAL/MOL
REMARK 927      BINDING AFFINITY PREDICTED BY RF-SCORE:    0.00 PKD
ROOT
HETATM    1  CA  UNL     1     -10.457  10.560  66.780  1.00  0.00    -0.242 C  
HETATM    2  C   UNL     1      -7.865  13.271  68.415  1.00  0.00    -0.137 C  
HETATM    3  C   UNL     1     -11.298  11.866  66.522  1.00  0.00    -0.341 C  
HETATM    4  O   UNL     1     -12.233  12.243  65.856  1.00  0.00    -0.634 OA 
HETATM    5  O   UNL     1     -12.284  14.677  66.587  1.00  0.00    -0.317 OA 
HETATM    6  OXT UNL     1     -11.338  15.980  68.114  1.00  0.00    -0.342 OA 
HETATM    7  N   UNL     1     -10.448  12.587  67.282  1.00  0.00    -0.219 N  
HETATM    8  C   UNL     1      -9.014  14.238  68.156  1.00  0.00    -0.189 C  
HETATM    9  CA  UNL     1     -10.224  13.888  67.639  1.00  0.00    -0.242 C  
HETATM   10  S   UNL     1      -7.950  11.711  67.512  1.00  0.00    -0.149 SA 
HETATM   11  C   UNL     1      -9.715  11.458  67.828  1.00  0.00    -0.175 C  
HETATM   12  C   UNL     1     -11.309  14.937  67.476  1.00  0.00    -0.342 C  
ENDROOT
BRANCH   1  13
HETATM   13  N   UNL     1      -9.615  10.082  65.650  1.00  0.00    -0.231 N  
HETATM   14  O   UNL     1      -9.361   7.921  66.368  1.00  0.00    -0.182 OA 
HETATM   15  C   UNL     1      -9.172   8.785  65.525  1.00  0.00    -0.137 C  
HETATM   16  H   UNL     1      -9.353  10.752  64.927  1.00  0.00     0.000 HD 
BRANCH  15  17
HETATM   17  C   UNL     1      -8.408   8.480  64.229  1.00  0.00    -0.105 C  
BRANCH  17  18
HETATM   18  N   UNL     1      -8.317   9.310  63.218  1.00  0.00    -0.181 NA 
HETATM   19  H   UNL     1      -7.422   9.648  62.862  1.00  0.00     0.000 HD 
HETATM   20  O   UNL     1      -9.542   9.695  62.666  1.00  0.00    -0.563 OA 
HETATM   21  H   UNL     1      -9.476  10.296  61.933  1.00  0.00     0.000 HD 
ENDBRANCH  17  18
BRANCH  17  22
HETATM   22  C   UNL     1      -7.714   7.197  64.091  1.00  0.00    -0.120 A  
HETATM   23  S   UNL     1      -6.081   5.419  64.324  1.00  0.00    -0.022 SA 
HETATM   24  H1  UNL     1      -8.439   3.854  61.994  1.00  0.00     0.000 HD 
HETATM   25  N   UNL     1      -6.562   6.961  64.734  1.00  0.00    -0.042 NA 
HETATM   26  N   UNL     1      -8.214   6.196  63.239  1.00  0.00    -0.063 NA 
HETATM   27  H2  UNL     1      -6.969   3.254  62.724  1.00  0.00     0.000 HD 
HETATM   28  C   UNL     1      -7.425   5.154  63.284  1.00  0.00    -0.052 A  
HETATM   29  N   UNL     1      -7.642   4.011  62.610  1.00  0.00    -0.056 NA 
ENDBRANCH  17  22
ENDBRANCH  15  17
ENDBRANCH   1  13
BRANCH   8  30
HETATM   30  C   UNL     1      -8.591  15.591  68.537  1.00  0.00    -0.176 C  
HETATM   31  C   UNL     1      -7.673  16.472  66.290  1.00  0.00    -0.215 C  
HETATM   32  C   UNL     1      -8.008  16.501  67.740  1.00  0.00    -0.171 C  
HETATM   33  C   UNL     1      -6.455  17.378  66.222  1.00  0.00    -0.235 C  
HETATM   34  N   UNL     1      -6.514  18.225  67.398  1.00  0.00    -0.184 N  
HETATM   35  C   UNL     1      -7.479  17.780  68.294  1.00  0.00    -0.247 C  
HETATM   36  O   UNL     1      -7.859  18.300  69.326  1.00  0.00    -0.067 OA 
BRANCH  34  37
HETATM   37  C   UNL     1      -5.878  19.551  67.451  1.00  0.00    -0.185 C  
HETATM   38  C   UNL     1      -6.794  20.652  67.989  1.00  0.00    -0.301 C  
HETATM   39  C   UNL     1      -7.571  21.087  66.760  1.00  0.00     0.057 C  
HETATM   40  N   UNL     1      -6.643  20.986  65.636  1.00  0.00    -0.486 NA 
HETATM   41  H   UNL     1      -6.361  21.894  65.267  1.00  0.00     0.000 HD 
HETATM   42  C   UNL     1      -5.501  20.163  66.087  1.00  0.00    -0.167 C  
ENDBRANCH  34  37
ENDBRANCH   8  30
TORSDOF 6
ENDMDL
MODEL       85
REMARK 921   NORMALIZED FREE ENERGY PREDICTED BY IDOCK:   -5.10 KCAL/MOL
REMARK 922        TOTAL FREE ENERGY PREDICTED BY IDOCK:   -8.41 KCAL/MOL
REMARK 923 INTER-LIGAND FREE ENERGY PREDICTED BY IDOCK:   -7.60 KCAL/MOL
REMARK 924 INTRA-LIGAND FREE ENERGY PREDICTED BY IDOCK:   -0.81 KCAL/MOL
REMARK 927      BINDING AFFINITY PREDICTED BY RF-SCORE:    0.00 PKD
ROOT
HETATM    1  CA  UNL     1     -10.383   8.984  67.901  1.00  0.00    -0.235 C  
HETATM    2  C   UNL     1     -12.020  12.513  69.167  1.00  0.00    -0.236 C  
HETATM    3  C   UNL     1      -9.117   9.903  67.718  1.00  0.00    -0.131 C  
HETATM    4  O   UNL     1      -7.922   9.806  67.567  1.00  0.00    -0.105 OA 
HETATM    5  O   UNL     1      -7.330  12.276  67.498  1.00  0.00    -0.115 OA 
HETATM    6  OXT UNL     1      -8.364  14.237  67.394  1.00  0.00    -0.174 OA 
HETATM    7  N   UNL     1      -9.859  11.005  67.951  1.00  0.00    -0.168 N  
HETATM    8  C   UNL     1     -10.684  13.079  68.701  1.00  0.00    -0.273 C  
HETATM    9  CA  UNL     1      -9.693  12.353  68.116  1.00  0.00    -0.214 C  
HETATM   10  S   UNL     1     -12.056  10.726  69.420  1.00  0.00    -0.149 SA 
HETATM   11  C   UNL     1     -11.153  10.348  67.896  1.00  0.00    -0.299 C  
HETATM   12  C   UNL     1      -8.425  13.042  67.647  1.00  0.00    -0.187 C  
ENDROOT
BRANCH   1  13
HETATM   13  N   UNL     1     -10.464   8.216  69.173  1.00  0.00    -0.241 N  
HETATM   14  O   UNL     1      -8.765   6.743  68.736  1.00  0.00    -0.125 OA 
HETATM   15  C   UNL     1      -9.615   7.181  69.494  1.00  0.00    -0.154 C  
HETATM   16  H   UNL     1     -11.189   8.471  69.844  1.00  0.00     0.000 HD 
BRANCH  15  17
HETATM   17  C   UNL     1      -9.806   6.598  70.901  1.00  0.00    -0.183 C  
BRANCH  17  18
HETATM   18  N   UNL     1     -10.382   7.237  71.890  1.00  0.00    -0.188 NA 
HETATM   19  H   UNL     1      -9.857   7.782  72.574  1.00  0.00     0.000 HD 
HETATM   20  O   UNL     1     -11.774   7.112  71.934  1.00  0.00    -0.273 OA 
HETATM   21  H   UNL     1     -12.191   7.575  72.650  1.00  0.00     0.000 HD 
ENDBRANCH  17  18
BRANCH  17  22
HETATM   22  C   UNL     1      -9.339   5.237  71.182  1.00  0.00    -0.151 A  
HETATM   23  S   UNL     1      -8.185   3.352  72.180  1.00  0.00    -0.072 SA 
HETATM   24  H1  UNL     1     -10.004   1.664  69.482  1.00  0.00     0.000 HD 
HETATM   25  N   UNL     1      -8.484   4.991  72.184  1.00  0.00    -0.123 NA 
HETATM   26  N   UNL     1      -9.740   4.157  70.373  1.00  0.00    -0.196 NA 
HETATM   27  H2  UNL     1      -8.938   1.042  70.720  1.00  0.00     0.000 HD 
HETATM   28  C   UNL     1      -9.194   3.055  70.819  1.00  0.00    -0.135 A  
HETATM   29  N   UNL     1      -9.405   1.839  70.289  1.00  0.00    -0.106 NA 
ENDBRANCH  17  22
ENDBRANCH  15  17
ENDBRANCH   1  13
BRANCH   8  30
HETATM   30  C   UNL     1     -10.646  14.515  69.002  1.00  0.00    -0.250 C  
HETATM   31  C   UNL     1     -11.470  15.508  66.765  1.00  0.00     0.043 C  
HETATM   32  C   UNL     1     -10.959  15.516  68.163  1.00  0.00    -0.312 C  
HETATM   33  C   UNL     1     -10.905  16.804  66.208  1.00  0.00     0.005 C  
HETATM   34  N   UNL     1     -10.626  17.650  67.352  1.00  0.00    -0.346 N  
HETATM   35  C   UNL     1     -10.720  16.939  68.543  1.00  0.00    -0.359 C  
HETATM   36  O   UNL     1     -10.645  17.349  69.685  1.00  0.00    -0.154 OA 
BRANCH  34  37
HETATM   37  C   UNL     1     -10.592  19.119  67.262  1.00  0.00    -0.478 C  
HETATM   38  C   UNL     1     -10.077  19.642  65.919  1.00  0.00    -0.485 C  
HETATM   39  C   UNL     1      -8.570  19.629  66.097  1.00  0.00    -0.333 C  
HETATM   40  N   UNL     1      -8.324  19.979  67.494  1.00  0.00    -0.326 NA 
HETATM   41  H   UNL     1      -7.912  20.905  67.608  1.00  0.00     0.000 HD 
HETATM   42  C   UNL     1      -9.605  19.821  68.215  1.00  0.00    -0.368 C  
ENDBRANCH  34  37
ENDBRANCH   8  30
TORSDOF 6
ENDMDL
MODEL       86
REMARK 921   NORMALIZED FREE ENERGY PREDICTED BY IDOCK:   -5.08 KCAL/MOL
REMARK 922        TOTAL FREE ENERGY PREDICTED BY IDOCK:   -8.38 KCAL/MOL
REMARK 923 INTER-LIGAND FREE ENERGY PREDICTED BY IDOCK:   -7.45 KCAL/MOL
REMARK 924 INTRA-LIGAND FREE ENERGY PREDICTED BY IDOCK:   -0.93 KCAL/MOL
REMARK 927      BINDING AFFINITY PREDICTED BY RF-SCORE:    0.00 PKD
ROOT
HETATM    1  CA  UNL     1     -10.011  14.355  66.277  1.00  0.00    -0.306 C  
HETATM    2  C   UNL     1      -7.598  11.594  68.093  1.00  0.00    -0.115 C  
HETATM    3  C   UNL     1     -11.000  13.898  67.415  1.00  0.00    -0.288 C  
HETATM    4  O   UNL     1     -12.017  14.266  67.954  1.00  0.00    -0.356 OA 
HETATM    5  O   UNL     1     -12.264  12.393  69.654  1.00  0.00    -0.219 OA 
HETATM    6  OXT UNL     1     -11.345  10.426  70.113  1.00  0.00    -0.276 OA 
HETATM    7  N   UNL     1     -10.175  12.886  67.754  1.00  0.00    -0.219 N  
HETATM    8  C   UNL     1      -8.857  11.309  68.903  1.00  0.00    -0.055 C  
HETATM    9  CA  UNL     1     -10.060  11.917  68.711  1.00  0.00    -0.120 C  
HETATM   10  S   UNL     1      -7.589  13.167  67.209  1.00  0.00    -0.011 SA 
HETATM   11  C   UNL     1      -9.290  13.004  66.608  1.00  0.00    -0.241 C  
HETATM   12  C   UNL     1     -11.257  11.508  69.550  1.00  0.00    -0.236 C  
ENDROOT
BRANCH   1  13
HETATM   13  N   UNL     1      -9.212  15.581  66.548  1.00  0.00    -0.268 N  
HETATM   14  O   UNL     1     -10.846  17.110  66.057  1.00  0.00    -0.160 OA 
HETATM   15  C   UNL     1      -9.717  16.857  66.450  1.00  0.00    -0.284 C  
HETATM   16  H   UNL     1      -8.236  15.469  66.822  1.00  0.00     0.000 HD 
BRANCH  15  17
HETATM   17  C   UNL     1      -8.754  17.973  66.877  1.00  0.00    -0.251 C  
BRANCH  17  18
HETATM   18  N   UNL     1      -9.009  18.840  67.827  1.00  0.00    -0.283 NA 
HETATM   19  H   UNL     1      -8.289  19.195  68.456  1.00  0.00     0.000 HD 
HETATM   20  O   UNL     1     -10.346  19.241  67.908  1.00  0.00    -0.380 OA 
HETATM   21  H   UNL     1     -10.530  19.869  68.596  1.00  0.00     0.000 HD 
ENDBRANCH  17  18
BRANCH  17  22
HETATM   22  C   UNL     1      -7.453  18.089  66.213  1.00  0.00    -0.277 A  
HETATM   23  S   UNL     1      -5.132  17.739  65.604  1.00  0.00    -0.067 SA 
HETATM   24  H1  UNL     1      -6.013  20.464  63.317  1.00  0.00     0.000 HD 
HETATM   25  N   UNL     1      -6.423  17.307  66.565  1.00  0.00    -0.220 NA 
HETATM   26  N   UNL     1      -7.237  19.061  65.219  1.00  0.00    -0.421 NA 
HETATM   27  H2  UNL     1      -4.524  19.574  63.531  1.00  0.00     0.000 HD 
HETATM   28  C   UNL     1      -6.007  18.970  64.782  1.00  0.00    -0.281 A  
HETATM   29  N   UNL     1      -5.494  19.734  63.804  1.00  0.00    -0.230 NA 
ENDBRANCH  17  22
ENDBRANCH  15  17
ENDBRANCH   1  13
BRANCH   8  30
HETATM   30  C   UNL     1      -8.549  10.294  69.917  1.00  0.00     0.004 C  
HETATM   31  C   UNL     1      -9.426   8.158  68.760  1.00  0.00    -0.148 C  
HETATM   32  C   UNL     1      -8.821   8.981  69.843  1.00  0.00    -0.164 C  
HETATM   33  C   UNL     1     -10.103   7.044  69.541  1.00  0.00    -0.173 C  
HETATM   34  N   UNL     1      -9.434   6.985  70.826  1.00  0.00    -0.162 N  
HETATM   35  C   UNL     1      -8.602   8.084  71.014  1.00  0.00    -0.133 C  
HETATM   36  O   UNL     1      -7.827   8.306  71.924  1.00  0.00    -0.105 OA 
BRANCH  34  37
HETATM   37  C   UNL     1      -9.392   5.761  71.642  1.00  0.00    -0.146 C  
HETATM   38  C   UNL     1     -10.701   4.970  71.633  1.00  0.00    -0.128 C  
HETATM   39  C   UNL     1     -11.523   5.648  72.714  1.00  0.00    -0.274 C  
HETATM   40  N   UNL     1     -10.576   6.049  73.752  1.00  0.00    -0.328 NA 
HETATM   41  H   UNL     1     -10.666   5.503  74.608  1.00  0.00     0.000 HD 
HETATM   42  C   UNL     1      -9.224   5.979  73.159  1.00  0.00    -0.132 C  
ENDBRANCH  34  37
ENDBRANCH   8  30
TORSDOF 6
ENDMDL
MODEL       87
REMARK 921   NORMALIZED FREE ENERGY PREDICTED BY IDOCK:   -5.07 KCAL/MOL
REMARK 922        TOTAL FREE ENERGY PREDICTED BY IDOCK:   -8.36 KCAL/MOL
REMARK 923 INTER-LIGAND FREE ENERGY PREDICTED BY IDOCK:   -7.10 KCAL/MOL
REMARK 924 INTRA-LIGAND FREE ENERGY PREDICTED BY IDOCK:   -1.26 KCAL/MOL
REMARK 927      BINDING AFFINITY PREDICTED BY RF-SCORE:    0.00 PKD
ROOT
HETATM    1  CA  UNL     1      -8.966  12.751  66.226  1.00  0.00     0.054 C  
HETATM    2  C   UNL     1      -7.100  10.646  69.197  1.00  0.00    -0.095 C  
HETATM    3  C   UNL     1      -9.793  11.415  66.115  1.00  0.00    -0.222 C  
HETATM    4  O   UNL     1     -10.825  11.007  65.636  1.00  0.00    -0.198 OA 
HETATM    5  O   UNL     1     -10.705   8.597  66.431  1.00  0.00     0.014 OA 
HETATM    6  OXT UNL     1      -9.251   7.232  67.407  1.00  0.00    -0.126 OA 
HETATM    7  N   UNL     1      -8.943  10.796  66.960  1.00  0.00    -0.141 N  
HETATM    8  C   UNL     1      -7.971   9.509  68.676  1.00  0.00    -0.092 C  
HETATM    9  CA  UNL     1      -8.815   9.600  67.612  1.00  0.00    -0.125 C  
HETATM   10  S   UNL     1      -7.613  12.303  68.698  1.00  0.00    -0.050 SA 
HETATM   11  C   UNL     1      -7.935  11.841  66.977  1.00  0.00    -0.164 C  
HETATM   12  C   UNL     1      -9.593   8.380  67.157  1.00  0.00    -0.179 C  
ENDROOT
BRANCH   1  13
HETATM   13  N   UNL     1      -9.569  13.835  67.048  1.00  0.00    -0.243 N  
HETATM   14  O   UNL     1     -10.911  14.727  65.419  1.00  0.00    -0.318 OA 
HETATM   15  C   UNL     1     -10.523  14.708  66.577  1.00  0.00    -0.290 C  
HETATM   16  H   UNL     1      -9.257  13.937  68.014  1.00  0.00     0.000 HD 
BRANCH  15  17
HETATM   17  C   UNL     1     -11.087  15.681  67.622  1.00  0.00    -0.305 C  
BRANCH  17  18
HETATM   18  N   UNL     1     -12.044  15.379  68.466  1.00  0.00    -0.556 NA 
HETATM   19  H   UNL     1     -12.477  14.455  68.500  1.00  0.00     0.000 HD 
HETATM   20  O   UNL     1     -12.424  16.422  69.315  1.00  0.00    -0.269 OA 
HETATM   21  H   UNL     1     -13.118  16.203  69.926  1.00  0.00     0.000 HD 
ENDBRANCH  17  18
BRANCH  17  22
HETATM   22  C   UNL     1     -10.528  17.032  67.718  1.00  0.00    -0.349 A  
HETATM   23  S   UNL     1     -10.200  19.419  67.443  1.00  0.00    -0.453 SA 
HETATM   24  H1  UNL     1      -7.268  18.575  69.475  1.00  0.00     0.000 HD 
HETATM   25  N   UNL     1     -11.125  18.072  67.118  1.00  0.00     0.010 NA 
HETATM   26  N   UNL     1      -9.323  17.266  68.405  1.00  0.00    -0.267 NA 
HETATM   27  H2  UNL     1      -7.831  20.104  68.842  1.00  0.00     0.000 HD 
HETATM   28  C   UNL     1      -9.032  18.540  68.349  1.00  0.00    -0.322 A  
HETATM   29  N   UNL     1      -7.960  19.097  68.938  1.00  0.00    -0.335 NA 
ENDBRANCH  17  22
ENDBRANCH  15  17
ENDBRANCH   1  13
BRANCH   8  30
HETATM   30  C   UNL     1      -7.757   8.324  69.516  1.00  0.00    -0.101 C  
HETATM   31  C   UNL     1      -9.944   8.295  70.890  1.00  0.00    -0.223 C  
HETATM   32  C   UNL     1      -8.591   7.850  70.456  1.00  0.00    -0.131 C  
HETATM   33  C   UNL     1      -9.965   7.880  72.352  1.00  0.00    -0.229 C  
HETATM   34  N   UNL     1      -8.972   6.832  72.491  1.00  0.00    -0.131 N  
HETATM   35  C   UNL     1      -8.181   6.731  71.353  1.00  0.00    -0.111 C  
HETATM   36  O   UNL     1      -7.324   5.909  71.089  1.00  0.00    -0.079 OA 
BRANCH  34  37
HETATM   37  C   UNL     1      -9.040   5.812  73.550  1.00  0.00    -0.131 C  
HETATM   38  C   UNL     1      -9.115   4.379  73.020  1.00  0.00    -0.129 C  
HETATM   39  C   UNL     1     -10.597   4.185  72.755  1.00  0.00    -0.148 C  
HETATM   40  N   UNL     1     -11.296   4.929  73.801  1.00  0.00    -0.413 NA 
HETATM   41  H   UNL     1     -11.763   4.324  74.477  1.00  0.00     0.000 HD 
HETATM   42  C   UNL     1     -10.312   5.840  74.420  1.00  0.00    -0.254 C  
ENDBRANCH  34  37
ENDBRANCH   8  30
TORSDOF 6
ENDMDL
MODEL       88
REMARK 921   NORMALIZED FREE ENERGY PREDICTED BY IDOCK:   -5.05 KCAL/MOL
REMARK 922        TOTAL FREE ENERGY PREDICTED BY IDOCK:   -8.34 KCAL/MOL
REMARK 923 INTER-LIGAND FREE ENERGY PREDICTED BY IDOCK:   -6.99 KCAL/MOL
REMARK 924 INTRA-LIGAND FREE ENERGY PREDICTED BY IDOCK:   -1.35 KCAL/MOL
REMARK 927      BINDING AFFINITY PREDICTED BY RF-SCORE:    0.00 PKD
ROOT
HETATM    1  CA  UNL     1      -8.575  12.833  68.521  1.00  0.00    -0.048 C  
HETATM    2  C   UNL     1     -10.052   9.021  68.673  1.00  0.00    -0.189 C  
HETATM    3  C   UNL     1      -7.235  12.056  68.234  1.00  0.00    -0.090 C  
HETATM    4  O   UNL     1      -6.125  12.263  67.804  1.00  0.00    -0.075 OA 
HETATM    5  O   UNL     1      -5.199   9.901  67.950  1.00  0.00    -0.036 OA 
HETATM    6  OXT UNL     1      -5.775   7.933  68.799  1.00  0.00    -0.029 OA 
HETATM    7  N   UNL     1      -7.830  10.882  68.529  1.00  0.00    -0.118 N  
HETATM    8  C   UNL     1      -8.578   8.650  68.550  1.00  0.00    -0.135 C  
HETATM    9  CA  UNL     1      -7.552   9.543  68.503  1.00  0.00    -0.081 C  
HETATM   10  S   UNL     1     -10.462  10.715  68.209  1.00  0.00    -0.202 SA 
HETATM   11  C   UNL     1      -9.051  11.447  69.076  1.00  0.00     0.084 C  
HETATM   12  C   UNL     1      -6.120   9.048  68.432  1.00  0.00    -0.046 C  
ENDROOT
BRANCH   1  13
HETATM   13  N   UNL     1      -9.321  13.328  67.333  1.00  0.00    -0.209 N  
HETATM   14  O   UNL     1      -9.317  15.551  67.888  1.00  0.00    -0.191 OA 
HETATM   15  C   UNL     1      -9.593  14.657  67.102  1.00  0.00    -0.233 C  
HETATM   16  H   UNL     1      -9.649  12.644  66.650  1.00  0.00     0.000 HD 
BRANCH  15  17
HETATM   17  C   UNL     1     -10.280  14.958  65.763  1.00  0.00    -0.336 C  
BRANCH  17  18
HETATM   18  N   UNL     1     -10.512  16.166  65.311  1.00  0.00    -0.572 NA 
HETATM   19  H   UNL     1     -10.117  17.002  65.743  1.00  0.00     0.000 HD 
HETATM   20  O   UNL     1     -11.344  16.220  64.188  1.00  0.00    -1.184 OA 
HETATM   21  H   UNL     1     -11.512  17.096  63.861  1.00  0.00     0.000 HD 
ENDBRANCH  17  18
BRANCH  17  22
HETATM   22  C   UNL     1     -10.699  13.844  64.907  1.00  0.00    -0.410 A  
HETATM   23  S   UNL     1     -10.651  11.978  63.359  1.00  0.00    -0.376 SA 
HETATM   24  H1  UNL     1     -14.255  12.236  63.977  1.00  0.00     0.000 HD 
HETATM   25  N   UNL     1      -9.803  13.134  64.207  1.00  0.00    -0.116 NA 
HETATM   26  N   UNL     1     -12.060  13.522  64.759  1.00  0.00    -0.385 NA 
HETATM   27  H2  UNL     1     -13.330  11.127  62.993  1.00  0.00     0.000 HD 
HETATM   28  C   UNL     1     -12.179  12.502  63.949  1.00  0.00    -0.503 A  
HETATM   29  N   UNL     1     -13.349  11.926  63.626  1.00  0.00    -0.465 NA 
ENDBRANCH  17  22
ENDBRANCH  15  17
ENDBRANCH   1  13
BRANCH   8  30
HETATM   30  C   UNL     1      -8.461   7.188  68.476  1.00  0.00    -0.125 C  
HETATM   31  C   UNL     1      -7.698   6.878  66.028  1.00  0.00    -0.096 C  
HETATM   32  C   UNL     1      -8.113   6.468  67.398  1.00  0.00    -0.121 C  
HETATM   33  C   UNL     1      -8.175   5.709  65.183  1.00  0.00    -0.136 C  
HETATM   34  N   UNL     1      -8.297   4.580  66.084  1.00  0.00    -0.113 N  
HETATM   35  C   UNL     1      -8.191   4.978  67.412  1.00  0.00    -0.106 C  
HETATM   36  O   UNL     1      -8.151   4.290  68.414  1.00  0.00    -0.080 OA 
BRANCH  34  37
HETATM   37  C   UNL     1      -8.199   3.185  65.624  1.00  0.00    -0.091 C  
HETATM   38  C   UNL     1      -6.889   2.498  66.017  1.00  0.00    -0.043 C  
HETATM   39  C   UNL     1      -5.935   2.917  64.913  1.00  0.00    -0.018 C  
HETATM   40  N   UNL     1      -6.732   2.980  63.690  1.00  0.00    -0.031 NA 
HETATM   41  H   UNL     1      -6.509   2.236  63.029  1.00  0.00     0.000 HD 
HETATM   42  C   UNL     1      -8.153   2.990  64.096  1.00  0.00    -0.082 C  
ENDBRANCH  34  37
ENDBRANCH   8  30
TORSDOF 6
ENDMDL
MODEL       89
REMARK 921   NORMALIZED FREE ENERGY PREDICTED BY IDOCK:   -5.04 KCAL/MOL
REMARK 922        TOTAL FREE ENERGY PREDICTED BY IDOCK:   -8.33 KCAL/MOL
REMARK 923 INTER-LIGAND FREE ENERGY PREDICTED BY IDOCK:   -7.18 KCAL/MOL
REMARK 924 INTRA-LIGAND FREE ENERGY PREDICTED BY IDOCK:   -1.15 KCAL/MOL
REMARK 927      BINDING AFFINITY PREDICTED BY RF-SCORE:    0.00 PKD
ROOT
HETATM    1  CA  UNL     1      -6.277   7.497  71.014  1.00  0.00    -0.035 C  
HETATM    2  C   UNL     1      -8.269   9.300  67.928  1.00  0.00    -0.115 C  
HETATM    3  C   UNL     1      -6.021   8.997  71.421  1.00  0.00    -0.062 C  
HETATM    4  O   UNL     1      -5.667   9.645  72.378  1.00  0.00    -0.270 OA 
HETATM    5  O   UNL     1      -5.846  11.970  71.370  1.00  0.00    -0.326 OA 
HETATM    6  OXT UNL     1      -6.184  12.908  69.387  1.00  0.00    -0.101 OA 
HETATM    7  N   UNL     1      -6.521   9.423  70.243  1.00  0.00    -0.056 N  
HETATM    8  C   UNL     1      -7.676  10.565  68.538  1.00  0.00    -0.104 C  
HETATM    9  CA  UNL     1      -6.843  10.594  69.614  1.00  0.00    -0.124 C  
HETATM   10  S   UNL     1      -8.274   7.853  69.007  1.00  0.00    -0.126 SA 
HETATM   11  C   UNL     1      -6.586   8.118  69.609  1.00  0.00    -0.037 C  
HETATM   12  C   UNL     1      -6.276  11.916  70.097  1.00  0.00    -0.087 C  
ENDROOT
BRANCH   1  13
HETATM   13  N   UNL     1      -7.427   6.820  71.673  1.00  0.00    -0.086 N  
HETATM   14  O   UNL     1      -6.856   7.312  73.837  1.00  0.00    -0.079 OA 
HETATM   15  C   UNL     1      -7.634   6.822  73.034  1.00  0.00    -0.086 C  
HETATM   16  H   UNL     1      -8.098   6.328  71.084  1.00  0.00     0.000 HD 
BRANCH  15  17
HETATM   17  C   UNL     1      -8.938   6.155  73.493  1.00  0.00    -0.124 C  
BRANCH  17  18
HETATM   18  N   UNL     1      -9.007   5.247  74.436  1.00  0.00    -0.117 NA 
HETATM   19  H   UNL     1      -8.283   5.134  75.146  1.00  0.00     0.000 HD 
HETATM   20  O   UNL     1     -10.151   4.444  74.391  1.00  0.00    -0.162 OA 
HETATM   21  H   UNL     1     -10.200   3.786  75.074  1.00  0.00     0.000 HD 
ENDBRANCH  17  18
BRANCH  17  22
HETATM   22  C   UNL     1     -10.204   6.551  72.869  1.00  0.00    -0.193 A  
HETATM   23  S   UNL     1     -12.106   6.650  71.368  1.00  0.00    -0.306 SA 
HETATM   24  H1  UNL     1     -12.907   9.414  73.639  1.00  0.00     0.000 HD 
HETATM   25  N   UNL     1     -10.669   5.917  71.784  1.00  0.00    -0.237 NA 
HETATM   26  N   UNL     1     -10.941   7.642  73.365  1.00  0.00    -0.309 NA 
HETATM   27  H2  UNL     1     -13.769   8.763  72.265  1.00  0.00     0.000 HD 
HETATM   28  C   UNL     1     -12.022   7.799  72.645  1.00  0.00    -0.205 A  
HETATM   29  N   UNL     1     -12.958   8.733  72.881  1.00  0.00    -0.254 NA 
ENDBRANCH  17  22
ENDBRANCH  15  17
ENDBRANCH   1  13
BRANCH   8  30
HETATM   30  C   UNL     1      -8.163  11.728  67.785  1.00  0.00    -0.144 C  
HETATM   31  C   UNL     1     -10.530  12.002  68.781  1.00  0.00    -0.207 C  
HETATM   32  C   UNL     1      -9.375  12.296  67.889  1.00  0.00    -0.190 C  
HETATM   33  C   UNL     1     -11.713  12.430  67.928  1.00  0.00    -0.360 C  
HETATM   34  N   UNL     1     -11.191  13.367  66.952  1.00  0.00    -0.300 N  
HETATM   35  C   UNL     1      -9.801  13.373  66.949  1.00  0.00    -0.256 C  
HETATM   36  O   UNL     1      -9.043  14.097  66.333  1.00  0.00    -0.218 OA 
BRANCH  34  37
HETATM   37  C   UNL     1     -12.029  14.397  66.317  1.00  0.00    -0.376 C  
HETATM   38  C   UNL     1     -12.979  13.848  65.251  1.00  0.00    -0.341 C  
HETATM   39  C   UNL     1     -12.113  13.801  64.006  1.00  0.00    -0.403 C  
HETATM   40  N   UNL     1     -11.223  14.957  64.087  1.00  0.00    -0.553 NA 
HETATM   41  H   UNL     1     -11.443  15.680  63.401  1.00  0.00     0.000 HD 
HETATM   42  C   UNL     1     -11.271  15.447  65.481  1.00  0.00    -0.234 C  
ENDBRANCH  34  37
ENDBRANCH   8  30
TORSDOF 6
ENDMDL
MODEL       90
REMARK 921   NORMALIZED FREE ENERGY PREDICTED BY IDOCK:   -5.04 KCAL/MOL
REMARK 922        TOTAL FREE ENERGY PREDICTED BY IDOCK:   -8.33 KCAL/MOL
REMARK 923 INTER-LIGAND FREE ENERGY PREDICTED BY IDOCK:   -7.40 KCAL/MOL
REMARK 924 INTRA-LIGAND FREE ENERGY PREDICTED BY IDOCK:   -0.92 KCAL/MOL
REMARK 927      BINDING AFFINITY PREDICTED BY RF-SCORE:    0.00 PKD
ROOT
HETATM    1  CA  UNL     1      -7.361   9.999  64.690  1.00  0.00    -0.143 C  
HETATM    2  C   UNL     1     -10.799  10.394  66.872  1.00  0.00    -0.161 C  
HETATM    3  C   UNL     1      -6.792  10.893  65.856  1.00  0.00    -0.032 C  
HETATM    4  O   UNL     1      -5.731  11.226  66.327  1.00  0.00    -0.142 OA 
HETATM    5  O   UNL     1      -6.581  12.672  68.236  1.00  0.00    -0.066 OA 
HETATM    6  OXT UNL     1      -8.497  13.537  68.948  1.00  0.00     0.017 OA 
HETATM    7  N   UNL     1      -8.037  11.102  66.330  1.00  0.00    -0.166 N  
HETATM    8  C   UNL     1      -9.945  11.358  67.687  1.00  0.00    -0.196 C  
HETATM    9  CA  UNL     1      -8.656  11.688  67.400  1.00  0.00    -0.149 C  
HETATM   10  S   UNL     1      -9.883   9.264  65.804  1.00  0.00    -0.119 SA 
HETATM   11  C   UNL     1      -8.745  10.534  65.196  1.00  0.00    -0.185 C  
HETATM   12  C   UNL     1      -7.925  12.703  68.259  1.00  0.00    -0.153 C  
ENDROOT
BRANCH   1  13
HETATM   13  N   UNL     1      -7.163   8.531  64.826  1.00  0.00    -0.083 N  
HETATM   14  O   UNL     1      -8.019   7.929  62.788  1.00  0.00    -0.143 OA 
HETATM   15  C   UNL     1      -7.477   7.624  63.839  1.00  0.00    -0.107 C  
HETATM   16  H   UNL     1      -6.773   8.176  65.699  1.00  0.00     0.000 HD 
BRANCH  15  17
HETATM   17  C   UNL     1      -7.093   6.170  64.145  1.00  0.00    -0.053 C  
BRANCH  17  18
HETATM   18  N   UNL     1      -6.168   5.503  63.499  1.00  0.00    -0.021 NA 
HETATM   19  H   UNL     1      -5.597   5.923  62.765  1.00  0.00     0.000 HD 
HETATM   20  O   UNL     1      -6.025   4.170  63.894  1.00  0.00    -0.017 OA 
HETATM   21  H   UNL     1      -5.355   3.686  63.425  1.00  0.00     0.000 HD 
ENDBRANCH  17  18
BRANCH  17  22
HETATM   22  C   UNL     1      -7.773   5.463  65.234  1.00  0.00    -0.089 A  
HETATM   23  S   UNL     1      -9.359   4.109  66.471  1.00  0.00    -0.188 SA 
HETATM   24  H1  UNL     1      -7.115   5.142  69.179  1.00  0.00     0.000 HD 
HETATM   25  N   UNL     1      -8.881   4.745  65.007  1.00  0.00    -0.149 NA 
HETATM   26  N   UNL     1      -7.306   5.560  66.558  1.00  0.00    -0.081 NA 
HETATM   27  H2  UNL     1      -8.531   4.117  69.181  1.00  0.00     0.000 HD 
HETATM   28  C   UNL     1      -8.074   4.849  67.342  1.00  0.00    -0.106 A  
HETATM   29  N   UNL     1      -7.877   4.703  68.663  1.00  0.00    -0.079 NA 
ENDBRANCH  17  22
ENDBRANCH  15  17
ENDBRANCH   1  13
BRANCH   8  30
HETATM   30  C   UNL     1     -10.735  11.849  68.822  1.00  0.00    -0.257 C  
HETATM   31  C   UNL     1     -11.696  14.038  67.844  1.00  0.00    -0.397 C  
HETATM   32  C   UNL     1     -11.441  12.990  68.871  1.00  0.00    -0.345 C  
HETATM   33  C   UNL     1     -11.870  15.286  68.694  1.00  0.00    -0.305 C  
HETATM   34  N   UNL     1     -12.237  14.826  70.019  1.00  0.00    -0.326 N  
HETATM   35  C   UNL     1     -12.067  13.452  70.144  1.00  0.00    -0.344 C  
HETATM   36  O   UNL     1     -12.364  12.728  71.074  1.00  0.00    -0.356 OA 
BRANCH  34  37
HETATM   37  C   UNL     1     -13.001  15.658  70.963  1.00  0.00    -0.458 C  
HETATM   38  C   UNL     1     -12.138  16.319  72.039  1.00  0.00    -0.493 C  
HETATM   39  C   UNL     1     -12.023  15.241  73.101  1.00  0.00    -0.418 C  
HETATM   40  N   UNL     1     -13.303  14.537  73.105  1.00  0.00    -0.602 NA 
HETATM   41  H   UNL     1     -13.857  14.718  73.942  1.00  0.00     0.000 HD 
HETATM   42  C   UNL     1     -14.004  14.901  71.856  1.00  0.00    -0.488 C  
ENDBRANCH  34  37
ENDBRANCH   8  30
TORSDOF 6
ENDMDL
MODEL       91
REMARK 921   NORMALIZED FREE ENERGY PREDICTED BY IDOCK:   -5.03 KCAL/MOL
REMARK 922        TOTAL FREE ENERGY PREDICTED BY IDOCK:   -8.32 KCAL/MOL
REMARK 923 INTER-LIGAND FREE ENERGY PREDICTED BY IDOCK:   -7.36 KCAL/MOL
REMARK 924 INTRA-LIGAND FREE ENERGY PREDICTED BY IDOCK:   -0.97 KCAL/MOL
REMARK 927      BINDING AFFINITY PREDICTED BY RF-SCORE:    0.00 PKD
ROOT
HETATM    1  CA  UNL     1      -6.187  10.079  69.232  1.00  0.00    -0.044 C  
HETATM    2  C   UNL     1      -7.245  13.661  67.561  1.00  0.00    -0.156 C  
HETATM    3  C   UNL     1      -5.857  11.011  70.459  1.00  0.00    -0.134 C  
HETATM    4  O   UNL     1      -5.648  10.931  71.646  1.00  0.00    -0.335 OA 
HETATM    5  O   UNL     1      -5.340  13.400  72.160  1.00  0.00    -0.326 OA 
HETATM    6  OXT UNL     1      -5.131  15.319  71.064  1.00  0.00    -0.135 OA 
HETATM    7  N   UNL     1      -6.039  12.109  69.698  1.00  0.00    -0.117 N  
HETATM    8  C   UNL     1      -6.659  14.218  68.853  1.00  0.00    -0.096 C  
HETATM    9  CA  UNL     1      -6.082  13.470  69.833  1.00  0.00    -0.127 C  
HETATM   10  S   UNL     1      -7.647  11.902  67.593  1.00  0.00    -0.147 SA 
HETATM   11  C   UNL     1      -6.112  11.418  68.422  1.00  0.00    -0.045 C  
HETATM   12  C   UNL     1      -5.486  14.148  71.052  1.00  0.00    -0.179 C  
ENDROOT
BRANCH   1  13
HETATM   13  N   UNL     1      -7.521   9.420  69.242  1.00  0.00    -0.073 N  
HETATM   14  O   UNL     1      -7.170   8.018  67.465  1.00  0.00    -0.084 OA 
HETATM   15  C   UNL     1      -7.882   8.414  68.375  1.00  0.00    -0.113 C  
HETATM   16  H   UNL     1      -8.207   9.731  69.930  1.00  0.00     0.000 HD 
BRANCH  15  17
HETATM   17  C   UNL     1      -9.266   7.802  68.628  1.00  0.00    -0.138 C  
BRANCH  17  18
HETATM   18  N   UNL     1     -10.152   8.305  69.453  1.00  0.00    -0.193 NA 
HETATM   19  H   UNL     1      -9.913   8.998  70.163  1.00  0.00     0.000 HD 
HETATM   20  O   UNL     1     -11.451   7.817  69.282  1.00  0.00    -0.321 OA 
HETATM   21  H   UNL     1     -12.093   8.182  69.880  1.00  0.00     0.000 HD 
ENDBRANCH  17  18
BRANCH  17  22
HETATM   22  C   UNL     1      -9.656   6.589  67.905  1.00  0.00    -0.118 A  
HETATM   23  S   UNL     1     -10.727   5.079  66.338  1.00  0.00    -0.019 SA 
HETATM   24  H1  UNL     1      -8.699   2.709  68.264  1.00  0.00     0.000 HD 
HETATM   25  N   UNL     1     -10.532   6.638  66.892  1.00  0.00    -0.268 NA 
HETATM   26  N   UNL     1      -9.156   5.330  68.287  1.00  0.00    -0.109 NA 
HETATM   27  H2  UNL     1      -9.772   2.471  66.904  1.00  0.00     0.000 HD 
HETATM   28  C   UNL     1      -9.648   4.410  67.498  1.00  0.00    -0.172 A  
HETATM   29  N   UNL     1      -9.339   3.105  67.576  1.00  0.00    -0.205 NA 
ENDBRANCH  17  22
ENDBRANCH  15  17
ENDBRANCH   1  13
BRANCH   8  30
HETATM   30  C   UNL     1      -6.836  15.676  68.864  1.00  0.00    -0.126 C  
HETATM   31  C   UNL     1      -9.407  15.857  69.026  1.00  0.00    -0.243 C  
HETATM   32  C   UNL     1      -8.003  16.338  68.913  1.00  0.00    -0.230 C  
HETATM   33  C   UNL     1     -10.180  16.946  68.301  1.00  0.00    -0.318 C  
HETATM   34  N   UNL     1      -9.338  18.125  68.323  1.00  0.00    -0.294 N  
HETATM   35  C   UNL     1      -8.052  17.821  68.754  1.00  0.00    -0.226 C  
HETATM   36  O   UNL     1      -7.125  18.574  68.981  1.00  0.00    -0.288 OA 
BRANCH  34  37
HETATM   37  C   UNL     1      -9.882  19.490  68.231  1.00  0.00    -0.416 C  
HETATM   38  C   UNL     1     -11.129  19.597  67.351  1.00  0.00    -0.229 C  
HETATM   39  C   UNL     1     -10.555  19.744  65.953  1.00  0.00    -0.453 C  
HETATM   40  N   UNL     1      -9.332  20.532  66.098  1.00  0.00    -0.621 NA 
HETATM   41  H   UNL     1      -9.415  21.473  65.713  1.00  0.00     0.000 HD 
HETATM   42  C   UNL     1      -8.975  20.522  67.532  1.00  0.00    -0.258 C  
ENDBRANCH  34  37
ENDBRANCH   8  30
TORSDOF 6
ENDMDL
MODEL       92
REMARK 921   NORMALIZED FREE ENERGY PREDICTED BY IDOCK:   -5.01 KCAL/MOL
REMARK 922        TOTAL FREE ENERGY PREDICTED BY IDOCK:   -8.29 KCAL/MOL
REMARK 923 INTER-LIGAND FREE ENERGY PREDICTED BY IDOCK:   -7.14 KCAL/MOL
REMARK 924 INTRA-LIGAND FREE ENERGY PREDICTED BY IDOCK:   -1.15 KCAL/MOL
REMARK 927      BINDING AFFINITY PREDICTED BY RF-SCORE:    0.00 PKD
ROOT
HETATM    1  CA  UNL     1      -9.621   9.518  68.864  1.00  0.00    -0.156 C  
HETATM    2  C   UNL     1      -7.150  12.542  67.645  1.00  0.00    -0.139 C  
HETATM    3  C   UNL     1     -10.724  10.555  68.429  1.00  0.00    -0.224 C  
HETATM    4  O   UNL     1     -11.904  10.591  68.169  1.00  0.00    -0.417 OA 
HETATM    5  O   UNL     1     -12.107  13.056  67.591  1.00  0.00    -0.325 OA 
HETATM    6  OXT UNL     1     -10.880  14.903  67.700  1.00  0.00    -0.272 OA 
HETATM    7  N   UNL     1      -9.790  11.516  68.278  1.00  0.00    -0.197 N  
HETATM    8  C   UNL     1      -8.464  13.303  67.509  1.00  0.00    -0.202 C  
HETATM    9  CA  UNL     1      -9.689  12.804  67.830  1.00  0.00    -0.217 C  
HETATM   10  S   UNL     1      -7.304  10.746  67.739  1.00  0.00    -0.094 SA 
HETATM   11  C   UNL     1      -8.698  10.783  68.895  1.00  0.00    -0.152 C  
HETATM   12  C   UNL     1     -10.921  13.680  67.699  1.00  0.00    -0.267 C  
ENDROOT
BRANCH   1  13
HETATM   13  N   UNL     1      -9.248   8.488  67.856  1.00  0.00    -0.139 N  
HETATM   14  O   UNL     1     -11.086   7.145  68.115  1.00  0.00    -0.087 OA 
HETATM   15  C   UNL     1     -10.039   7.406  67.543  1.00  0.00    -0.192 C  
HETATM   16  H   UNL     1      -8.357   8.589  67.371  1.00  0.00     0.000 HD 
BRANCH  15  17
HETATM   17  C   UNL     1      -9.515   6.526  66.400  1.00  0.00    -0.126 C  
BRANCH  17  18
HETATM   18  N   UNL     1     -10.012   5.354  66.088  1.00  0.00    -0.285 NA 
HETATM   19  H   UNL     1      -9.434   4.518  65.995  1.00  0.00     0.000 HD 
HETATM   20  O   UNL     1     -11.396   5.339  65.892  1.00  0.00    -0.793 OA 
HETATM   21  H   UNL     1     -11.755   4.490  65.666  1.00  0.00     0.000 HD 
ENDBRANCH  17  18
BRANCH  17  22
HETATM   22  C   UNL     1      -8.401   7.008  65.578  1.00  0.00    -0.133 A  
HETATM   23  S   UNL     1      -6.996   8.417  64.192  1.00  0.00    -0.079 SA 
HETATM   24  H1  UNL     1      -4.980   5.357  64.287  1.00  0.00     0.000 HD 
HETATM   25  N   UNL     1      -8.406   8.245  65.063  1.00  0.00    -0.160 NA 
HETATM   26  N   UNL     1      -7.318   6.165  65.268  1.00  0.00    -0.070 NA 
HETATM   27  H2  UNL     1      -4.695   6.903  63.524  1.00  0.00     0.000 HD 
HETATM   28  C   UNL     1      -6.460   6.817  64.526  1.00  0.00    -0.042 A  
HETATM   29  N   UNL     1      -5.298   6.305  64.089  1.00  0.00    -0.018 NA 
ENDBRANCH  17  22
ENDBRANCH  15  17
ENDBRANCH   1  13
BRANCH   8  30
HETATM   30  C   UNL     1      -8.185  14.638  66.965  1.00  0.00    -0.188 C  
HETATM   31  C   UNL     1      -6.225  15.384  68.472  1.00  0.00    -0.095 C  
HETATM   32  C   UNL     1      -7.255  15.501  67.404  1.00  0.00    -0.241 C  
HETATM   33  C   UNL     1      -6.072  16.824  68.932  1.00  0.00    -0.157 C  
HETATM   34  N   UNL     1      -6.539  17.651  67.837  1.00  0.00    -0.184 N  
HETATM   35  C   UNL     1      -7.185  16.892  66.868  1.00  0.00    -0.216 C  
HETATM   36  O   UNL     1      -7.611  17.240  65.784  1.00  0.00    -0.440 OA 
BRANCH  34  37
HETATM   37  C   UNL     1      -6.081  19.036  67.639  1.00  0.00    -0.209 C  
HETATM   38  C   UNL     1      -5.155  19.543  68.746  1.00  0.00    -0.198 C  
HETATM   39  C   UNL     1      -6.122  20.028  69.811  1.00  0.00    -0.349 C  
HETATM   40  N   UNL     1      -7.265  20.590  69.095  1.00  0.00     0.214 NA 
HETATM   41  H   UNL     1      -7.324  21.605  69.170  1.00  0.00     0.000 HD 
HETATM   42  C   UNL     1      -7.180  20.116  67.697  1.00  0.00    -0.290 C  
ENDBRANCH  34  37
ENDBRANCH   8  30
TORSDOF 6
ENDMDL
MODEL       93
REMARK 921   NORMALIZED FREE ENERGY PREDICTED BY IDOCK:   -4.99 KCAL/MOL
REMARK 922        TOTAL FREE ENERGY PREDICTED BY IDOCK:   -8.27 KCAL/MOL
REMARK 923 INTER-LIGAND FREE ENERGY PREDICTED BY IDOCK:   -7.12 KCAL/MOL
REMARK 924 INTRA-LIGAND FREE ENERGY PREDICTED BY IDOCK:   -1.14 KCAL/MOL
REMARK 927      BINDING AFFINITY PREDICTED BY RF-SCORE:    0.00 PKD
ROOT
HETATM    1  CA  UNL     1     -12.152  11.024  68.424  1.00  0.00     0.063 C  
HETATM    2  C   UNL     1     -11.128  14.805  69.605  1.00  0.00    -0.272 C  
HETATM    3  C   UNL     1     -11.312  11.441  67.158  1.00  0.00    -0.255 C  
HETATM    4  O   UNL     1     -10.771  10.934  66.204  1.00  0.00    -0.235 OA 
HETATM    5  O   UNL     1      -9.796  13.027  65.144  1.00  0.00    -0.184 OA 
HETATM    6  OXT UNL     1      -9.921  15.230  65.380  1.00  0.00    -0.347 OA 
HETATM    7  N   UNL     1     -11.249  12.716  67.595  1.00  0.00    -0.266 N  
HETATM    8  C   UNL     1     -10.565  14.888  68.192  1.00  0.00    -0.244 C  
HETATM    9  CA  UNL     1     -10.650  13.899  67.260  1.00  0.00    -0.276 C  
HETATM   10  S   UNL     1     -11.452  13.137  70.211  1.00  0.00     0.339 SA 
HETATM   11  C   UNL     1     -12.216  12.571  68.669  1.00  0.00     0.088 C  
HETATM   12  C   UNL     1     -10.094  14.121  65.867  1.00  0.00    -0.321 C  
ENDROOT
BRANCH   1  13
HETATM   13  N   UNL     1     -11.432  10.248  69.469  1.00  0.00    -0.362 N  
HETATM   14  O   UNL     1     -13.199   9.975  70.902  1.00  0.00    -0.370 OA 
HETATM   15  C   UNL     1     -12.035   9.757  70.605  1.00  0.00    -0.259 C  
HETATM   16  H   UNL     1     -10.436  10.070  69.338  1.00  0.00     0.000 HD 
BRANCH  15  17
HETATM   17  C   UNL     1     -11.134   8.892  71.498  1.00  0.00    -0.326 C  
BRANCH  17  18
HETATM   18  N   UNL     1     -11.497   8.410  72.662  1.00  0.00    -0.357 NA 
HETATM   19  H   UNL     1     -10.865   8.369  73.462  1.00  0.00     0.000 HD 
HETATM   20  O   UNL     1     -12.819   7.958  72.719  1.00  0.00    -0.507 OA 
HETATM   21  H   UNL     1     -13.081   7.609  73.563  1.00  0.00     0.000 HD 
ENDBRANCH  17  18
BRANCH  17  22
HETATM   22  C   UNL     1      -9.784   8.554  71.039  1.00  0.00    -0.193 A  
HETATM   23  S   UNL     1      -7.870   7.317  70.207  1.00  0.00    -0.097 SA 
HETATM   24  H1  UNL     1      -6.364  10.623  70.694  1.00  0.00     0.000 HD 
HETATM   25  N   UNL     1      -9.480   7.312  70.637  1.00  0.00    -0.165 NA 
HETATM   26  N   UNL     1      -8.756   9.514  71.054  1.00  0.00    -0.228 NA 
HETATM   27  H2  UNL     1      -5.692   9.127  70.088  1.00  0.00     0.000 HD 
HETATM   28  C   UNL     1      -7.652   8.976  70.605  1.00  0.00    -0.119 A  
HETATM   29  N   UNL     1      -6.493   9.639  70.459  1.00  0.00    -0.084 NA 
ENDBRANCH  17  22
ENDBRANCH  15  17
ENDBRANCH   1  13
BRANCH   8  30
HETATM   30  C   UNL     1      -9.910  16.191  68.017  1.00  0.00    -0.231 C  
HETATM   31  C   UNL     1      -7.433  15.547  68.364  1.00  0.00    -0.115 C  
HETATM   32  C   UNL     1      -8.596  16.444  68.118  1.00  0.00    -0.193 C  
HETATM   33  C   UNL     1      -6.459  16.470  69.076  1.00  0.00    -0.182 C  
HETATM   34  N   UNL     1      -6.845  17.821  68.720  1.00  0.00    -0.237 N  
HETATM   35  C   UNL     1      -8.078  17.843  68.080  1.00  0.00    -0.252 C  
HETATM   36  O   UNL     1      -8.654  18.782  67.565  1.00  0.00    -0.270 OA 
BRANCH  34  37
HETATM   37  C   UNL     1      -5.895  18.946  68.733  1.00  0.00    -0.210 C  
HETATM   38  C   UNL     1      -5.125  19.086  70.048  1.00  0.00    -0.201 C  
HETATM   39  C   UNL     1      -6.072  19.890  70.920  1.00  0.00    -0.223 C  
HETATM   40  N   UNL     1      -6.751  20.826  70.026  1.00  0.00     0.254 NA 
HETATM   41  H   UNL     1      -6.463  21.794  70.168  1.00  0.00     0.000 HD 
HETATM   42  C   UNL     1      -6.526  20.350  68.645  1.00  0.00    -0.286 C  
ENDBRANCH  34  37
ENDBRANCH   8  30
TORSDOF 6
ENDMDL
MODEL       94
REMARK 921   NORMALIZED FREE ENERGY PREDICTED BY IDOCK:   -4.95 KCAL/MOL
REMARK 922        TOTAL FREE ENERGY PREDICTED BY IDOCK:   -8.21 KCAL/MOL
REMARK 923 INTER-LIGAND FREE ENERGY PREDICTED BY IDOCK:   -7.16 KCAL/MOL
REMARK 924 INTRA-LIGAND FREE ENERGY PREDICTED BY IDOCK:   -1.05 KCAL/MOL
REMARK 927      BINDING AFFINITY PREDICTED BY RF-SCORE:    0.00 PKD
ROOT
HETATM    1  CA  UNL     1      -7.702  10.648  65.647  1.00  0.00    -0.109 C  
HETATM    2  C   UNL     1      -6.757   9.013  69.276  1.00  0.00    -0.049 C  
HETATM    3  C   UNL     1      -8.053   9.147  65.321  1.00  0.00    -0.124 C  
HETATM    4  O   UNL     1      -8.663   8.501  64.503  1.00  0.00    -0.094 OA 
HETATM    5  O   UNL     1      -8.287   6.182  65.470  1.00  0.00    -0.138 OA 
HETATM    6  OXT UNL     1      -7.071   5.211  67.053  1.00  0.00    -0.067 OA 
HETATM    7  N   UNL     1      -7.499   8.745  66.483  1.00  0.00    -0.084 N  
HETATM    8  C   UNL     1      -7.028   7.705  68.543  1.00  0.00    -0.072 C  
HETATM    9  CA  UNL     1      -7.357   7.605  67.225  1.00  0.00    -0.091 C  
HETATM   10  S   UNL     1      -7.413  10.494  68.482  1.00  0.00    -0.097 SA 
HETATM   11  C   UNL     1      -6.878  10.014  66.820  1.00  0.00    -0.081 C  
HETATM   12  C   UNL     1      -7.553   6.239  66.596  1.00  0.00    -0.095 C  
ENDROOT
BRANCH   1  13
HETATM   13  N   UNL     1      -8.835  11.516  66.067  1.00  0.00    -0.317 N  
HETATM   14  O   UNL     1     -10.075  11.329  64.150  1.00  0.00    -0.265 OA 
HETATM   15  C   UNL     1      -9.946  11.749  65.290  1.00  0.00    -0.253 C  
HETATM   16  H   UNL     1      -8.785  11.963  66.983  1.00  0.00     0.000 HD 
BRANCH  15  17
HETATM   17  C   UNL     1     -11.044  12.588  65.959  1.00  0.00    -0.294 C  
BRANCH  17  18
HETATM   18  N   UNL     1     -12.102  12.081  66.544  1.00  0.00    -0.541 NA 
HETATM   19  H   UNL     1     -13.009  12.015  66.081  1.00  0.00     0.000 HD 
HETATM   20  O   UNL     1     -11.890  11.639  67.853  1.00  0.00    -0.543 OA 
HETATM   21  H   UNL     1     -12.657  11.272  68.277  1.00  0.00     0.000 HD 
ENDBRANCH  17  18
BRANCH  17  22
HETATM   22  C   UNL     1     -10.920  14.048  65.975  1.00  0.00    -0.298 A  
HETATM   23  S   UNL     1     -10.515  16.322  66.714  1.00  0.00    -0.258 SA 
HETATM   24  H1  UNL     1     -11.598  16.927  63.264  1.00  0.00     0.000 HD 
HETATM   25  N   UNL     1     -10.523  14.696  67.079  1.00  0.00    -0.267 NA 
HETATM   26  N   UNL     1     -11.262  14.812  64.845  1.00  0.00    -0.393 NA 
HETATM   27  H2  UNL     1     -11.079  18.026  64.520  1.00  0.00     0.000 HD 
HETATM   28  C   UNL     1     -11.070  16.080  65.104  1.00  0.00    -0.283 A  
HETATM   29  N   UNL     1     -11.269  17.071  64.219  1.00  0.00    -0.996 NA 
ENDBRANCH  17  22
ENDBRANCH  15  17
ENDBRANCH   1  13
BRANCH   8  30
HETATM   30  C   UNL     1      -6.891   6.592  69.490  1.00  0.00    -0.065 C  
HETATM   31  C   UNL     1      -9.317   6.374  70.347  1.00  0.00    -0.169 C  
HETATM   32  C   UNL     1      -7.864   6.068  70.253  1.00  0.00    -0.102 C  
HETATM   33  C   UNL     1      -9.627   6.026  71.794  1.00  0.00    -0.151 C  
HETATM   34  N   UNL     1      -8.590   5.107  72.221  1.00  0.00    -0.124 N  
HETATM   35  C   UNL     1      -7.555   5.046  71.295  1.00  0.00    -0.090 C  
HETATM   36  O   UNL     1      -6.583   4.316  71.285  1.00  0.00    -0.028 OA 
BRANCH  34  37
HETATM   37  C   UNL     1      -8.792   4.135  73.308  1.00  0.00    -0.098 C  
HETATM   38  C   UNL     1      -8.634   2.678  72.868  1.00  0.00    -0.072 C  
HETATM   39  C   UNL     1     -10.006   2.331  72.320  1.00  0.00    -0.156 C  
HETATM   40  N   UNL     1     -10.969   3.052  73.149  1.00  0.00    -0.142 NA 
HETATM   41  H   UNL     1     -11.514   2.437  73.754  1.00  0.00     0.000 HD 
HETATM   42  C   UNL     1     -10.216   4.081  73.896  1.00  0.00    -0.159 C  
ENDBRANCH  34  37
ENDBRANCH   8  30
TORSDOF 6
ENDMDL
MODEL       95
REMARK 921   NORMALIZED FREE ENERGY PREDICTED BY IDOCK:   -4.89 KCAL/MOL
REMARK 922        TOTAL FREE ENERGY PREDICTED BY IDOCK:   -8.13 KCAL/MOL
REMARK 923 INTER-LIGAND FREE ENERGY PREDICTED BY IDOCK:   -7.35 KCAL/MOL
REMARK 924 INTRA-LIGAND FREE ENERGY PREDICTED BY IDOCK:   -0.79 KCAL/MOL
REMARK 927      BINDING AFFINITY PREDICTED BY RF-SCORE:    0.00 PKD
ROOT
HETATM    1  CA  UNL     1     -10.732   9.510  71.050  1.00  0.00    -0.340 C  
HETATM    2  C   UNL     1     -10.856   6.268  68.557  1.00  0.00    -0.323 C  
HETATM    3  C   UNL     1      -9.640   8.628  71.765  1.00  0.00    -0.290 C  
HETATM    4  O   UNL     1      -8.747   8.742  72.571  1.00  0.00    -0.406 OA 
HETATM    5  O   UNL     1      -7.911   6.343  72.577  1.00  0.00    -0.101 OA 
HETATM    6  OXT UNL     1      -8.518   4.363  71.780  1.00  0.00    -0.106 OA 
HETATM    7  N   UNL     1      -9.957   7.571  70.990  1.00  0.00    -0.186 N  
HETATM    8  C   UNL     1      -9.913   5.673  69.596  1.00  0.00    -0.267 C  
HETATM    9  CA  UNL     1      -9.521   6.299  70.740  1.00  0.00    -0.172 C  
HETATM   10  S   UNL     1     -11.026   8.064  68.607  1.00  0.00     0.327 SA 
HETATM   11  C   UNL     1     -11.160   8.145  70.411  1.00  0.00    -0.239 C  
HETATM   12  C   UNL     1      -8.618   5.581  71.724  1.00  0.00    -0.135 C  
ENDROOT
BRANCH   1  13
HETATM   13  N   UNL     1     -10.232  10.529  70.087  1.00  0.00    -0.409 N  
HETATM   14  O   UNL     1     -12.229  11.592  69.722  1.00  0.00    -0.288 OA 
HETATM   15  C   UNL     1     -11.025  11.510  69.535  1.00  0.00    -0.125 C  
HETATM   16  H   UNL     1      -9.248  10.499  69.821  1.00  0.00     0.000 HD 
BRANCH  15  17
HETATM   17  C   UNL     1     -10.285  12.522  68.650  1.00  0.00    -0.154 C  
BRANCH  17  18
HETATM   18  N   UNL     1      -9.306  13.287  69.069  1.00  0.00    -0.303 NA 
HETATM   19  H   UNL     1      -9.457  14.234  69.419  1.00  0.00     0.000 HD 
HETATM   20  O   UNL     1      -8.038  12.703  68.999  1.00  0.00    -0.333 OA 
HETATM   21  H   UNL     1      -7.329  13.257  69.302  1.00  0.00     0.000 HD 
ENDBRANCH  17  18
BRANCH  17  22
HETATM   22  C   UNL     1     -10.663  12.652  67.240  1.00  0.00    -0.237 A  
HETATM   23  S   UNL     1     -10.591  13.145  64.867  1.00  0.00    -0.368 SA 
HETATM   24  H1  UNL     1     -14.016  11.877  65.177  1.00  0.00     0.000 HD 
HETATM   25  N   UNL     1      -9.804  13.143  66.336  1.00  0.00    -0.274 NA 
HETATM   26  N   UNL     1     -11.957  12.310  66.807  1.00  0.00    -0.605 NA 
HETATM   27  H2  UNL     1     -13.115  12.437  63.789  1.00  0.00     0.000 HD 
HETATM   28  C   UNL     1     -12.052  12.514  65.519  1.00  0.00    -0.419 A  
HETATM   29  N   UNL     1     -13.150  12.251  64.791  1.00  0.00    -0.627 NA 
ENDBRANCH  17  22
ENDBRANCH  15  17
ENDBRANCH   1  13
BRANCH   8  30
HETATM   30  C   UNL     1      -9.497   4.338  69.150  1.00  0.00    -0.245 C  
HETATM   31  C   UNL     1      -7.926   4.942  67.191  1.00  0.00    -0.099 C  
HETATM   32  C   UNL     1      -8.680   4.058  68.122  1.00  0.00    -0.120 C  
HETATM   33  C   UNL     1      -7.862   4.099  65.928  1.00  0.00    -0.094 C  
HETATM   34  N   UNL     1      -8.051   2.724  66.348  1.00  0.00    -0.081 N  
HETATM   35  C   UNL     1      -8.467   2.652  67.672  1.00  0.00    -0.088 C  
HETATM   36  O   UNL     1      -8.627   1.668  68.369  1.00  0.00    -0.057 OA 
BRANCH  34  37
HETATM   37  C   UNL     1      -7.538   1.582  65.574  1.00  0.00    -0.065 C  
HETATM   38  C   UNL     1      -6.011   1.508  65.525  1.00  0.00    -0.017 C  
HETATM   39  C   UNL     1      -5.656   2.432  64.374  1.00  0.00    -0.009 C  
HETATM   40  N   UNL     1      -6.722   2.276  63.386  1.00  0.00    -0.029 NA 
HETATM   41  H   UNL     1      -6.416   1.790  62.542  1.00  0.00     0.000 HD 
HETATM   42  C   UNL     1      -7.851   1.607  64.065  1.00  0.00    -0.061 C  
ENDBRANCH  34  37
ENDBRANCH   8  30
TORSDOF 6
ENDMDL
MODEL       96
REMARK 921   NORMALIZED FREE ENERGY PREDICTED BY IDOCK:   -4.89 KCAL/MOL
REMARK 922        TOTAL FREE ENERGY PREDICTED BY IDOCK:   -8.13 KCAL/MOL
REMARK 923 INTER-LIGAND FREE ENERGY PREDICTED BY IDOCK:   -6.64 KCAL/MOL
REMARK 924 INTRA-LIGAND FREE ENERGY PREDICTED BY IDOCK:   -1.48 KCAL/MOL
REMARK 927      BINDING AFFINITY PREDICTED BY RF-SCORE:    0.00 PKD
ROOT
HETATM    1  CA  UNL     1      -6.795   5.269  70.107  1.00  0.00    -0.048 C  
HETATM    2  C   UNL     1     -10.242   6.984  68.725  1.00  0.00    -0.176 C  
HETATM    3  C   UNL     1      -6.406   6.778  70.332  1.00  0.00    -0.042 C  
HETATM    4  O   UNL     1      -5.597   7.441  70.937  1.00  0.00    -0.027 OA 
HETATM    5  O   UNL     1      -6.394   9.756  70.258  1.00  0.00    -0.063 OA 
HETATM    6  OXT UNL     1      -7.825  10.676  68.832  1.00  0.00    -0.110 OA 
HETATM    7  N   UNL     1      -7.499   7.181  69.652  1.00  0.00    -0.095 N  
HETATM    8  C   UNL     1      -9.453   8.273  68.921  1.00  0.00    -0.151 C  
HETATM    9  CA  UNL     1      -8.160   8.338  69.341  1.00  0.00    -0.115 C  
HETATM   10  S   UNL     1      -9.587   5.539  69.585  1.00  0.00    -0.170 SA 
HETATM   11  C   UNL     1      -7.865   5.874  69.136  1.00  0.00    -0.095 C  
HETATM   12  C   UNL     1      -7.465   9.682  69.448  1.00  0.00    -0.093 C  
ENDROOT
BRANCH   1  13
HETATM   13  N   UNL     1      -7.347   4.545  71.285  1.00  0.00    -0.054 N  
HETATM   14  O   UNL     1      -5.358   3.758  72.105  1.00  0.00     0.000 OA 
HETATM   15  C   UNL     1      -6.569   3.882  72.206  1.00  0.00    -0.018 C  
HETATM   16  H   UNL     1      -8.358   4.541  71.417  1.00  0.00     0.000 HD 
BRANCH  15  17
HETATM   17  C   UNL     1      -7.333   3.296  73.401  1.00  0.00    -0.055 C  
BRANCH  17  18
HETATM   18  N   UNL     1      -6.758   2.738  74.439  1.00  0.00    -0.029 NA 
HETATM   19  H   UNL     1      -6.899   3.072  75.393  1.00  0.00     0.000 HD 
HETATM   20  O   UNL     1      -5.936   1.648  74.136  1.00  0.00    -0.003 OA 
HETATM   21  H   UNL     1      -5.520   1.244  74.888  1.00  0.00     0.000 HD 
ENDBRANCH  17  18
BRANCH  17  22
HETATM   22  C   UNL     1      -8.797   3.364  73.419  1.00  0.00    -0.084 A  
HETATM   23  S   UNL     1     -11.068   4.214  73.455  1.00  0.00    -0.232 SA 
HETATM   24  H1  UNL     1     -11.708   0.606  73.525  1.00  0.00     0.000 HD 
HETATM   25  N   UNL     1      -9.434   4.543  73.423  1.00  0.00    -0.118 NA 
HETATM   26  N   UNL     1      -9.572   2.192  73.480  1.00  0.00    -0.078 NA 
HETATM   27  H2  UNL     1     -12.799   1.971  73.499  1.00  0.00     0.000 HD 
HETATM   28  C   UNL     1     -10.840   2.510  73.488  1.00  0.00    -0.191 A  
HETATM   29  N   UNL     1     -11.843   1.616  73.506  1.00  0.00    -0.209 NA 
ENDBRANCH  17  22
ENDBRANCH  15  17
ENDBRANCH   1  13
BRANCH   8  30
HETATM   30  C   UNL     1     -10.320   9.413  68.601  1.00  0.00    -0.227 C  
HETATM   31  C   UNL     1      -9.972   9.594  66.048  1.00  0.00    -0.344 C  
HETATM   32  C   UNL     1     -10.501   9.964  67.390  1.00  0.00    -0.325 C  
HETATM   33  C   UNL     1      -9.921  10.938  65.340  1.00  0.00    -0.263 C  
HETATM   34  N   UNL     1     -10.856  11.800  66.038  1.00  0.00    -0.287 N  
HETATM   35  C   UNL     1     -11.284  11.224  67.228  1.00  0.00    -0.296 C  
HETATM   36  O   UNL     1     -12.130  11.620  68.007  1.00  0.00    -0.597 OA 
BRANCH  34  37
HETATM   37  C   UNL     1     -11.505  12.952  65.391  1.00  0.00    -0.324 C  
HETATM   38  C   UNL     1     -12.878  12.632  64.798  1.00  0.00    -0.349 C  
HETATM   39  C   UNL     1     -12.541  12.069  63.429  1.00  0.00    -0.469 C  
HETATM   40  N   UNL     1     -11.371  12.810  62.963  1.00  0.00    -0.672 NA 
HETATM   41  H   UNL     1     -11.580  13.443  62.191  1.00  0.00     0.000 HD 
HETATM   42  C   UNL     1     -10.794  13.498  64.137  1.00  0.00    -0.229 C  
ENDBRANCH  34  37
ENDBRANCH   8  30
TORSDOF 6
ENDMDL
MODEL       97
REMARK 921   NORMALIZED FREE ENERGY PREDICTED BY IDOCK:   -4.88 KCAL/MOL
REMARK 922        TOTAL FREE ENERGY PREDICTED BY IDOCK:   -8.11 KCAL/MOL
REMARK 923 INTER-LIGAND FREE ENERGY PREDICTED BY IDOCK:   -7.11 KCAL/MOL
REMARK 924 INTRA-LIGAND FREE ENERGY PREDICTED BY IDOCK:   -1.00 KCAL/MOL
REMARK 927      BINDING AFFINITY PREDICTED BY RF-SCORE:    0.00 PKD
ROOT
HETATM    1  CA  UNL     1      -8.619   8.742  68.389  1.00  0.00    -0.134 C  
HETATM    2  C   UNL     1      -7.917  12.771  68.291  1.00  0.00    -0.151 C  
HETATM    3  C   UNL     1     -10.094   9.238  68.630  1.00  0.00    -0.189 C  
HETATM    4  O   UNL     1     -11.226   8.816  68.591  1.00  0.00     0.193 OA 
HETATM    5  O   UNL     1     -12.464  10.947  69.208  1.00  0.00    -0.392 OA 
HETATM    6  OXT UNL     1     -12.005  12.990  69.944  1.00  0.00    -0.320 OA 
HETATM    7  N   UNL     1      -9.663  10.506  68.786  1.00  0.00    -0.176 N  
HETATM    8  C   UNL     1      -9.382  12.843  68.705  1.00  0.00     0.014 C  
HETATM    9  CA  UNL     1     -10.176  11.764  68.949  1.00  0.00    -0.100 C  
HETATM   10  S   UNL     1      -7.387  11.191  67.599  1.00  0.00    -0.100 SA 
HETATM   11  C   UNL     1      -8.246  10.194  68.843  1.00  0.00    -0.124 C  
HETATM   12  C   UNL     1     -11.608  11.966  69.405  1.00  0.00    -0.325 C  
ENDROOT
BRANCH   1  13
HETATM   13  N   UNL     1      -8.256   8.405  66.986  1.00  0.00    -0.106 N  
HETATM   14  O   UNL     1      -9.626   6.584  66.756  1.00  0.00    -0.151 OA 
HETATM   15  C   UNL     1      -8.825   7.371  66.277  1.00  0.00    -0.159 C  
HETATM   16  H   UNL     1      -7.545   8.972  66.522  1.00  0.00     0.000 HD 
BRANCH  15  17
HETATM   17  C   UNL     1      -8.384   7.267  64.811  1.00  0.00     0.018 C  
BRANCH  17  18
HETATM   18  N   UNL     1      -8.551   8.217  63.924  1.00  0.00    -0.400 NA 
HETATM   19  H   UNL     1      -8.182   8.156  62.975  1.00  0.00     0.000 HD 
HETATM   20  O   UNL     1      -9.274   9.323  64.382  1.00  0.00    -0.431 OA 
HETATM   21  H   UNL     1      -9.394  10.011  63.739  1.00  0.00     0.000 HD 
ENDBRANCH  17  18
BRANCH  17  22
HETATM   22  C   UNL     1      -7.716   6.046  64.349  1.00  0.00    -0.104 A  
HETATM   23  S   UNL     1      -6.989   4.199  62.956  1.00  0.00    -0.040 SA 
HETATM   24  H1  UNL     1      -5.273   3.384  66.091  1.00  0.00     0.000 HD 
HETATM   25  N   UNL     1      -7.888   5.595  63.099  1.00  0.00    -0.086 NA 
HETATM   26  N   UNL     1      -6.914   5.290  65.223  1.00  0.00    -0.060 NA 
HETATM   27  H2  UNL     1      -5.277   2.585  64.536  1.00  0.00     0.000 HD 
HETATM   28  C   UNL     1      -6.435   4.254  64.583  1.00  0.00    -0.042 A  
HETATM   29  N   UNL     1      -5.601   3.351  65.126  1.00  0.00    -0.010 NA 
ENDBRANCH  17  22
ENDBRANCH  15  17
ENDBRANCH   1  13
BRANCH   8  30
HETATM   30  C   UNL     1      -9.787  14.252  68.777  1.00  0.00    -0.189 C  
HETATM   31  C   UNL     1     -10.001  14.832  66.270  1.00  0.00    -0.308 C  
HETATM   32  C   UNL     1     -10.017  15.072  67.739  1.00  0.00    -0.229 C  
HETATM   33  C   UNL     1      -9.599  16.193  65.725  1.00  0.00    -0.257 C  
HETATM   34  N   UNL     1      -9.935  17.157  66.754  1.00  0.00    -0.279 N  
HETATM   35  C   UNL     1     -10.263  16.528  67.950  1.00  0.00    -0.273 C  
HETATM   36  O   UNL     1     -10.682  17.019  68.981  1.00  0.00    -0.322 OA 
BRANCH  34  37
HETATM   37  C   UNL     1     -10.217  18.570  66.454  1.00  0.00    -0.420 C  
HETATM   38  C   UNL     1      -8.964  19.444  66.376  1.00  0.00    -0.395 C  
HETATM   39  C   UNL     1      -8.709  19.815  67.826  1.00  0.00    -0.325 C  
HETATM   40  N   UNL     1     -10.025  19.964  68.444  1.00  0.00    -0.422 NA 
HETATM   41  H   UNL     1     -10.253  20.932  68.671  1.00  0.00     0.000 HD 
HETATM   42  C   UNL     1     -11.007  19.335  67.535  1.00  0.00    -0.316 C  
ENDBRANCH  34  37
ENDBRANCH   8  30
TORSDOF 6
ENDMDL
MODEL       98
REMARK 921   NORMALIZED FREE ENERGY PREDICTED BY IDOCK:   -4.87 KCAL/MOL
REMARK 922        TOTAL FREE ENERGY PREDICTED BY IDOCK:   -8.09 KCAL/MOL
REMARK 923 INTER-LIGAND FREE ENERGY PREDICTED BY IDOCK:   -6.69 KCAL/MOL
REMARK 924 INTRA-LIGAND FREE ENERGY PREDICTED BY IDOCK:   -1.40 KCAL/MOL
REMARK 927      BINDING AFFINITY PREDICTED BY RF-SCORE:    0.00 PKD
ROOT
HETATM    1  CA  UNL     1      -7.201  11.655  66.488  1.00  0.00     0.048 C  
HETATM    2  C   UNL     1      -7.307   9.063  69.652  1.00  0.00    -0.064 C  
HETATM    3  C   UNL     1      -7.460  10.324  65.686  1.00  0.00    -0.149 C  
HETATM    4  O   UNL     1      -7.826   9.965  64.592  1.00  0.00    -0.130 OA 
HETATM    5  O   UNL     1      -7.750   7.451  64.956  1.00  0.00    -0.099 OA 
HETATM    6  OXT UNL     1      -7.026   6.007  66.478  1.00  0.00    -0.064 OA 
HETATM    7  N   UNL     1      -7.251   9.590  66.798  1.00  0.00    -0.086 N  
HETATM    8  C   UNL     1      -7.376   8.017  68.546  1.00  0.00    -0.097 C  
HETATM    9  CA  UNL     1      -7.330   8.289  67.213  1.00  0.00    -0.089 C  
HETATM   10  S   UNL     1      -7.707  10.748  69.146  1.00  0.00    -0.122 SA 
HETATM   11  C   UNL     1      -6.738  10.673  67.618  1.00  0.00    -0.072 C  
HETATM   12  C   UNL     1      -7.355   7.154  66.207  1.00  0.00    -0.076 C  
ENDROOT
BRANCH   1  13
HETATM   13  N   UNL     1      -8.399  12.475  66.815  1.00  0.00    -0.380 N  
HETATM   14  O   UNL     1      -7.296  14.415  67.332  1.00  0.00    -0.184 OA 
HETATM   15  C   UNL     1      -8.340  13.803  67.173  1.00  0.00    -0.137 C  
HETATM   16  H   UNL     1      -9.315  12.028  66.771  1.00  0.00     0.000 HD 
BRANCH  15  17
HETATM   17  C   UNL     1      -9.701  14.486  67.363  1.00  0.00    -0.222 C  
BRANCH  17  18
HETATM   18  N   UNL     1     -10.039  15.166  68.432  1.00  0.00    -0.221 NA 
HETATM   19  H   UNL     1      -9.615  15.003  69.345  1.00  0.00     0.000 HD 
HETATM   20  O   UNL     1     -11.028  16.132  68.220  1.00  0.00    -0.312 OA 
HETATM   21  H   UNL     1     -11.273  16.624  68.995  1.00  0.00     0.000 HD 
ENDBRANCH  17  18
BRANCH  17  22
HETATM   22  C   UNL     1     -10.699  14.405  66.293  1.00  0.00    -0.307 A  
HETATM   23  S   UNL     1     -12.117  14.977  64.410  1.00  0.00    -0.229 SA 
HETATM   24  H1  UNL     1     -13.266  11.564  65.094  1.00  0.00     0.000 HD 
HETATM   25  N   UNL     1     -10.921  15.441  65.473  1.00  0.00    -0.346 NA 
HETATM   26  N   UNL     1     -11.486  13.250  66.129  1.00  0.00    -0.317 NA 
HETATM   27  H2  UNL     1     -13.741  12.717  63.870  1.00  0.00     0.000 HD 
HETATM   28  C   UNL     1     -12.298  13.419  65.117  1.00  0.00    -0.456 A  
HETATM   29  N   UNL     1     -13.159  12.487  64.675  1.00  0.00    -0.837 NA 
ENDBRANCH  17  22
ENDBRANCH  15  17
ENDBRANCH   1  13
BRANCH   8  30
HETATM   30  C   UNL     1      -7.514   6.689  69.156  1.00  0.00    -0.095 C  
HETATM   31  C   UNL     1      -9.968   6.769  69.957  1.00  0.00    -0.189 C  
HETATM   32  C   UNL     1      -8.607   6.199  69.764  1.00  0.00    -0.132 C  
HETATM   33  C   UNL     1     -10.407   6.122  71.261  1.00  0.00    -0.217 C  
HETATM   34  N   UNL     1      -9.603   4.925  71.410  1.00  0.00    -0.158 N  
HETATM   35  C   UNL     1      -8.563   4.895  70.487  1.00  0.00    -0.107 C  
HETATM   36  O   UNL     1      -7.764   4.005  70.267  1.00  0.00    -0.048 OA 
BRANCH  34  37
HETATM   37  C   UNL     1     -10.049   3.764  72.197  1.00  0.00    -0.150 C  
HETATM   38  C   UNL     1     -11.259   4.053  73.088  1.00  0.00    -0.215 C  
HETATM   39  C   UNL     1     -10.635   4.647  74.338  1.00  0.00    -0.243 C  
HETATM   40  N   UNL     1      -9.366   3.948  74.529  1.00  0.00    -0.102 NA 
HETATM   41  H   UNL     1      -9.372   3.321  75.334  1.00  0.00     0.000 HD 
HETATM   42  C   UNL     1      -9.052   3.259  73.260  1.00  0.00    -0.089 C  
ENDBRANCH  34  37
ENDBRANCH   8  30
TORSDOF 6
ENDMDL
MODEL       99
REMARK 921   NORMALIZED FREE ENERGY PREDICTED BY IDOCK:   -4.80 KCAL/MOL
REMARK 922        TOTAL FREE ENERGY PREDICTED BY IDOCK:   -8.01 KCAL/MOL
REMARK 923 INTER-LIGAND FREE ENERGY PREDICTED BY IDOCK:   -6.94 KCAL/MOL
REMARK 924 INTRA-LIGAND FREE ENERGY PREDICTED BY IDOCK:   -1.07 KCAL/MOL
REMARK 927      BINDING AFFINITY PREDICTED BY RF-SCORE:    0.00 PKD
ROOT
HETATM    1  CA  UNL     1      -8.567  12.364  67.080  1.00  0.00    -0.191 C  
HETATM    2  C   UNL     1      -7.486   9.815  70.092  1.00  0.00    -0.164 C  
HETATM    3  C   UNL     1      -9.998  12.102  67.683  1.00  0.00    -0.197 C  
HETATM    4  O   UNL     1     -11.110  12.573  67.653  1.00  0.00    -0.235 OA 
HETATM    5  O   UNL     1     -12.262  10.965  69.249  1.00  0.00    -0.364 OA 
HETATM    6  OXT UNL     1     -11.830   9.055  70.293  1.00  0.00    -0.087 OA 
HETATM    7  N   UNL     1      -9.508  11.124  68.471  1.00  0.00    -0.188 N  
HETATM    8  C   UNL     1      -8.995   9.684  70.263  1.00  0.00    -0.263 C  
HETATM    9  CA  UNL     1      -9.924  10.295  69.477  1.00  0.00    -0.228 C  
HETATM   10  S   UNL     1      -6.939  11.248  69.140  1.00  0.00    -0.116 SA 
HETATM   11  C   UNL     1      -8.196  11.052  67.852  1.00  0.00    -0.119 C  
HETATM   12  C   UNL     1     -11.401  10.045  69.716  1.00  0.00    -0.228 C  
ENDROOT
BRANCH   1  13
HETATM   13  N   UNL     1      -7.867  13.592  67.547  1.00  0.00    -0.171 N  
HETATM   14  O   UNL     1      -9.080  15.104  66.327  1.00  0.00    -0.288 OA 
HETATM   15  C   UNL     1      -8.215  14.864  67.154  1.00  0.00    -0.215 C  
HETATM   16  H   UNL     1      -7.086  13.485  68.195  1.00  0.00     0.000 HD 
BRANCH  15  17
HETATM   17  C   UNL     1      -7.432  15.993  67.839  1.00  0.00    -0.129 C  
BRANCH  17  18
HETATM   18  N   UNL     1      -7.099  15.992  69.107  1.00  0.00    -0.185 NA 
HETATM   19  H   UNL     1      -6.405  16.631  69.495  1.00  0.00     0.000 HD 
HETATM   20  O   UNL     1      -7.771  15.045  69.887  1.00  0.00    -0.355 OA 
HETATM   21  H   UNL     1      -7.529  15.044  70.805  1.00  0.00     0.000 HD 
ENDBRANCH  17  18
BRANCH  17  22
HETATM   22  C   UNL     1      -7.003  17.149  67.048  1.00  0.00    -0.193 A  
HETATM   23  S   UNL     1      -5.822  18.547  65.456  1.00  0.00    -0.238 SA 
HETATM   24  H1  UNL     1      -8.072  21.015  66.967  1.00  0.00     0.000 HD 
HETATM   25  N   UNL     1      -6.034  17.037  66.129  1.00  0.00    -0.214 NA 
HETATM   26  N   UNL     1      -7.563  18.421  67.268  1.00  0.00    -0.220 NA 
HETATM   27  H2  UNL     1      -6.883  21.165  65.695  1.00  0.00     0.000 HD 
HETATM   28  C   UNL     1      -7.020  19.283  66.448  1.00  0.00    -0.216 A  
HETATM   29  N   UNL     1      -7.362  20.580  66.379  1.00  0.00    -0.219 NA 
ENDBRANCH  17  22
ENDBRANCH  15  17
ENDBRANCH   1  13
BRANCH   8  30
HETATM   30  C   UNL     1      -9.269   8.813  71.413  1.00  0.00    -0.325 C  
HETATM   31  C   UNL     1      -9.090   6.482  70.317  1.00  0.00    -0.155 C  
HETATM   32  C   UNL     1      -9.326   7.472  71.403  1.00  0.00    -0.151 C  
HETATM   33  C   UNL     1     -10.000   5.334  70.723  1.00  0.00    -0.211 C  
HETATM   34  N   UNL     1     -10.230   5.483  72.147  1.00  0.00    -0.193 N  
HETATM   35  C   UNL     1      -9.775   6.714  72.607  1.00  0.00    -0.160 C  
HETATM   36  O   UNL     1      -9.722   7.129  73.748  1.00  0.00    -0.234 OA 
BRANCH  34  37
HETATM   37  C   UNL     1     -10.578   4.348  73.016  1.00  0.00    -0.195 C  
HETATM   38  C   UNL     1      -9.616   4.154  74.190  1.00  0.00    -0.130 C  
HETATM   39  C   UNL     1      -8.493   3.331  73.585  1.00  0.00    -0.074 C  
HETATM   40  N   UNL     1      -9.122   2.435  72.618  1.00  0.00    -0.074 NA 
HETATM   41  H   UNL     1      -9.117   1.459  72.915  1.00  0.00     0.000 HD 
HETATM   42  C   UNL     1     -10.482   2.955  72.362  1.00  0.00    -0.013 C  
ENDBRANCH  34  37
ENDBRANCH   8  30
TORSDOF 6
ENDMDL
MODEL      100
REMARK 921   NORMALIZED FREE ENERGY PREDICTED BY IDOCK:   -4.78 KCAL/MOL
REMARK 922        TOTAL FREE ENERGY PREDICTED BY IDOCK:   -7.98 KCAL/MOL
REMARK 923 INTER-LIGAND FREE ENERGY PREDICTED BY IDOCK:   -7.08 KCAL/MOL
REMARK 924 INTRA-LIGAND FREE ENERGY PREDICTED BY IDOCK:   -0.90 KCAL/MOL
REMARK 927      BINDING AFFINITY PREDICTED BY RF-SCORE:    0.00 PKD
ROOT
HETATM    1  CA  UNL     1     -10.281   9.944  65.929  1.00  0.00    -0.194 C  
HETATM    2  C   UNL     1     -10.145  13.287  68.283  1.00  0.00    -0.250 C  
HETATM    3  C   UNL     1     -10.644  11.013  64.831  1.00  0.00    -0.258 C  
HETATM    4  O   UNL     1     -10.695  11.117  63.628  1.00  0.00    -0.377 OA 
HETATM    5  O   UNL     1     -11.420  13.547  63.471  1.00  0.00    -0.182 OA 
HETATM    6  OXT UNL     1     -12.125  15.167  64.814  1.00  0.00    -0.309 OA 
HETATM    7  N   UNL     1     -10.770  11.968  65.774  1.00  0.00    -0.269 N  
HETATM    8  C   UNL     1     -10.676  13.962  67.024  1.00  0.00    -0.283 C  
HETATM    9  CA  UNL     1     -10.979  13.317  65.864  1.00  0.00    -0.274 C  
HETATM   10  S   UNL     1      -9.404  11.661  68.033  1.00  0.00    -0.183 SA 
HETATM   11  C   UNL     1     -10.709  11.079  66.921  1.00  0.00    -0.274 C  
HETATM   12  C   UNL     1     -11.551  14.094  64.693  1.00  0.00    -0.406 C  
ENDROOT
BRANCH   1  13
HETATM   13  N   UNL     1      -8.851   9.539  66.012  1.00  0.00    -0.149 N  
HETATM   14  O   UNL     1      -8.724   8.494  63.977  1.00  0.00    -0.029 OA 
HETATM   15  C   UNL     1      -8.186   8.879  65.003  1.00  0.00    -0.153 C  
HETATM   16  H   UNL     1      -8.335   9.763  66.862  1.00  0.00     0.000 HD 
BRANCH  15  17
HETATM   17  C   UNL     1      -6.689   8.652  65.252  1.00  0.00    -0.067 C  
BRANCH  17  18
HETATM   18  N   UNL     1      -5.734   9.241  64.573  1.00  0.00    -0.067 NA 
HETATM   19  H   UNL     1      -5.107   9.930  64.990  1.00  0.00     0.000 HD 
HETATM   20  O   UNL     1      -5.643   8.851  63.234  1.00  0.00    -0.071 OA 
HETATM   21  H   UNL     1      -4.951   9.279  62.742  1.00  0.00     0.000 HD 
ENDBRANCH  17  18
BRANCH  17  22
HETATM   22  C   UNL     1      -6.270   7.739  66.318  1.00  0.00    -0.045 A  
HETATM   23  S   UNL     1      -5.305   6.870  68.366  1.00  0.00    -0.017 SA 
HETATM   24  H1  UNL     1      -6.566   3.775  66.861  1.00  0.00     0.000 HD 
HETATM   25  N   UNL     1      -5.616   8.190  67.398  1.00  0.00    -0.037 NA 
HETATM   26  N   UNL     1      -6.500   6.355  66.213  1.00  0.00    -0.042 NA 
HETATM   27  H2  UNL     1      -5.746   4.070  68.376  1.00  0.00     0.000 HD 
HETATM   28  C   UNL     1      -6.037   5.756  67.280  1.00  0.00    -0.025 A  
HETATM   29  N   UNL     1      -6.132   4.435  67.505  1.00  0.00    -0.030 NA 
ENDBRANCH  17  22
ENDBRANCH  15  17
ENDBRANCH   1  13
BRANCH   8  30
HETATM   30  C   UNL     1     -10.787  15.405  67.269  1.00  0.00    -0.316 C  
HETATM   31  C   UNL     1      -8.454  16.214  66.514  1.00  0.00    -0.346 C  
HETATM   32  C   UNL     1      -9.831  16.326  67.069  1.00  0.00    -0.247 C  
HETATM   33  C   UNL     1      -7.724  17.337  67.233  1.00  0.00    -0.188 C  
HETATM   34  N   UNL     1      -8.744  18.272  67.664  1.00  0.00    -0.254 N  
HETATM   35  C   UNL     1     -10.018  17.737  67.514  1.00  0.00    -0.324 C  
HETATM   36  O   UNL     1     -11.096  18.274  67.684  1.00  0.00    -0.230 OA 
BRANCH  34  37
HETATM   37  C   UNL     1      -8.464  19.699  67.897  1.00  0.00    -0.317 C  
HETATM   38  C   UNL     1      -7.871  20.416  66.683  1.00  0.00    -0.264 C  
HETATM   39  C   UNL     1      -6.387  20.117  66.795  1.00  0.00    -0.194 C  
HETATM   40  N   UNL     1      -6.083  20.102  68.225  1.00  0.00    -0.251 NA 
HETATM   41  H   UNL     1      -5.521  20.899  68.522  1.00  0.00     0.000 HD 
HETATM   42  C   UNL     1      -7.371  19.999  68.942  1.00  0.00    -0.153 C  
ENDBRANCH  34  37
ENDBRANCH   8  30
TORSDOF 6
ENDMDL
MODEL      101
REMARK 921   NORMALIZED FREE ENERGY PREDICTED BY IDOCK:   -4.75 KCAL/MOL
REMARK 922        TOTAL FREE ENERGY PREDICTED BY IDOCK:   -7.94 KCAL/MOL
REMARK 923 INTER-LIGAND FREE ENERGY PREDICTED BY IDOCK:   -6.38 KCAL/MOL
REMARK 924 INTRA-LIGAND FREE ENERGY PREDICTED BY IDOCK:   -1.57 KCAL/MOL
REMARK 927      BINDING AFFINITY PREDICTED BY RF-SCORE:    0.00 PKD
ROOT
HETATM    1  CA  UNL     1      -8.967  15.248  66.406  1.00  0.00    -0.304 C  
HETATM    2  C   UNL     1      -7.446  11.673  67.685  1.00  0.00    -0.116 C  
HETATM    3  C   UNL     1      -9.947  14.291  65.629  1.00  0.00    -0.320 C  
HETATM    4  O   UNL     1     -11.008  14.329  65.053  1.00  0.00    -0.344 OA 
HETATM    5  O   UNL     1     -11.202  11.877  64.415  1.00  0.00    -0.317 OA 
HETATM    6  OXT UNL     1      -9.950  10.045  64.434  1.00  0.00    -0.265 OA 
HETATM    7  N   UNL     1      -9.200  13.220  65.968  1.00  0.00     0.008 N  
HETATM    8  C   UNL     1      -8.435  11.107  66.673  1.00  0.00    -0.164 C  
HETATM    9  CA  UNL     1      -9.235  11.856  65.865  1.00  0.00    -0.141 C  
HETATM   10  S   UNL     1      -7.742  13.382  68.183  1.00  0.00    -0.157 SA 
HETATM   11  C   UNL     1      -8.073  13.965  66.501  1.00  0.00     0.757 C  
HETATM   12  C   UNL     1     -10.143  11.176  64.859  1.00  0.00    -0.289 C  
ENDROOT
BRANCH   1  13
HETATM   13  N   UNL     1      -9.454  15.777  67.709  1.00  0.00    -0.211 N  
HETATM   14  O   UNL     1     -10.290  17.761  66.927  1.00  0.00    -0.335 OA 
HETATM   15  C   UNL     1     -10.111  16.979  67.847  1.00  0.00    -0.306 C  
HETATM   16  H   UNL     1      -9.292  15.218  68.547  1.00  0.00     0.000 HD 
BRANCH  15  17
HETATM   17  C   UNL     1     -10.621  17.282  69.262  1.00  0.00    -0.156 C  
BRANCH  17  18
HETATM   18  N   UNL     1     -10.496  18.445  69.855  1.00  0.00     0.235 NA 
HETATM   19  H   UNL     1     -11.129  18.759  70.592  1.00  0.00     0.000 HD 
HETATM   20  O   UNL     1      -9.428  19.222  69.398  1.00  0.00    -0.201 OA 
HETATM   21  H   UNL     1      -9.338  20.064  69.827  1.00  0.00     0.000 HD 
ENDBRANCH  17  18
BRANCH  17  22
HETATM   22  C   UNL     1     -11.310  16.231  70.016  1.00  0.00    -0.269 A  
HETATM   23  S   UNL     1     -12.571  14.235  70.568  1.00  0.00    -0.335 SA 
HETATM   24  H1  UNL     1     -12.021  15.619  73.917  1.00  0.00     0.000 HD 
HETATM   25  N   UNL     1     -11.893  15.200  69.391  1.00  0.00    -0.321 NA 
HETATM   26  N   UNL     1     -11.419  16.304  71.417  1.00  0.00    -0.386 NA 
HETATM   27  H2  UNL     1     -12.828  14.161  73.390  1.00  0.00     0.000 HD 
HETATM   28  C   UNL     1     -12.074  15.260  71.856  1.00  0.00    -0.381 A  
HETATM   29  N   UNL     1     -12.317  15.011  73.154  1.00  0.00    -0.389 NA 
ENDBRANCH  17  22
ENDBRANCH  15  17
ENDBRANCH   1  13
BRANCH   8  30
HETATM   30  C   UNL     1      -8.388   9.641  66.731  1.00  0.00    -0.117 C  
HETATM   31  C   UNL     1     -10.188   9.161  68.520  1.00  0.00    -0.223 C  
HETATM   32  C   UNL     1      -9.118   8.849  67.533  1.00  0.00    -0.146 C  
HETATM   33  C   UNL     1     -10.033   8.036  69.529  1.00  0.00    -0.186 C  
HETATM   34  N   UNL     1      -9.352   6.960  68.836  1.00  0.00    -0.135 N  
HETATM   35  C   UNL     1      -8.856   7.383  67.608  1.00  0.00    -0.127 C  
HETATM   36  O   UNL     1      -8.322   6.727  66.734  1.00  0.00    -0.112 OA 
BRANCH  34  37
HETATM   37  C   UNL     1      -9.482   5.550  69.239  1.00  0.00    -0.129 C  
HETATM   38  C   UNL     1      -9.689   5.357  70.743  1.00  0.00    -0.239 C  
HETATM   39  C   UNL     1      -8.274   5.371  71.292  1.00  0.00    -0.120 C  
HETATM   40  N   UNL     1      -7.441   4.724  70.281  1.00  0.00    -0.050 NA 
HETATM   41  H   UNL     1      -7.099   3.807  70.571  1.00  0.00     0.000 HD 
HETATM   42  C   UNL     1      -8.227   4.680  69.030  1.00  0.00    -0.080 C  
ENDBRANCH  34  37
ENDBRANCH   8  30
TORSDOF 6
ENDMDL
MODEL      102
REMARK 921   NORMALIZED FREE ENERGY PREDICTED BY IDOCK:   -4.68 KCAL/MOL
REMARK 922        TOTAL FREE ENERGY PREDICTED BY IDOCK:   -7.85 KCAL/MOL
REMARK 923 INTER-LIGAND FREE ENERGY PREDICTED BY IDOCK:   -6.97 KCAL/MOL
REMARK 924 INTRA-LIGAND FREE ENERGY PREDICTED BY IDOCK:   -0.88 KCAL/MOL
REMARK 927      BINDING AFFINITY PREDICTED BY RF-SCORE:    0.00 PKD
ROOT
HETATM    1  CA  UNL     1      -8.403  11.377  66.237  1.00  0.00    -0.111 C  
HETATM    2  C   UNL     1      -7.947   9.892  70.022  1.00  0.00    -0.180 C  
HETATM    3  C   UNL     1      -9.324  10.107  66.098  1.00  0.00    -0.172 C  
HETATM    4  O   UNL     1     -10.183   9.668  65.371  1.00  0.00    -0.192 OA 
HETATM    5  O   UNL     1     -10.673   7.500  66.603  1.00  0.00    -0.239 OA 
HETATM    6  OXT UNL     1      -9.834   6.304  68.273  1.00  0.00    -0.121 OA 
HETATM    7  N   UNL     1      -8.899   9.644  67.291  1.00  0.00    -0.131 N  
HETATM    8  C   UNL     1      -8.745   8.724  69.454  1.00  0.00    -0.142 C  
HETATM    9  CA  UNL     1      -9.165   8.624  68.162  1.00  0.00    -0.137 C  
HETATM   10  S   UNL     1      -8.028  11.420  69.066  1.00  0.00     0.047 SA 
HETATM   11  C   UNL     1      -7.819  10.599  67.465  1.00  0.00    -0.106 C  
HETATM   12  C   UNL     1      -9.909   7.384  67.703  1.00  0.00    -0.154 C  
ENDROOT
BRANCH   1  13
HETATM   13  N   UNL     1      -9.087  12.657  66.567  1.00  0.00    -0.359 N  
HETATM   14  O   UNL     1     -10.184  12.926  64.574  1.00  0.00    -0.345 OA 
HETATM   15  C   UNL     1      -9.953  13.301  65.713  1.00  0.00    -0.251 C  
HETATM   16  H   UNL     1      -8.904  13.081  67.477  1.00  0.00     0.000 HD 
BRANCH  15  17
HETATM   17  C   UNL     1     -10.630  14.550  66.293  1.00  0.00    -0.304 C  
BRANCH  17  18
HETATM   18  N   UNL     1     -11.919  14.654  66.508  1.00  0.00    -0.324 NA 
HETATM   19  H   UNL     1     -12.575  14.953  65.785  1.00  0.00     0.000 HD 
HETATM   20  O   UNL     1     -12.324  14.324  67.804  1.00  0.00    -0.596 OA 
HETATM   21  H   UNL     1     -13.258  14.400  67.959  1.00  0.00     0.000 HD 
ENDBRANCH  17  18
BRANCH  17  22
HETATM   22  C   UNL     1      -9.808  15.708  66.656  1.00  0.00    -0.244 A  
HETATM   23  S   UNL     1      -8.755  17.484  67.929  1.00  0.00    -0.252 SA 
HETATM   24  H1  UNL     1      -7.387  18.155  64.595  1.00  0.00     0.000 HD 
HETATM   25  N   UNL     1      -9.781  16.170  67.914  1.00  0.00    -0.224 NA 
HETATM   26  N   UNL     1      -9.062  16.395  65.682  1.00  0.00    -0.407 NA 
HETATM   27  H2  UNL     1      -7.126  18.948  66.131  1.00  0.00     0.000 HD 
HETATM   28  C   UNL     1      -8.418  17.385  66.246  1.00  0.00    -0.225 A  
HETATM   29  N   UNL     1      -7.587  18.214  65.594  1.00  0.00    -0.535 NA 
ENDBRANCH  17  22
ENDBRANCH  15  17
ENDBRANCH   1  13
BRANCH   8  30
HETATM   30  C   UNL     1      -8.991   7.751  70.525  1.00  0.00    -0.150 C  
HETATM   31  C   UNL     1      -6.930   6.215  70.278  1.00  0.00    -0.065 C  
HETATM   32  C   UNL     1      -8.225   6.693  70.835  1.00  0.00    -0.124 C  
HETATM   33  C   UNL     1      -7.019   4.714  70.495  1.00  0.00    -0.037 C  
HETATM   34  N   UNL     1      -7.987   4.514  71.557  1.00  0.00    -0.093 N  
HETATM   35  C   UNL     1      -8.675   5.688  71.841  1.00  0.00    -0.135 C  
HETATM   36  O   UNL     1      -9.479   5.905  72.727  1.00  0.00    -0.149 OA 
BRANCH  34  37
HETATM   37  C   UNL     1      -7.977   3.325  72.424  1.00  0.00    -0.063 C  
HETATM   38  C   UNL     1      -8.828   2.169  71.893  1.00  0.00    -0.111 C  
HETATM   39  C   UNL     1     -10.221   2.508  72.392  1.00  0.00    -0.148 C  
HETATM   40  N   UNL     1     -10.043   3.131  73.702  1.00  0.00    -0.109 NA 
HETATM   41  H   UNL     1     -10.363   2.543  74.471  1.00  0.00     0.000 HD 
HETATM   42  C   UNL     1      -8.619   3.510  73.814  1.00  0.00    -0.082 C  
ENDBRANCH  34  37
ENDBRANCH   8  30
TORSDOF 6
ENDMDL
MODEL      103
REMARK 921   NORMALIZED FREE ENERGY PREDICTED BY IDOCK:   -4.58 KCAL/MOL
REMARK 922        TOTAL FREE ENERGY PREDICTED BY IDOCK:   -7.71 KCAL/MOL
REMARK 923 INTER-LIGAND FREE ENERGY PREDICTED BY IDOCK:   -6.94 KCAL/MOL
REMARK 924 INTRA-LIGAND FREE ENERGY PREDICTED BY IDOCK:   -0.76 KCAL/MOL
REMARK 927      BINDING AFFINITY PREDICTED BY RF-SCORE:    0.00 PKD
ROOT
HETATM    1  CA  UNL     1      -6.728   7.253  71.596  1.00  0.00    -0.051 C  
HETATM    2  C   UNL     1      -8.628   9.225  68.557  1.00  0.00    -0.128 C  
HETATM    3  C   UNL     1      -6.195   8.704  71.896  1.00  0.00    -0.071 C  
HETATM    4  O   UNL     1      -5.664   9.325  72.787  1.00  0.00    -0.206 OA 
HETATM    5  O   UNL     1      -5.532  11.599  71.660  1.00  0.00    -0.358 OA 
HETATM    6  OXT UNL     1      -5.863  12.488  69.653  1.00  0.00    -0.094 OA 
HETATM    7  N   UNL     1      -6.709   9.154  70.733  1.00  0.00    -0.073 N  
HETATM    8  C   UNL     1      -7.786  10.397  69.048  1.00  0.00    -0.120 C  
HETATM    9  CA  UNL     1      -6.879  10.333  70.061  1.00  0.00    -0.146 C  
HETATM   10  S   UNL     1      -8.789   7.851  69.715  1.00  0.00    -0.141 SA 
HETATM   11  C   UNL     1      -7.039   7.852  70.182  1.00  0.00    -0.050 C  
HETATM   12  C   UNL     1      -6.063  11.559  70.425  1.00  0.00    -0.091 C  
ENDROOT
BRANCH   1  13
HETATM   13  N   UNL     1      -7.920   6.813  72.372  1.00  0.00    -0.098 N  
HETATM   14  O   UNL     1      -7.537   4.558  72.244  1.00  0.00    -0.078 OA 
HETATM   15  C   UNL     1      -8.198   5.496  72.661  1.00  0.00    -0.113 C  
HETATM   16  H   UNL     1      -8.566   7.526  72.709  1.00  0.00     0.000 HD 
BRANCH  15  17
HETATM   17  C   UNL     1      -9.418   5.272  73.564  1.00  0.00    -0.133 C  
BRANCH  17  18
HETATM   18  N   UNL     1     -10.098   6.238  74.133  1.00  0.00    -0.280 NA 
HETATM   19  H   UNL     1      -9.739   6.774  74.923  1.00  0.00     0.000 HD 
HETATM   20  O   UNL     1     -11.356   6.475  73.571  1.00  0.00    -0.426 OA 
HETATM   21  H   UNL     1     -11.849   7.175  73.983  1.00  0.00     0.000 HD 
ENDBRANCH  17  18
BRANCH  17  22
HETATM   22  C   UNL     1      -9.886   3.905  73.812  1.00  0.00    -0.109 A  
HETATM   23  S   UNL     1      -9.984   1.597  74.548  1.00  0.00    -0.101 SA 
HETATM   24  H1  UNL     1     -13.214   1.887  72.840  1.00  0.00     0.000 HD 
HETATM   25  N   UNL     1      -9.127   3.025  74.479  1.00  0.00    -0.078 NA 
HETATM   26  N   UNL     1     -11.125   3.467  73.312  1.00  0.00    -0.175 NA 
HETATM   27  H2  UNL     1     -12.476   0.552  73.694  1.00  0.00     0.000 HD 
HETATM   28  C   UNL     1     -11.317   2.220  73.658  1.00  0.00    -0.216 A  
HETATM   29  N   UNL     1     -12.423   1.517  73.367  1.00  0.00    -0.131 NA 
ENDBRANCH  17  22
ENDBRANCH  15  17
ENDBRANCH   1  13
BRANCH   8  30
HETATM   30  C   UNL     1      -8.130  11.590  68.265  1.00  0.00    -0.148 C  
HETATM   31  C   UNL     1     -10.684  11.704  68.637  1.00  0.00    -0.246 C  
HETATM   32  C   UNL     1      -9.359  12.104  68.089  1.00  0.00    -0.204 C  
HETATM   33  C   UNL     1     -11.634  12.145  67.536  1.00  0.00    -0.343 C  
HETATM   34  N   UNL     1     -10.935  13.167  66.782  1.00  0.00    -0.276 N  
HETATM   35  C   UNL     1      -9.592  13.226  67.134  1.00  0.00    -0.240 C  
HETATM   36  O   UNL     1      -8.743  14.020  66.775  1.00  0.00    -0.203 OA 
BRANCH  34  37
HETATM   37  C   UNL     1     -11.640  14.207  66.015  1.00  0.00    -0.361 C  
HETATM   38  C   UNL     1     -13.016  13.770  65.506  1.00  0.00    -0.363 C  
HETATM   39  C   UNL     1     -12.693  13.049  64.210  1.00  0.00    -0.162 C  
HETATM   40  N   UNL     1     -11.561  13.762  63.620  1.00  0.00    -0.607 NA 
HETATM   41  H   UNL     1     -11.812  14.285  62.781  1.00  0.00     0.000 HD 
HETATM   42  C   UNL     1     -10.981  14.611  64.681  1.00  0.00    -0.325 C  
ENDBRANCH  34  37
ENDBRANCH   8  30
TORSDOF 6
ENDMDL
MODEL      104
REMARK 921   NORMALIZED FREE ENERGY PREDICTED BY IDOCK:   -4.57 KCAL/MOL
REMARK 922        TOTAL FREE ENERGY PREDICTED BY IDOCK:   -7.70 KCAL/MOL
REMARK 923 INTER-LIGAND FREE ENERGY PREDICTED BY IDOCK:   -6.00 KCAL/MOL
REMARK 924 INTRA-LIGAND FREE ENERGY PREDICTED BY IDOCK:   -1.70 KCAL/MOL
REMARK 927      BINDING AFFINITY PREDICTED BY RF-SCORE:    0.00 PKD
ROOT
HETATM    1  CA  UNL     1      -7.103   8.275  64.527  1.00  0.00    -0.077 C  
HETATM    2  C   UNL     1      -6.380   7.598  68.497  1.00  0.00    -0.044 C  
HETATM    3  C   UNL     1      -7.693   6.818  64.623  1.00  0.00    -0.112 C  
HETATM    4  O   UNL     1      -8.410   6.071  63.999  1.00  0.00    -0.085 OA 
HETATM    5  O   UNL     1      -8.395   4.088  65.587  1.00  0.00    -0.108 OA 
HETATM    6  OXT UNL     1      -7.327   3.424  67.416  1.00  0.00    -0.058 OA 
HETATM    7  N   UNL     1      -7.194   6.676  65.868  1.00  0.00    -0.066 N  
HETATM    8  C   UNL     1      -6.867   6.196  68.150  1.00  0.00    -0.067 C  
HETATM    9  CA  UNL     1      -7.226   5.783  66.903  1.00  0.00    -0.075 C  
HETATM   10  S   UNL     1      -6.803   8.880  67.300  1.00  0.00    -0.078 SA 
HETATM   11  C   UNL     1      -6.375   7.875  65.856  1.00  0.00    -0.042 C  
HETATM   12  C   UNL     1      -7.646   4.343  66.675  1.00  0.00    -0.089 C  
ENDROOT
BRANCH   1  13
HETATM   13  N   UNL     1      -8.078   9.393  64.653  1.00  0.00    -0.125 N  
HETATM   14  O   UNL     1      -9.111   9.110  62.628  1.00  0.00    -0.176 OA 
HETATM   15  C   UNL     1      -9.027   9.687  63.700  1.00  0.00    -0.216 C  
HETATM   16  H   UNL     1      -8.040   9.973  65.490  1.00  0.00     0.000 HD 
BRANCH  15  17
HETATM   17  C   UNL     1      -9.999  10.813  64.078  1.00  0.00    -0.342 C  
BRANCH  17  18
HETATM   18  N   UNL     1     -10.506  11.665  63.220  1.00  0.00    -0.604 NA 
HETATM   19  H   UNL     1     -11.229  11.407  62.548  1.00  0.00     0.000 HD 
HETATM   20  O   UNL     1      -9.977  12.957  63.300  1.00  0.00    -0.487 OA 
HETATM   21  H   UNL     1     -10.343  13.575  62.678  1.00  0.00     0.000 HD 
ENDBRANCH  17  18
BRANCH  17  22
HETATM   22  C   UNL     1     -10.420  10.957  65.474  1.00  0.00    -0.219 A  
HETATM   23  S   UNL     1     -11.280  11.889  67.542  1.00  0.00    -0.317 SA 
HETATM   24  H1  UNL     1     -10.357   8.524  68.664  1.00  0.00     0.000 HD 
HETATM   25  N   UNL     1     -10.938  12.108  65.925  1.00  0.00    -0.281 NA 
HETATM   26  N   UNL     1     -10.247   9.904  66.391  1.00  0.00    -0.239 NA 
HETATM   27  H2  UNL     1     -11.086   9.865  69.516  1.00  0.00     0.000 HD 
HETATM   28  C   UNL     1     -10.693  10.273  67.564  1.00  0.00    -0.294 A  
HETATM   29  N   UNL     1     -10.705   9.482  68.650  1.00  0.00    -0.210 NA 
ENDBRANCH  17  22
ENDBRANCH  15  17
ENDBRANCH   1  13
BRANCH   8  30
HETATM   30  C   UNL     1      -6.896   5.386  69.374  1.00  0.00    -0.057 C  
HETATM   31  C   UNL     1      -9.266   5.911  70.255  1.00  0.00    -0.170 C  
HETATM   32  C   UNL     1      -7.907   5.304  70.254  1.00  0.00    -0.083 C  
HETATM   33  C   UNL     1      -9.556   6.050  71.740  1.00  0.00    -0.151 C  
HETATM   34  N   UNL     1      -8.695   5.096  72.412  1.00  0.00    -0.124 N  
HETATM   35  C   UNL     1      -7.745   4.572  71.543  1.00  0.00    -0.082 C  
HETATM   36  O   UNL     1      -6.935   3.687  71.742  1.00  0.00    -0.026 OA 
BRANCH  34  37
HETATM   37  C   UNL     1      -9.020   4.527  73.730  1.00  0.00    -0.103 C  
HETATM   38  C   UNL     1      -9.650   3.134  73.661  1.00  0.00    -0.130 C  
HETATM   39  C   UNL     1     -11.122   3.431  73.439  1.00  0.00    -0.186 C  
HETATM   40  N   UNL     1     -11.409   4.648  74.194  1.00  0.00    -0.212 NA 
HETATM   41  H   UNL     1     -11.994   4.482  75.013  1.00  0.00     0.000 HD 
HETATM   42  C   UNL     1     -10.110   5.271  74.526  1.00  0.00    -0.262 C  
ENDBRANCH  34  37
ENDBRANCH   8  30
TORSDOF 6
ENDMDL
MODEL      105
REMARK 921   NORMALIZED FREE ENERGY PREDICTED BY IDOCK:   -4.56 KCAL/MOL
REMARK 922        TOTAL FREE ENERGY PREDICTED BY IDOCK:   -7.68 KCAL/MOL
REMARK 923 INTER-LIGAND FREE ENERGY PREDICTED BY IDOCK:   -6.36 KCAL/MOL
REMARK 924 INTRA-LIGAND FREE ENERGY PREDICTED BY IDOCK:   -1.31 KCAL/MOL
REMARK 927      BINDING AFFINITY PREDICTED BY RF-SCORE:    0.00 PKD
ROOT
HETATM    1  CA  UNL     1      -9.249  13.926  67.663  1.00  0.00    -0.199 C  
HETATM    2  C   UNL     1      -8.931   9.896  68.287  1.00  0.00    -0.119 C  
HETATM    3  C   UNL     1      -9.741  13.436  66.250  1.00  0.00    -0.272 C  
HETATM    4  O   UNL     1     -10.327  13.857  65.281  1.00  0.00    -0.341 OA 
HETATM    5  O   UNL     1     -10.349  11.739  63.879  1.00  0.00    -0.311 OA 
HETATM    6  OXT UNL     1      -9.449   9.710  63.907  1.00  0.00    -0.161 OA 
HETATM    7  N   UNL     1      -9.376  12.170  66.540  1.00  0.00    -0.225 N  
HETATM    8  C   UNL     1      -9.274   9.832  66.804  1.00  0.00    -0.179 C  
HETATM    9  CA  UNL     1      -9.460  10.916  66.001  1.00  0.00    -0.203 C  
HETATM   10  S   UNL     1      -9.307  11.462  69.101  1.00  0.00     0.287 SA 
HETATM   11  C   UNL     1      -8.648  12.483  67.758  1.00  0.00    -0.178 C  
HETATM   12  C   UNL     1      -9.747  10.724  64.524  1.00  0.00    -0.295 C  
ENDROOT
BRANCH   1  13
HETATM   13  N   UNL     1     -10.309  14.236  68.661  1.00  0.00    -0.243 N  
HETATM   14  O   UNL     1      -8.995  15.398  70.135  1.00  0.00     0.078 OA 
HETATM   15  C   UNL     1     -10.092  14.983  69.797  1.00  0.00    -0.087 C  
HETATM   16  H   UNL     1     -11.248  13.876  68.494  1.00  0.00     0.000 HD 
BRANCH  15  17
HETATM   17  C   UNL     1     -11.346  15.273  70.634  1.00  0.00    -0.313 C  
BRANCH  17  18
HETATM   18  N   UNL     1     -11.748  16.477  70.961  1.00  0.00    -0.547 NA 
HETATM   19  H   UNL     1     -12.100  17.146  70.275  1.00  0.00     0.000 HD 
HETATM   20  O   UNL     1     -11.659  16.772  72.325  1.00  0.00    -0.481 OA 
HETATM   21  H   UNL     1     -11.950  17.644  72.562  1.00  0.00     0.000 HD 
ENDBRANCH  17  18
BRANCH  17  22
HETATM   22  C   UNL     1     -12.174  14.155  71.095  1.00  0.00    -0.358 A  
HETATM   23  S   UNL     1     -13.760  12.825  72.358  1.00  0.00    -0.128 SA 
HETATM   24  H1  UNL     1     -12.572  10.331  69.948  1.00  0.00     0.000 HD 
HETATM   25  N   UNL     1     -13.012  14.297  72.131  1.00  0.00    -0.354 NA 
HETATM   26  N   UNL     1     -12.074  12.889  70.491  1.00  0.00    -0.339 NA 
HETATM   27  H2  UNL     1     -13.761  10.227  71.225  1.00  0.00     0.000 HD 
HETATM   28  C   UNL     1     -12.905  12.063  71.075  1.00  0.00    -0.187 A  
HETATM   29  N   UNL     1     -13.079  10.782  70.710  1.00  0.00    -0.252 NA 
ENDBRANCH  17  22
ENDBRANCH  15  17
ENDBRANCH   1  13
BRANCH   8  30
HETATM   30  C   UNL     1      -9.382   8.425  66.401  1.00  0.00    -0.274 C  
HETATM   31  C   UNL     1      -6.892   7.749  66.298  1.00  0.00    -0.062 C  
HETATM   32  C   UNL     1      -8.365   7.579  66.172  1.00  0.00    -0.138 C  
HETATM   33  C   UNL     1      -6.364   6.792  65.242  1.00  0.00    -0.042 C  
HETATM   34  N   UNL     1      -7.419   5.825  65.008  1.00  0.00    -0.075 N  
HETATM   35  C   UNL     1      -8.609   6.219  65.609  1.00  0.00    -0.139 C  
HETATM   36  O   UNL     1      -9.658   5.610  65.695  1.00  0.00    -0.048 OA 
BRANCH  34  37
HETATM   37  C   UNL     1      -7.152   4.469  64.502  1.00  0.00    -0.050 C  
HETATM   38  C   UNL     1      -7.515   3.360  65.493  1.00  0.00    -0.077 C  
HETATM   39  C   UNL     1      -6.281   3.263  66.371  1.00  0.00    -0.028 C  
HETATM   40  N   UNL     1      -5.139   3.522  65.496  1.00  0.00    -0.008 NA 
HETATM   41  H   UNL     1      -4.572   2.692  65.323  1.00  0.00     0.000 HD 
HETATM   42  C   UNL     1      -5.669   4.130  64.257  1.00  0.00    -0.014 C  
ENDBRANCH  34  37
ENDBRANCH   8  30
TORSDOF 6
ENDMDL
MODEL      106
REMARK 921   NORMALIZED FREE ENERGY PREDICTED BY IDOCK:   -4.53 KCAL/MOL
REMARK 922        TOTAL FREE ENERGY PREDICTED BY IDOCK:   -7.65 KCAL/MOL
REMARK 923 INTER-LIGAND FREE ENERGY PREDICTED BY IDOCK:   -7.79 KCAL/MOL
REMARK 924 INTRA-LIGAND FREE ENERGY PREDICTED BY IDOCK:    0.15 KCAL/MOL
REMARK 927      BINDING AFFINITY PREDICTED BY RF-SCORE:    0.00 PKD
ROOT
HETATM    1  CA  UNL     1     -10.540  16.586  66.799  1.00  0.00    -0.224 C  
HETATM    2  C   UNL     1      -8.382  13.125  67.118  1.00  0.00    -0.140 C  
HETATM    3  C   UNL     1     -11.339  15.926  67.985  1.00  0.00    -0.284 C  
HETATM    4  O   UNL     1     -12.129  16.233  68.846  1.00  0.00    -0.130 OA 
HETATM    5  O   UNL     1     -12.374  13.972  69.980  1.00  0.00    -0.335 OA 
HETATM    6  OXT UNL     1     -11.779  11.861  69.639  1.00  0.00    -0.304 OA 
HETATM    7  N   UNL     1     -10.673  14.766  67.814  1.00  0.00    -0.264 N  
HETATM    8  C   UNL     1      -9.476  12.761  68.116  1.00  0.00    -0.219 C  
HETATM    9  CA  UNL     1     -10.551  13.542  68.411  1.00  0.00    -0.248 C  
HETATM   10  S   UNL     1      -8.254  14.880  66.720  1.00  0.00     0.071 SA 
HETATM   11  C   UNL     1     -10.041  15.121  66.555  1.00  0.00    -0.269 C  
HETATM   12  C   UNL     1     -11.602  13.045  69.386  1.00  0.00    -0.299 C  
ENDROOT
BRANCH   1  13
HETATM   13  N   UNL     1      -9.480  17.560  67.177  1.00  0.00    -0.253 N  
HETATM   14  O   UNL     1      -9.159  16.828  69.323  1.00  0.00    -0.175 OA 
HETATM   15  C   UNL     1      -8.853  17.568  68.402  1.00  0.00    -0.276 C  
HETATM   16  H   UNL     1      -9.203  18.261  66.489  1.00  0.00     0.000 HD 
BRANCH  15  17
HETATM   17  C   UNL     1      -7.715  18.589  68.543  1.00  0.00    -0.308 C  
BRANCH  17  18
HETATM   18  N   UNL     1      -7.153  18.908  69.684  1.00  0.00    -0.030 NA 
HETATM   19  H   UNL     1      -7.665  18.924  70.566  1.00  0.00     0.000 HD 
HETATM   20  O   UNL     1      -5.794  19.226  69.596  1.00  0.00    -0.229 OA 
HETATM   21  H   UNL     1      -5.387  19.458  70.422  1.00  0.00     0.000 HD 
ENDBRANCH  17  18
BRANCH  17  22
HETATM   22  C   UNL     1      -7.193  19.250  67.345  1.00  0.00    -0.212 A  
HETATM   23  S   UNL     1      -6.465  20.954  65.780  1.00  0.00    -0.117 SA 
HETATM   24  H1  UNL     1      -5.928  17.936  63.771  1.00  0.00     0.000 HD 
HETATM   25  N   UNL     1      -7.078  20.584  67.285  1.00  0.00    -0.293 NA 
HETATM   26  N   UNL     1      -6.843  18.503  66.205  1.00  0.00    -0.215 NA 
HETATM   27  H2  UNL     1      -5.634  19.622  63.420  1.00  0.00     0.000 HD 
HETATM   28  C   UNL     1      -6.409  19.312  65.273  1.00  0.00    -0.279 A  
HETATM   29  N   UNL     1      -5.961  18.910  64.072  1.00  0.00    -0.365 NA 
ENDBRANCH  17  22
ENDBRANCH  15  17
ENDBRANCH   1  13
BRANCH   8  30
HETATM   30  C   UNL     1      -9.165  11.452  68.704  1.00  0.00    -0.149 C  
HETATM   31  C   UNL     1      -9.928   9.869  66.812  1.00  0.00    -0.272 C  
HETATM   32  C   UNL     1      -9.387  10.252  68.145  1.00  0.00    -0.144 C  
HETATM   33  C   UNL     1     -10.590   8.532  67.105  1.00  0.00    -0.243 C  
HETATM   34  N   UNL     1      -9.961   8.023  68.308  1.00  0.00    -0.179 N  
HETATM   35  C   UNL     1      -9.176   8.994  68.918  1.00  0.00    -0.140 C  
HETATM   36  O   UNL     1      -8.439   8.886  69.879  1.00  0.00    -0.121 OA 
BRANCH  34  37
HETATM   37  C   UNL     1      -9.902   6.586  68.623  1.00  0.00    -0.139 C  
HETATM   38  C   UNL     1     -11.128   6.072  69.380  1.00  0.00    -0.445 C  
HETATM   39  C   UNL     1     -10.801   6.392  70.827  1.00  0.00    -0.267 C  
HETATM   40  N   UNL     1      -9.359   6.206  70.968  1.00  0.00    -0.163 NA 
HETATM   41  H   UNL     1      -9.113   5.389  71.528  1.00  0.00     0.000 HD 
HETATM   42  C   UNL     1      -8.790   6.166  69.604  1.00  0.00    -0.134 C  
ENDBRANCH  34  37
ENDBRANCH   8  30
TORSDOF 6
ENDMDL
MODEL      107
REMARK 921   NORMALIZED FREE ENERGY PREDICTED BY IDOCK:   -4.48 KCAL/MOL
REMARK 922        TOTAL FREE ENERGY PREDICTED BY IDOCK:   -7.57 KCAL/MOL
REMARK 923 INTER-LIGAND FREE ENERGY PREDICTED BY IDOCK:   -6.89 KCAL/MOL
REMARK 924 INTRA-LIGAND FREE ENERGY PREDICTED BY IDOCK:   -0.68 KCAL/MOL
REMARK 927      BINDING AFFINITY PREDICTED BY RF-SCORE:    0.00 PKD
ROOT
HETATM    1  CA  UNL     1     -10.413  10.225  69.904  1.00  0.00    -0.256 C  
HETATM    2  C   UNL     1     -10.610   7.111  67.258  1.00  0.00    -0.327 C  
HETATM    3  C   UNL     1      -9.496   9.207  70.680  1.00  0.00    -0.261 C  
HETATM    4  O   UNL     1      -8.683   9.195  71.574  1.00  0.00    -0.334 OA 
HETATM    5  O   UNL     1      -8.100   6.723  71.547  1.00  0.00    -0.108 OA 
HETATM    6  OXT UNL     1      -8.820   4.849  70.600  1.00  0.00    -0.112 OA 
HETATM    7  N   UNL     1      -9.838   8.219  69.827  1.00  0.00    -0.184 N  
HETATM    8  C   UNL     1      -9.844   6.381  68.356  1.00  0.00    -0.141 C  
HETATM    9  CA  UNL     1      -9.509   6.919  69.561  1.00  0.00    -0.146 C  
HETATM   10  S   UNL     1     -10.601   8.912  67.378  1.00  0.00    -0.164 SA 
HETATM   11  C   UNL     1     -10.910   8.938  69.162  1.00  0.00    -0.070 C  
HETATM   12  C   UNL     1      -8.790   6.072  70.593  1.00  0.00    -0.142 C  
ENDROOT
BRANCH   1  13
HETATM   13  N   UNL     1      -9.717  11.221  69.045  1.00  0.00    -0.391 N  
HETATM   14  O   UNL     1     -11.585  12.287  68.257  1.00  0.00    -0.288 OA 
HETATM   15  C   UNL     1     -10.370  12.194  68.323  1.00  0.00    -0.212 C  
HETATM   16  H   UNL     1      -8.699  11.180  68.988  1.00  0.00     0.000 HD 
BRANCH  15  17
HETATM   17  C   UNL     1      -9.454  13.184  67.590  1.00  0.00    -0.207 C  
BRANCH  17  18
HETATM   18  N   UNL     1      -8.370  12.838  66.938  1.00  0.00    -0.372 NA 
HETATM   19  H   UNL     1      -7.431  13.032  67.289  1.00  0.00     0.000 HD 
HETATM   20  O   UNL     1      -8.602  12.182  65.726  1.00  0.00    -0.360 OA 
HETATM   21  H   UNL     1      -7.816  11.932  65.254  1.00  0.00     0.000 HD 
ENDBRANCH  17  18
BRANCH  17  22
HETATM   22  C   UNL     1      -9.797  14.609  67.585  1.00  0.00    -0.218 A  
HETATM   23  S   UNL     1     -10.692  16.770  68.225  1.00  0.00    -0.364 SA 
HETATM   24  H1  UNL     1      -9.149  17.616  65.010  1.00  0.00     0.000 HD 
HETATM   25  N   UNL     1     -10.494  15.156  68.590  1.00  0.00    -0.228 NA 
HETATM   26  N   UNL     1      -9.442  15.431  66.500  1.00  0.00    -0.252 NA 
HETATM   27  H2  UNL     1     -10.002  18.601  66.175  1.00  0.00     0.000 HD 
HETATM   28  C   UNL     1      -9.857  16.651  66.727  1.00  0.00    -0.273 A  
HETATM   29  N   UNL     1      -9.645  17.687  65.898  1.00  0.00    -0.528 NA 
ENDBRANCH  17  22
ENDBRANCH  15  17
ENDBRANCH   1  13
BRANCH   8  30
HETATM   30  C   UNL     1      -9.522   5.027  67.889  1.00  0.00    -0.164 C  
HETATM   31  C   UNL     1      -7.932   5.550  65.922  1.00  0.00    -0.106 C  
HETATM   32  C   UNL     1      -8.735   4.706  66.849  1.00  0.00    -0.107 C  
HETATM   33  C   UNL     1      -7.935   4.721  64.648  1.00  0.00    -0.099 C  
HETATM   34  N   UNL     1      -8.213   3.357  65.052  1.00  0.00    -0.093 N  
HETATM   35  C   UNL     1      -8.621   3.295  66.380  1.00  0.00    -0.121 C  
HETATM   36  O   UNL     1      -8.839   2.315  67.066  1.00  0.00    -0.117 OA 
BRANCH  34  37
HETATM   37  C   UNL     1      -7.784   2.193  64.260  1.00  0.00    -0.064 C  
HETATM   38  C   UNL     1      -6.520   1.515  64.794  1.00  0.00    -0.018 C  
HETATM   39  C   UNL     1      -5.401   2.334  64.176  1.00  0.00    -0.008 C  
HETATM   40  N   UNL     1      -5.870   2.725  62.849  1.00  0.00    -0.009 NA 
HETATM   41  H   UNL     1      -5.376   2.249  62.094  1.00  0.00     0.000 HD 
HETATM   42  C   UNL     1      -7.331   2.500  62.819  1.00  0.00    -0.044 C  
ENDBRANCH  34  37
ENDBRANCH   8  30
TORSDOF 6
ENDMDL
MODEL      108
REMARK 921   NORMALIZED FREE ENERGY PREDICTED BY IDOCK:   -4.45 KCAL/MOL
REMARK 922        TOTAL FREE ENERGY PREDICTED BY IDOCK:   -7.53 KCAL/MOL
REMARK 923 INTER-LIGAND FREE ENERGY PREDICTED BY IDOCK:   -7.02 KCAL/MOL
REMARK 924 INTRA-LIGAND FREE ENERGY PREDICTED BY IDOCK:   -0.51 KCAL/MOL
REMARK 927      BINDING AFFINITY PREDICTED BY RF-SCORE:    0.00 PKD
ROOT
HETATM    1  CA  UNL     1     -10.466  10.475  67.801  1.00  0.00    -0.224 C  
HETATM    2  C   UNL     1      -7.996  13.451  69.134  1.00  0.00     0.361 C  
HETATM    3  C   UNL     1     -11.201  11.699  67.136  1.00  0.00    -0.309 C  
HETATM    4  O   UNL     1     -12.018  11.925  66.275  1.00  0.00    -0.554 OA 
HETATM    5  O   UNL     1     -12.052  14.462  66.420  1.00  0.00    -0.414 OA 
HETATM    6  OXT UNL     1     -11.262  16.068  67.733  1.00  0.00    -0.315 OA 
HETATM    7  N   UNL     1     -10.430  12.562  67.827  1.00  0.00    -0.216 N  
HETATM    8  C   UNL     1      -9.051  14.349  68.501  1.00  0.00    -0.193 C  
HETATM    9  CA  UNL     1     -10.195  13.908  67.908  1.00  0.00    -0.241 C  
HETATM   10  S   UNL     1      -8.031  11.726  68.605  1.00  0.00    -0.075 SA 
HETATM   11  C   UNL     1      -9.832  11.579  68.713  1.00  0.00    -0.141 C  
HETATM   12  C   UNL     1     -11.196  14.906  67.358  1.00  0.00    -0.338 C  
ENDROOT
BRANCH   1  13
HETATM   13  N   UNL     1      -9.502   9.736  66.941  1.00  0.00    -0.155 N  
HETATM   14  O   UNL     1     -10.658   7.761  66.833  1.00  0.00    -0.343 OA 
HETATM   15  C   UNL     1      -9.705   8.448  66.500  1.00  0.00    -0.260 C  
HETATM   16  H   UNL     1      -8.643  10.209  66.663  1.00  0.00     0.000 HD 
BRANCH  15  17
HETATM   17  C   UNL     1      -8.637   7.914  65.536  1.00  0.00    -0.116 C  
BRANCH  17  18
HETATM   18  N   UNL     1      -8.386   6.641  65.349  1.00  0.00    -0.161 NA 
HETATM   19  H   UNL     1      -7.438   6.263  65.336  1.00  0.00     0.000 HD 
HETATM   20  O   UNL     1      -9.519   5.842  65.170  1.00  0.00    -0.322 OA 
HETATM   21  H   UNL     1      -9.336   4.920  65.035  1.00  0.00     0.000 HD 
ENDBRANCH  17  18
BRANCH  17  22
HETATM   22  C   UNL     1      -7.844   8.862  64.749  1.00  0.00    -0.121 A  
HETATM   23  S   UNL     1      -6.960  10.153  62.896  1.00  0.00    -0.127 SA 
HETATM   24  H1  UNL     1      -4.845  11.379  65.627  1.00  0.00     0.000 HD 
HETATM   25  N   UNL     1      -8.045   9.008  63.432  1.00  0.00    -0.158 NA 
HETATM   26  N   UNL     1      -6.815   9.612  65.349  1.00  0.00    -0.089 NA 
HETATM   27  H2  UNL     1      -4.904  11.805  63.932  1.00  0.00     0.000 HD 
HETATM   28  C   UNL     1      -6.256  10.379  64.448  1.00  0.00    -0.065 A  
HETATM   29  N   UNL     1      -5.262  11.245  64.706  1.00  0.00    -0.041 NA 
ENDBRANCH  17  22
ENDBRANCH  15  17
ENDBRANCH   1  13
BRANCH   8  30
HETATM   30  C   UNL     1      -8.621  15.747  68.623  1.00  0.00    -0.194 C  
HETATM   31  C   UNL     1      -7.205  16.015  66.480  1.00  0.00     0.164 C  
HETATM   32  C   UNL     1      -7.825  16.415  67.772  1.00  0.00    -0.164 C  
HETATM   33  C   UNL     1      -5.937  16.853  66.457  1.00  0.00    -0.049 C  
HETATM   34  N   UNL     1      -6.174  17.971  67.350  1.00  0.00    -0.158 N  
HETATM   35  C   UNL     1      -7.331  17.784  68.099  1.00  0.00    -0.238 C  
HETATM   36  O   UNL     1      -7.875  18.554  68.866  1.00  0.00    -0.296 OA 
BRANCH  34  37
HETATM   37  C   UNL     1      -5.470  19.256  67.214  1.00  0.00    -0.165 C  
HETATM   38  C   UNL     1      -5.993  20.347  68.151  1.00  0.00    -0.302 C  
HETATM   39  C   UNL     1      -7.171  20.924  67.389  1.00  0.00    -0.340 C  
HETATM   40  N   UNL     1      -6.801  20.880  65.976  1.00  0.00    -0.488 NA 
HETATM   41  H   UNL     1      -6.626  21.803  65.579  1.00  0.00     0.000 HD 
HETATM   42  C   UNL     1      -5.643  19.969  65.857  1.00  0.00    -0.167 C  
ENDBRANCH  34  37
ENDBRANCH   8  30
TORSDOF 6
ENDMDL
MODEL      109
REMARK 921   NORMALIZED FREE ENERGY PREDICTED BY IDOCK:   -4.42 KCAL/MOL
REMARK 922        TOTAL FREE ENERGY PREDICTED BY IDOCK:   -7.50 KCAL/MOL
REMARK 923 INTER-LIGAND FREE ENERGY PREDICTED BY IDOCK:   -5.94 KCAL/MOL
REMARK 924 INTRA-LIGAND FREE ENERGY PREDICTED BY IDOCK:   -1.56 KCAL/MOL
REMARK 927      BINDING AFFINITY PREDICTED BY RF-SCORE:    0.00 PKD
ROOT
HETATM    1  CA  UNL     1      -8.402   5.634  68.457  1.00  0.00    -0.106 C  
HETATM    2  C   UNL     1     -10.997   8.721  69.149  1.00  0.00     0.043 C  
HETATM    3  C   UNL     1      -7.376   6.825  68.355  1.00  0.00    -0.087 C  
HETATM    4  O   UNL     1      -6.183   7.016  68.374  1.00  0.00    -0.032 OA 
HETATM    5  O   UNL     1      -6.185   9.547  68.145  1.00  0.00    -0.055 OA 
HETATM    6  OXT UNL     1      -7.623  11.182  67.717  1.00  0.00    -0.095 OA 
HETATM    7  N   UNL     1      -8.383   7.721  68.380  1.00  0.00    -0.124 N  
HETATM    8  C   UNL     1      -9.777   9.570  68.811  1.00  0.00    -0.164 C  
HETATM    9  CA  UNL     1      -8.565   9.076  68.435  1.00  0.00    -0.130 C  
HETATM   10  S   UNL     1     -10.649   7.000  69.566  1.00  0.00    -0.242 SA 
HETATM   11  C   UNL     1      -9.463   6.763  68.218  1.00  0.00    -0.125 C  
HETATM   12  C   UNL     1      -7.439  10.026  68.074  1.00  0.00    -0.088 C  
ENDROOT
BRANCH   1  13
HETATM   13  N   UNL     1      -8.493   4.950  69.775  1.00  0.00    -0.082 N  
HETATM   14  O   UNL     1      -6.561   3.730  69.606  1.00  0.00    -0.032 OA 
HETATM   15  C   UNL     1      -7.537   4.082  70.251  1.00  0.00    -0.045 C  
HETATM   16  H   UNL     1      -9.309   5.134  70.358  1.00  0.00     0.000 HD 
BRANCH  15  17
HETATM   17  C   UNL     1      -7.775   3.571  71.678  1.00  0.00    -0.057 C  
BRANCH  17  18
HETATM   18  N   UNL     1      -6.990   2.722  72.296  1.00  0.00    -0.026 NA 
HETATM   19  H   UNL     1      -6.137   2.354  71.874  1.00  0.00     0.000 HD 
HETATM   20  O   UNL     1      -7.414   2.362  73.578  1.00  0.00    -0.039 OA 
HETATM   21  H   UNL     1      -6.844   1.746  74.025  1.00  0.00     0.000 HD 
ENDBRANCH  17  18
BRANCH  17  22
HETATM   22  C   UNL     1      -8.936   4.059  72.430  1.00  0.00    -0.110 A  
HETATM   23  S   UNL     1     -11.170   4.263  73.350  1.00  0.00    -0.215 SA 
HETATM   24  H1  UNL     1      -9.583   7.235  74.794  1.00  0.00     0.000 HD 
HETATM   25  N   UNL     1     -10.107   3.409  72.391  1.00  0.00    -0.164 NA 
HETATM   26  N   UNL     1      -8.863   5.251  73.173  1.00  0.00    -0.120 NA 
HETATM   27  H2  UNL     1     -11.199   6.593  74.964  1.00  0.00     0.000 HD 
HETATM   28  C   UNL     1     -10.017   5.475  73.747  1.00  0.00    -0.189 A  
HETATM   29  N   UNL     1     -10.267   6.516  74.558  1.00  0.00    -0.336 NA 
ENDBRANCH  17  22
ENDBRANCH  15  17
ENDBRANCH   1  13
BRANCH   8  30
HETATM   30  C   UNL     1     -10.124  10.987  68.974  1.00  0.00    -0.197 C  
HETATM   31  C   UNL     1     -11.150  11.511  66.663  1.00  0.00    -0.355 C  
HETATM   32  C   UNL     1     -10.678  11.785  68.048  1.00  0.00    -0.244 C  
HETATM   33  C   UNL     1     -10.940  12.852  65.979  1.00  0.00    -0.276 C  
HETATM   34  N   UNL     1     -10.910  13.845  67.035  1.00  0.00    -0.284 N  
HETATM   35  C   UNL     1     -10.830  13.250  68.288  1.00  0.00    -0.256 C  
HETATM   36  O   UNL     1     -10.881  13.772  69.385  1.00  0.00    -0.167 OA 
BRANCH  34  37
HETATM   37  C   UNL     1     -11.264  15.255  66.805  1.00  0.00    -0.241 C  
HETATM   38  C   UNL     1     -10.620  15.857  65.554  1.00  0.00    -0.419 C  
HETATM   39  C   UNL     1      -9.252  16.292  66.045  1.00  0.00    -0.316 C  
HETATM   40  N   UNL     1      -9.440  16.749  67.420  1.00  0.00    -0.234 NA 
HETATM   41  H   UNL     1      -9.338  17.759  67.523  1.00  0.00     0.000 HD 
HETATM   42  C   UNL     1     -10.757  16.250  67.869  1.00  0.00    -0.329 C  
ENDBRANCH  34  37
ENDBRANCH   8  30
TORSDOF 6
ENDMDL
MODEL      110
REMARK 921   NORMALIZED FREE ENERGY PREDICTED BY IDOCK:   -4.42 KCAL/MOL
REMARK 922        TOTAL FREE ENERGY PREDICTED BY IDOCK:   -7.50 KCAL/MOL
REMARK 923 INTER-LIGAND FREE ENERGY PREDICTED BY IDOCK:   -6.86 KCAL/MOL
REMARK 924 INTRA-LIGAND FREE ENERGY PREDICTED BY IDOCK:   -0.64 KCAL/MOL
REMARK 927      BINDING AFFINITY PREDICTED BY RF-SCORE:    0.00 PKD
ROOT
HETATM    1  CA  UNL     1     -11.132  11.076  68.027  1.00  0.00    -0.286 C  
HETATM    2  C   UNL     1      -9.160  14.623  68.545  1.00  0.00    -0.188 C  
HETATM    3  C   UNL     1     -11.283  11.639  66.563  1.00  0.00    -0.294 C  
HETATM    4  O   UNL     1     -11.560  11.253  65.452  1.00  0.00     0.036 OA 
HETATM    5  O   UNL     1     -11.285  13.442  64.193  1.00  0.00    -0.380 OA 
HETATM    6  OXT UNL     1     -10.971  15.594  64.637  1.00  0.00    -0.424 OA 
HETATM    7  N   UNL     1     -10.805  12.838  66.954  1.00  0.00    -0.250 N  
HETATM    8  C   UNL     1      -9.654  14.885  67.126  1.00  0.00    -0.229 C  
HETATM    9  CA  UNL     1     -10.440  14.037  66.407  1.00  0.00    -0.284 C  
HETATM   10  S   UNL     1      -9.198  12.897  69.069  1.00  0.00     0.658 SA 
HETATM   11  C   UNL     1     -10.842  12.574  68.382  1.00  0.00    -0.243 C  
HETATM   12  C   UNL     1     -10.910  14.434  65.021  1.00  0.00    -0.407 C  
ENDROOT
BRANCH   1  13
HETATM   13  N   UNL     1      -9.999  10.140  68.262  1.00  0.00    -0.145 N  
HETATM   14  O   UNL     1     -10.939   8.290  67.291  1.00  0.00    -0.135 OA 
HETATM   15  C   UNL     1      -9.989   8.831  67.835  1.00  0.00    -0.187 C  
HETATM   16  H   UNL     1      -9.184  10.487  68.767  1.00  0.00     0.000 HD 
BRANCH  15  17
HETATM   17  C   UNL     1      -8.679   8.074  68.088  1.00  0.00    -0.126 C  
BRANCH  17  18
HETATM   18  N   UNL     1      -7.527   8.656  68.322  1.00  0.00    -0.094 NA 
HETATM   19  H   UNL     1      -6.855   8.865  67.584  1.00  0.00     0.000 HD 
HETATM   20  O   UNL     1      -7.294   8.969  69.665  1.00  0.00    -0.060 OA 
HETATM   21  H   UNL     1      -6.460   9.391  69.835  1.00  0.00     0.000 HD 
ENDBRANCH  17  18
BRANCH  17  22
HETATM   22  C   UNL     1      -8.686   6.609  68.090  1.00  0.00    -0.117 A  
HETATM   23  S   UNL     1      -8.396   4.300  68.773  1.00  0.00    -0.083 SA 
HETATM   24  H1  UNL     1      -9.782   3.830  65.412  1.00  0.00     0.000 HD 
HETATM   25  N   UNL     1      -8.238   5.916  69.146  1.00  0.00    -0.105 NA 
HETATM   26  N   UNL     1      -9.121   5.890  66.962  1.00  0.00    -0.115 NA 
HETATM   27  H2  UNL     1      -9.304   2.676  66.635  1.00  0.00     0.000 HD 
HETATM   28  C   UNL     1      -9.033   4.607  67.205  1.00  0.00    -0.113 A  
HETATM   29  N   UNL     1      -9.405   3.647  66.342  1.00  0.00    -0.179 NA 
ENDBRANCH  17  22
ENDBRANCH  15  17
ENDBRANCH   1  13
BRANCH   8  30
HETATM   30  C   UNL     1      -9.129  16.178  66.672  1.00  0.00    -0.282 C  
HETATM   31  C   UNL     1      -6.596  15.840  67.045  1.00  0.00     0.042 C  
HETATM   32  C   UNL     1      -7.843  16.563  66.671  1.00  0.00    -0.321 C  
HETATM   33  C   UNL     1      -5.699  16.970  67.522  1.00  0.00    -0.140 C  
HETATM   34  N   UNL     1      -6.218  18.183  66.920  1.00  0.00    -0.161 N  
HETATM   35  C   UNL     1      -7.461  17.966  66.336  1.00  0.00    -0.273 C  
HETATM   36  O   UNL     1      -8.133  18.727  65.667  1.00  0.00    -0.426 OA 
BRANCH  34  37
HETATM   37  C   UNL     1      -5.380  19.367  66.674  1.00  0.00    -0.163 C  
HETATM   38  C   UNL     1      -5.291  20.318  67.869  1.00  0.00    -0.220 C  
HETATM   39  C   UNL     1      -6.532  21.179  67.719  1.00  0.00    -0.310 C  
HETATM   40  N   UNL     1      -6.731  21.356  66.282  1.00  0.00    -0.672 NA 
HETATM   41  H   UNL     1      -6.540  22.307  65.967  1.00  0.00     0.000 HD 
HETATM   42  C   UNL     1      -5.903  20.341  65.599  1.00  0.00    -0.182 C  
ENDBRANCH  34  37
ENDBRANCH   8  30
TORSDOF 6
ENDMDL
MODEL      111
REMARK 921   NORMALIZED FREE ENERGY PREDICTED BY IDOCK:   -4.39 KCAL/MOL
REMARK 922        TOTAL FREE ENERGY PREDICTED BY IDOCK:   -7.45 KCAL/MOL
REMARK 923 INTER-LIGAND FREE ENERGY PREDICTED BY IDOCK:   -6.72 KCAL/MOL
REMARK 924 INTRA-LIGAND FREE ENERGY PREDICTED BY IDOCK:   -0.73 KCAL/MOL
REMARK 927      BINDING AFFINITY PREDICTED BY RF-SCORE:    0.00 PKD
ROOT
HETATM    1  CA  UNL     1      -8.994  14.256  66.748  1.00  0.00    -0.227 C  
HETATM    2  C   UNL     1      -7.295  11.432  69.172  1.00  0.00    -0.081 C  
HETATM    3  C   UNL     1     -10.289  13.419  67.069  1.00  0.00    -0.247 C  
HETATM    4  O   UNL     1     -11.492  13.522  67.003  1.00  0.00    -0.311 OA 
HETATM    5  O   UNL     1     -12.135  11.271  67.991  1.00  0.00    -0.638 OA 
HETATM    6  OXT UNL     1     -11.156   9.371  68.591  1.00  0.00    -0.089 OA 
HETATM    7  N   UNL     1      -9.547  12.459  67.657  1.00  0.00    -0.188 N  
HETATM    8  C   UNL     1      -8.685  10.810  69.100  1.00  0.00    -0.101 C  
HETATM    9  CA  UNL     1      -9.720  11.302  68.366  1.00  0.00    -0.194 C  
HETATM   10  S   UNL     1      -7.198  13.165  68.679  1.00  0.00    -0.091 SA 
HETATM   11  C   UNL     1      -8.254  12.958  67.222  1.00  0.00    -0.176 C  
HETATM   12  C   UNL     1     -11.044  10.562  68.334  1.00  0.00    -0.281 C  
ENDROOT
BRANCH   1  13
HETATM   13  N   UNL     1      -8.759  15.461  67.589  1.00  0.00    -0.163 N  
HETATM   14  O   UNL     1      -6.661  15.956  66.812  1.00  0.00    -0.249 OA 
HETATM   15  C   UNL     1      -7.620  16.231  67.517  1.00  0.00    -0.146 C  
HETATM   16  H   UNL     1      -9.482  15.731  68.256  1.00  0.00     0.000 HD 
BRANCH  15  17
HETATM   17  C   UNL     1      -7.630  17.489  68.396  1.00  0.00    -0.254 C  
BRANCH  17  18
HETATM   18  N   UNL     1      -6.776  17.715  69.365  1.00  0.00    -0.222 NA 
HETATM   19  H   UNL     1      -6.887  18.481  70.030  1.00  0.00     0.000 HD 
HETATM   20  O   UNL     1      -5.701  16.822  69.416  1.00  0.00    -0.147 OA 
HETATM   21  H   UNL     1      -5.083  16.986  70.118  1.00  0.00     0.000 HD 
ENDBRANCH  17  18
BRANCH  17  22
HETATM   22  C   UNL     1      -8.633  18.528  68.149  1.00  0.00    -0.303 A  
HETATM   23  S   UNL     1     -10.205  20.345  68.481  1.00  0.00     0.152 SA 
HETATM   24  H1  UNL     1     -10.650  19.728  64.895  1.00  0.00     0.000 HD 
HETATM   25  N   UNL     1      -9.081  19.308  69.142  1.00  0.00    -0.241 NA 
HETATM   26  N   UNL     1      -9.190  18.701  66.868  1.00  0.00    -0.295 NA 
HETATM   27  H2  UNL     1     -11.384  20.900  65.964  1.00  0.00     0.000 HD 
HETATM   28  C   UNL     1     -10.057  19.681  66.901  1.00  0.00    -0.417 A  
HETATM   29  N   UNL     1     -10.738  20.122  65.831  1.00  0.00    -0.292 NA 
ENDBRANCH  17  22
ENDBRANCH  15  17
ENDBRANCH   1  13
BRANCH   8  30
HETATM   30  C   UNL     1      -8.717   9.618  69.956  1.00  0.00    -0.256 C  
HETATM   31  C   UNL     1      -7.456   7.916  68.478  1.00  0.00    -0.096 C  
HETATM   32  C   UNL     1      -8.215   8.408  69.661  1.00  0.00    -0.117 C  
HETATM   33  C   UNL     1      -7.855   6.450  68.427  1.00  0.00    -0.105 C  
HETATM   34  N   UNL     1      -8.303   6.105  69.762  1.00  0.00    -0.122 N  
HETATM   35  C   UNL     1      -8.459   7.237  70.553  1.00  0.00    -0.138 C  
HETATM   36  O   UNL     1      -8.725   7.310  71.737  1.00  0.00    -0.117 OA 
BRANCH  34  37
HETATM   37  C   UNL     1      -8.259   4.728  70.281  1.00  0.00    -0.079 C  
HETATM   38  C   UNL     1      -9.562   3.952  70.079  1.00  0.00    -0.269 C  
HETATM   39  C   UNL     1     -10.399   4.363  71.275  1.00  0.00     0.010 C  
HETATM   40  N   UNL     1      -9.466   4.526  72.388  1.00  0.00    -0.132 NA 
HETATM   41  H   UNL     1      -9.560   3.799  73.098  1.00  0.00     0.000 HD 
HETATM   42  C   UNL     1      -8.107   4.598  71.809  1.00  0.00    -0.103 C  
ENDBRANCH  34  37
ENDBRANCH   8  30
TORSDOF 6
ENDMDL
MODEL      112
REMARK 921   NORMALIZED FREE ENERGY PREDICTED BY IDOCK:   -4.37 KCAL/MOL
REMARK 922        TOTAL FREE ENERGY PREDICTED BY IDOCK:   -7.43 KCAL/MOL
REMARK 923 INTER-LIGAND FREE ENERGY PREDICTED BY IDOCK:   -6.53 KCAL/MOL
REMARK 924 INTRA-LIGAND FREE ENERGY PREDICTED BY IDOCK:   -0.90 KCAL/MOL
REMARK 927      BINDING AFFINITY PREDICTED BY RF-SCORE:    0.00 PKD
ROOT
HETATM    1  CA  UNL     1     -12.261  12.003  69.512  1.00  0.00    -0.117 C  
HETATM    2  C   UNL     1     -10.703   8.386  68.401  1.00  0.00    -0.023 C  
HETATM    3  C   UNL     1     -12.451  11.241  70.877  1.00  0.00    -0.394 C  
HETATM    4  O   UNL     1     -12.667  11.479  72.042  1.00  0.00    -0.243 OA 
HETATM    5  O   UNL     1     -12.616   9.106  72.947  1.00  0.00    -0.173 OA 
HETATM    6  OXT UNL     1     -12.549   7.026  72.173  1.00  0.00    -0.237 OA 
HETATM    7  N   UNL     1     -12.115  10.072  70.295  1.00  0.00    -0.198 N  
HETATM    8  C   UNL     1     -11.200   7.965  69.779  1.00  0.00     0.003 C  
HETATM    9  CA  UNL     1     -11.877   8.771  70.642  1.00  0.00    -0.112 C  
HETATM   10  S   UNL     1     -10.557  10.167  68.144  1.00  0.00    -0.240 SA 
HETATM   11  C   UNL     1     -12.144  10.554  68.925  1.00  0.00     0.165 C  
HETATM   12  C   UNL     1     -12.366   8.218  71.968  1.00  0.00    -0.349 C  
ENDROOT
BRANCH   1  13
HETATM   13  N   UNL     1     -11.036  12.837  69.384  1.00  0.00    -0.450 N  
HETATM   14  O   UNL     1     -11.568  13.839  67.394  1.00  0.00    -0.322 OA 
HETATM   15  C   UNL     1     -10.815  13.715  68.348  1.00  0.00    -0.256 C  
HETATM   16  H   UNL     1     -10.319  12.753  70.105  1.00  0.00     0.000 HD 
BRANCH  15  17
HETATM   17  C   UNL     1      -9.536  14.554  68.468  1.00  0.00    -0.211 C  
BRANCH  17  18
HETATM   18  N   UNL     1      -8.343  14.050  68.674  1.00  0.00    -0.252 NA 
HETATM   19  H   UNL     1      -8.104  13.526  69.516  1.00  0.00     0.000 HD 
HETATM   20  O   UNL     1      -7.424  14.288  67.647  1.00  0.00    -0.149 OA 
HETATM   21  H   UNL     1      -6.559  13.923  67.797  1.00  0.00     0.000 HD 
ENDBRANCH  17  18
BRANCH  17  22
HETATM   22  C   UNL     1      -9.619  16.011  68.331  1.00  0.00    -0.206 A  
HETATM   23  S   UNL     1     -10.440  18.241  67.849  1.00  0.00    -0.361 SA 
HETATM   24  H1  UNL     1      -7.049  19.018  69.006  1.00  0.00     0.000 HD 
HETATM   25  N   UNL     1     -10.731  16.601  67.871  1.00  0.00    -0.346 NA 
HETATM   26  N   UNL     1      -8.513  16.826  68.633  1.00  0.00    -0.250 NA 
HETATM   27  H2  UNL     1      -8.355  20.054  68.480  1.00  0.00     0.000 HD 
HETATM   28  C   UNL     1      -8.830  18.079  68.431  1.00  0.00    -0.292 A  
HETATM   29  N   UNL     1      -8.004  19.114  68.661  1.00  0.00    -0.354 NA 
ENDBRANCH  17  22
ENDBRANCH  15  17
ENDBRANCH   1  13
BRANCH   8  30
HETATM   30  C   UNL     1     -10.815   6.568  70.016  1.00  0.00    -0.342 C  
HETATM   31  C   UNL     1      -8.499   6.876  71.116  1.00  0.00    -0.123 C  
HETATM   32  C   UNL     1      -9.664   6.137  70.557  1.00  0.00    -0.203 C  
HETATM   33  C   UNL     1      -7.350   5.919  70.846  1.00  0.00    -0.086 C  
HETATM   34  N   UNL     1      -7.944   4.605  70.692  1.00  0.00    -0.067 N  
HETATM   35  C   UNL     1      -9.328   4.684  70.592  1.00  0.00    -0.154 C  
HETATM   36  O   UNL     1     -10.143   3.783  70.551  1.00  0.00    -0.051 OA 
BRANCH  34  37
HETATM   37  C   UNL     1      -7.199   3.363  70.956  1.00  0.00    -0.033 C  
HETATM   38  C   UNL     1      -7.625   2.651  72.242  1.00  0.00    -0.052 C  
HETATM   39  C   UNL     1      -6.811   3.354  73.313  1.00  0.00    -0.039 C  
HETATM   40  N   UNL     1      -5.525   3.676  72.698  1.00  0.00     0.000 NA 
HETATM   41  H   UNL     1      -4.755   3.117  73.067  1.00  0.00     0.000 HD 
HETATM   42  C   UNL     1      -5.693   3.538  71.237  1.00  0.00    -0.013 C  
ENDBRANCH  34  37
ENDBRANCH   8  30
TORSDOF 6
ENDMDL
MODEL      113
REMARK 921   NORMALIZED FREE ENERGY PREDICTED BY IDOCK:   -4.31 KCAL/MOL
REMARK 922        TOTAL FREE ENERGY PREDICTED BY IDOCK:   -7.34 KCAL/MOL
REMARK 923 INTER-LIGAND FREE ENERGY PREDICTED BY IDOCK:   -6.13 KCAL/MOL
REMARK 924 INTRA-LIGAND FREE ENERGY PREDICTED BY IDOCK:   -1.21 KCAL/MOL
REMARK 927      BINDING AFFINITY PREDICTED BY RF-SCORE:    0.00 PKD
ROOT
HETATM    1  CA  UNL     1      -8.518  11.476  68.608  1.00  0.00    -0.115 C  
HETATM    2  C   UNL     1     -10.659   8.095  67.759  1.00  0.00    -0.165 C  
HETATM    3  C   UNL     1      -7.720  11.013  67.332  1.00  0.00    -0.114 C  
HETATM    4  O   UNL     1      -6.933  11.454  66.527  1.00  0.00    -0.130 OA 
HETATM    5  O   UNL     1      -6.681   9.399  65.054  1.00  0.00    -0.079 OA 
HETATM    6  OXT UNL     1      -7.265   7.257  65.064  1.00  0.00    -0.064 OA 
HETATM    7  N   UNL     1      -8.379   9.837  67.321  1.00  0.00    -0.121 N  
HETATM    8  C   UNL     1      -9.568   7.896  66.714  1.00  0.00    -0.278 C  
HETATM    9  CA  UNL     1      -8.497   8.720  66.541  1.00  0.00    -0.116 C  
HETATM   10  S   UNL     1     -10.796   9.766  68.425  1.00  0.00    -0.163 SA 
HETATM   11  C   UNL     1      -9.009   9.988  68.622  1.00  0.00    -0.136 C  
HETATM   12  C   UNL     1      -7.447   8.386  65.498  1.00  0.00    -0.085 C  
ENDROOT
BRANCH   1  13
HETATM   13  N   UNL     1      -9.584  12.491  68.389  1.00  0.00    -0.310 N  
HETATM   14  O   UNL     1      -8.297  14.351  68.753  1.00  0.00    -0.157 OA 
HETATM   15  C   UNL     1      -9.367  13.849  68.444  1.00  0.00    -0.201 C  
HETATM   16  H   UNL     1     -10.528  12.163  68.187  1.00  0.00     0.000 HD 
BRANCH  15  17
HETATM   17  C   UNL     1     -10.579  14.717  68.081  1.00  0.00    -0.241 C  
BRANCH  17  18
HETATM   18  N   UNL     1     -11.194  15.510  68.925  1.00  0.00    -0.283 NA 
HETATM   19  H   UNL     1     -12.206  15.498  69.055  1.00  0.00     0.000 HD 
HETATM   20  O   UNL     1     -10.353  16.374  69.633  1.00  0.00    -0.279 OA 
HETATM   21  H   UNL     1     -10.799  16.949  70.244  1.00  0.00     0.000 HD 
ENDBRANCH  17  18
BRANCH  17  22
HETATM   22  C   UNL     1     -11.094  14.692  66.709  1.00  0.00    -0.335 A  
HETATM   23  S   UNL     1     -11.678  15.352  64.450  1.00  0.00    -0.135 SA 
HETATM   24  H1  UNL     1     -13.047  11.953  64.523  1.00  0.00     0.000 HD 
HETATM   25  N   UNL     1     -10.972  15.756  65.905  1.00  0.00    -0.246 NA 
HETATM   26  N   UNL     1     -11.774  13.563  66.217  1.00  0.00    -0.349 NA 
HETATM   27  H2  UNL     1     -13.003  13.152  63.252  1.00  0.00     0.000 HD 
HETATM   28  C   UNL     1     -12.136  13.781  64.979  1.00  0.00    -0.403 A  
HETATM   29  N   UNL     1     -12.776  12.884  64.209  1.00  0.00    -0.693 NA 
ENDBRANCH  17  22
ENDBRANCH  15  17
ENDBRANCH   1  13
BRANCH   8  30
HETATM   30  C   UNL     1      -9.874   6.694  65.930  1.00  0.00     0.355 C  
HETATM   31  C   UNL     1      -8.803   4.861  67.402  1.00  0.00    -0.103 C  
HETATM   32  C   UNL     1      -9.520   5.433  66.229  1.00  0.00    -0.169 C  
HETATM   33  C   UNL     1      -8.108   3.653  66.797  1.00  0.00    -0.095 C  
HETATM   34  N   UNL     1      -8.847   3.319  65.595  1.00  0.00    -0.128 N  
HETATM   35  C   UNL     1      -9.753   4.321  65.263  1.00  0.00    -0.197 C  
HETATM   36  O   UNL     1     -10.592   4.330  64.384  1.00  0.00    -0.157 OA 
BRANCH  34  37
HETATM   37  C   UNL     1      -8.864   1.962  65.026  1.00  0.00    -0.117 C  
HETATM   38  C   UNL     1      -7.547   1.557  64.361  1.00  0.00    -0.059 C  
HETATM   39  C   UNL     1      -7.675   2.132  62.962  1.00  0.00    -0.055 C  
HETATM   40  N   UNL     1      -9.086   2.009  62.600  1.00  0.00    -0.080 NA 
HETATM   41  H   UNL     1      -9.254   1.309  61.878  1.00  0.00     0.000 HD 
HETATM   42  C   UNL     1      -9.834   1.747  63.848  1.00  0.00    -0.129 C  
ENDBRANCH  34  37
ENDBRANCH   8  30
TORSDOF 6
ENDMDL
MODEL      114
REMARK 921   NORMALIZED FREE ENERGY PREDICTED BY IDOCK:   -4.24 KCAL/MOL
REMARK 922        TOTAL FREE ENERGY PREDICTED BY IDOCK:   -7.24 KCAL/MOL
REMARK 923 INTER-LIGAND FREE ENERGY PREDICTED BY IDOCK:   -6.05 KCAL/MOL
REMARK 924 INTRA-LIGAND FREE ENERGY PREDICTED BY IDOCK:   -1.20 KCAL/MOL
REMARK 927      BINDING AFFINITY PREDICTED BY RF-SCORE:    0.00 PKD
ROOT
HETATM    1  CA  UNL     1      -9.246  11.826  68.469  1.00  0.00    -0.151 C  
HETATM    2  C   UNL     1      -9.291   9.412  65.166  1.00  0.00    -0.221 C  
HETATM    3  C   UNL     1      -8.222  10.737  68.966  1.00  0.00    -0.138 C  
HETATM    4  O   UNL     1      -7.379  10.587  69.818  1.00  0.00    -0.145 OA 
HETATM    5  O   UNL     1      -6.600   8.250  69.197  1.00  0.00    -0.042 OA 
HETATM    6  OXT UNL     1      -7.203   6.594  67.847  1.00  0.00    -0.085 OA 
HETATM    7  N   UNL     1      -8.515   9.951  67.910  1.00  0.00    -0.121 N  
HETATM    8  C   UNL     1      -8.429   8.515  66.046  1.00  0.00    -0.150 C  
HETATM    9  CA  UNL     1      -8.094   8.782  67.338  1.00  0.00    -0.105 C  
HETATM   10  S   UNL     1      -9.422  11.128  65.707  1.00  0.00    -0.228 SA 
HETATM   11  C   UNL     1      -9.666  10.709  67.452  1.00  0.00    -0.167 C  
HETATM   12  C   UNL     1      -7.271   7.783  68.129  1.00  0.00    -0.090 C  
ENDROOT
BRANCH   1  13
HETATM   13  N   UNL     1      -8.665  13.051  67.857  1.00  0.00    -0.179 N  
HETATM   14  O   UNL     1     -10.396  14.471  68.342  1.00  0.00    -0.229 OA 
HETATM   15  C   UNL     1      -9.280  14.282  67.883  1.00  0.00    -0.194 C  
HETATM   16  H   UNL     1      -7.760  12.975  67.393  1.00  0.00     0.000 HD 
BRANCH  15  17
HETATM   17  C   UNL     1      -8.457  15.433  67.288  1.00  0.00    -0.192 C  
BRANCH  17  18
HETATM   18  N   UNL     1      -7.222  15.311  66.865  1.00  0.00    -0.295 NA 
HETATM   19  H   UNL     1      -6.701  14.436  66.930  1.00  0.00     0.000 HD 
HETATM   20  O   UNL     1      -6.675  16.476  66.318  1.00  0.00    -0.130 OA 
HETATM   21  H   UNL     1      -5.780  16.387  66.012  1.00  0.00     0.000 HD 
ENDBRANCH  17  18
BRANCH  17  22
HETATM   22  C   UNL     1      -9.069  16.758  67.156  1.00  0.00    -0.212 A  
HETATM   23  S   UNL     1      -9.771  19.033  67.618  1.00  0.00    -0.328 SA 
HETATM   24  H1  UNL     1     -11.339  18.505  64.347  1.00  0.00     0.000 HD 
HETATM   25  N   UNL     1      -8.940  17.679  68.121  1.00  0.00    -0.261 NA 
HETATM   26  N   UNL     1      -9.852  17.081  66.033  1.00  0.00    -0.472 NA 
HETATM   27  H2  UNL     1     -11.312  19.898  65.402  1.00  0.00     0.000 HD 
HETATM   28  C   UNL     1     -10.287  18.309  66.146  1.00  0.00    -0.398 A  
HETATM   29  N   UNL     1     -11.034  18.934  65.220  1.00  0.00    -0.355 NA 
ENDBRANCH  17  22
ENDBRANCH  15  17
ENDBRANCH   1  13
BRANCH   8  30
HETATM   30  C   UNL     1      -8.016   7.340  65.267  1.00  0.00    -0.127 C  
HETATM   31  C   UNL     1      -9.923   5.689  65.820  1.00  0.00     0.137 C  
HETATM   32  C   UNL     1      -8.649   6.158  65.209  1.00  0.00    -0.082 C  
HETATM   33  C   UNL     1      -9.668   4.201  65.996  1.00  0.00    -0.205 C  
HETATM   34  N   UNL     1      -8.619   3.856  65.057  1.00  0.00    -0.112 N  
HETATM   35  C   UNL     1      -8.036   4.992  64.508  1.00  0.00    -0.106 C  
HETATM   36  O   UNL     1      -7.202   5.072  63.627  1.00  0.00    -0.047 OA 
BRANCH  34  37
HETATM   37  C   UNL     1      -8.452   2.495  64.521  1.00  0.00    -0.088 C  
HETATM   38  C   UNL     1      -8.619   2.406  63.003  1.00  0.00    -0.085 C  
HETATM   39  C   UNL     1     -10.121   2.279  62.827  1.00  0.00    -0.100 C  
HETATM   40  N   UNL     1     -10.596   1.484  63.957  1.00  0.00    -0.352 NA 
HETATM   41  H   UNL     1     -10.904   0.550  63.688  1.00  0.00     0.000 HD 
HETATM   42  C   UNL     1      -9.515   1.470  64.965  1.00  0.00     0.008 C  
ENDBRANCH  34  37
ENDBRANCH   8  30
TORSDOF 6
ENDMDL
MODEL      115
REMARK 921   NORMALIZED FREE ENERGY PREDICTED BY IDOCK:   -4.08 KCAL/MOL
REMARK 922        TOTAL FREE ENERGY PREDICTED BY IDOCK:   -7.04 KCAL/MOL
REMARK 923 INTER-LIGAND FREE ENERGY PREDICTED BY IDOCK:   -5.54 KCAL/MOL
REMARK 924 INTRA-LIGAND FREE ENERGY PREDICTED BY IDOCK:   -1.50 KCAL/MOL
REMARK 927      BINDING AFFINITY PREDICTED BY RF-SCORE:    0.00 PKD
ROOT
HETATM    1  CA  UNL     1      -8.448  10.986  66.178  1.00  0.00    -0.168 C  
HETATM    2  C   UNL     1      -6.023   8.649  68.501  1.00  0.00    -0.045 C  
HETATM    3  C   UNL     1      -9.290   9.656  66.124  1.00  0.00    -0.194 C  
HETATM    4  O   UNL     1     -10.402   9.281  65.836  1.00  0.00    -0.154 OA 
HETATM    5  O   UNL     1     -10.140   6.812  66.374  1.00  0.00    -0.109 OA 
HETATM    6  OXT UNL     1      -8.526   5.382  66.904  1.00  0.00    -0.108 OA 
HETATM    7  N   UNL     1      -8.289   8.974  66.717  1.00  0.00    -0.114 N  
HETATM    8  C   UNL     1      -6.992   7.553  68.075  1.00  0.00    -0.072 C  
HETATM    9  CA  UNL     1      -8.038   7.728  67.221  1.00  0.00    -0.119 C  
HETATM   10  S   UNL     1      -6.615  10.337  68.267  1.00  0.00    -0.057 SA 
HETATM   11  C   UNL     1      -7.290  10.024  66.616  1.00  0.00    -0.103 C  
HETATM   12  C   UNL     1      -8.903   6.544  66.832  1.00  0.00    -0.120 C  
ENDROOT
BRANCH   1  13
HETATM   13  N   UNL     1      -8.857  11.988  67.198  1.00  0.00    -0.181 N  
HETATM   14  O   UNL     1     -10.602  12.902  66.028  1.00  0.00    -0.264 OA 
HETATM   15  C   UNL     1      -9.930  12.836  67.046  1.00  0.00    -0.231 C  
HETATM   16  H   UNL     1      -8.313  12.050  68.059  1.00  0.00     0.000 HD 
BRANCH  15  17
HETATM   17  C   UNL     1     -10.242  13.716  68.265  1.00  0.00    -0.243 C  
BRANCH  17  18
HETATM   18  N   UNL     1     -10.816  13.278  69.359  1.00  0.00    -0.450 NA 
HETATM   19  H   UNL     1     -10.843  12.289  69.610  1.00  0.00     0.000 HD 
HETATM   20  O   UNL     1     -11.387  14.274  70.158  1.00  0.00    -0.412 OA 
HETATM   21  H   UNL     1     -11.802  13.956  70.951  1.00  0.00     0.000 HD 
ENDBRANCH  17  18
BRANCH  17  22
HETATM   22  C   UNL     1      -9.872  15.134  68.239  1.00  0.00    -0.223 A  
HETATM   23  S   UNL     1      -8.656  17.208  68.554  1.00  0.00    -0.257 SA 
HETATM   24  H1  UNL     1     -11.678  18.455  66.896  1.00  0.00     0.000 HD 
HETATM   25  N   UNL     1      -8.713  15.556  68.762  1.00  0.00    -0.178 NA 
HETATM   26  N   UNL     1     -10.748  16.097  67.706  1.00  0.00    -0.320 NA 
HETATM   27  H2  UNL     1     -10.245  19.283  67.457  1.00  0.00     0.000 HD 
HETATM   28  C   UNL     1     -10.199  17.281  67.797  1.00  0.00    -0.332 A  
HETATM   29  N   UNL     1     -10.763  18.412  67.345  1.00  0.00    -0.407 NA 
ENDBRANCH  17  22
ENDBRANCH  15  17
ENDBRANCH   1  13
BRANCH   8  30
HETATM   30  C   UNL     1      -6.619   6.301  68.745  1.00  0.00    -0.055 C  
HETATM   31  C   UNL     1      -7.986   6.486  70.929  1.00  0.00    -0.111 C  
HETATM   32  C   UNL     1      -7.032   5.888  69.955  1.00  0.00    -0.066 C  
HETATM   33  C   UNL     1      -7.442   5.990  72.258  1.00  0.00    -0.095 C  
HETATM   34  N   UNL     1      -6.653   4.811  71.959  1.00  0.00    -0.037 N  
HETATM   35  C   UNL     1      -6.448   4.672  70.591  1.00  0.00    -0.030 C  
HETATM   36  O   UNL     1      -5.919   3.759  69.988  1.00  0.00    -0.017 OA 
BRANCH  34  37
HETATM   37  C   UNL     1      -6.412   3.747  72.948  1.00  0.00    -0.024 C  
HETATM   38  C   UNL     1      -7.222   2.474  72.692  1.00  0.00    -0.032 C  
HETATM   39  C   UNL     1      -8.554   2.773  73.356  1.00  0.00    -0.076 C  
HETATM   40  N   UNL     1      -8.248   3.571  74.540  1.00  0.00    -0.080 NA 
HETATM   41  H   UNL     1      -8.399   3.066  75.413  1.00  0.00     0.000 HD 
HETATM   42  C   UNL     1      -6.862   4.063  74.388  1.00  0.00    -0.059 C  
ENDBRANCH  34  37
ENDBRANCH   8  30
TORSDOF 6
ENDMDL
MODEL      116
REMARK 921   NORMALIZED FREE ENERGY PREDICTED BY IDOCK:   -4.06 KCAL/MOL
REMARK 922        TOTAL FREE ENERGY PREDICTED BY IDOCK:   -7.01 KCAL/MOL
REMARK 923 INTER-LIGAND FREE ENERGY PREDICTED BY IDOCK:   -5.89 KCAL/MOL
REMARK 924 INTRA-LIGAND FREE ENERGY PREDICTED BY IDOCK:   -1.12 KCAL/MOL
REMARK 927      BINDING AFFINITY PREDICTED BY RF-SCORE:    0.00 PKD
ROOT
HETATM    1  CA  UNL     1     -10.413  10.226  69.904  1.00  0.00    -0.256 C  
HETATM    2  C   UNL     1     -10.545   7.088  67.282  1.00  0.00    -0.325 C  
HETATM    3  C   UNL     1      -9.476   9.232  70.688  1.00  0.00    -0.272 C  
HETATM    4  O   UNL     1      -8.664   9.244  71.583  1.00  0.00    -0.312 OA 
HETATM    5  O   UNL     1      -8.032   6.783  71.575  1.00  0.00    -0.101 OA 
HETATM    6  OXT UNL     1      -8.713   4.888  70.642  1.00  0.00    -0.111 OA 
HETATM    7  N   UNL     1      -9.797   8.231  69.843  1.00  0.00    -0.184 N  
HETATM    8  C   UNL     1      -9.766   6.382  68.385  1.00  0.00    -0.131 C  
HETATM    9  CA  UNL     1      -9.443   6.935  69.586  1.00  0.00    -0.147 C  
HETATM   10  S   UNL     1     -10.573   8.890  67.388  1.00  0.00    -0.164 SA 
HETATM   11  C   UNL     1     -10.884   8.923  69.171  1.00  0.00    -0.070 C  
HETATM   12  C   UNL     1      -8.707   6.111  70.626  1.00  0.00    -0.139 C  
ENDROOT
BRANCH   1  13
HETATM   13  N   UNL     1      -9.736  11.229  69.038  1.00  0.00    -0.391 N  
HETATM   14  O   UNL     1     -11.626  12.243  68.231  1.00  0.00    -0.288 OA 
HETATM   15  C   UNL     1     -10.408  12.180  68.303  1.00  0.00    -0.212 C  
HETATM   16  H   UNL     1      -8.718  11.211  68.985  1.00  0.00     0.000 HD 
BRANCH  15  17
HETATM   17  C   UNL     1      -9.513  13.183  67.564  1.00  0.00    -0.212 C  
BRANCH  17  18
HETATM   18  N   UNL     1      -9.963  14.219  66.899  1.00  0.00    -0.257 NA 
HETATM   19  H   UNL     1     -10.771  14.762  67.205  1.00  0.00     0.000 HD 
HETATM   20  O   UNL     1      -9.248  14.522  65.736  1.00  0.00    -0.516 OA 
HETATM   21  H   UNL     1      -9.575  15.273  65.254  1.00  0.00     0.000 HD 
ENDBRANCH  17  18
BRANCH  17  22
HETATM   22  C   UNL     1      -8.058  13.007  67.600  1.00  0.00    -0.172 A  
HETATM   23  S   UNL     1      -5.711  13.289  68.143  1.00  0.00    -0.112 SA 
HETATM   24  H1  UNL     1      -5.505  10.567  65.696  1.00  0.00     0.000 HD 
HETATM   25  N   UNL     1      -7.287  13.776  68.380  1.00  0.00    -0.107 NA 
HETATM   26  N   UNL     1      -7.428  12.056  66.777  1.00  0.00    -0.042 NA 
HETATM   27  H2  UNL     1      -4.267  11.380  66.624  1.00  0.00     0.000 HD 
HETATM   28  C   UNL     1      -6.137  12.089  66.986  1.00  0.00    -0.132 A  
HETATM   29  N   UNL     1      -5.252  11.278  66.382  1.00  0.00    -0.123 NA 
ENDBRANCH  17  22
ENDBRANCH  15  17
ENDBRANCH   1  13
BRANCH   8  30
HETATM   30  C   UNL     1      -9.416   5.031  67.929  1.00  0.00    -0.164 C  
HETATM   31  C   UNL     1      -8.470   5.535  65.579  1.00  0.00    -0.144 C  
HETATM   32  C   UNL     1      -8.895   4.700  66.737  1.00  0.00    -0.111 C  
HETATM   33  C   UNL     1      -8.705   4.600  64.404  1.00  0.00    -0.148 C  
HETATM   34  N   UNL     1      -8.701   3.256  64.948  1.00  0.00    -0.107 N  
HETATM   35  C   UNL     1      -8.738   3.272  66.337  1.00  0.00    -0.129 C  
HETATM   36  O   UNL     1      -8.651   2.340  67.113  1.00  0.00    -0.092 OA 
BRANCH  34  37
HETATM   37  C   UNL     1      -8.358   2.076  64.138  1.00  0.00    -0.081 C  
HETATM   38  C   UNL     1      -6.990   1.476  64.473  1.00  0.00    -0.038 C  
HETATM   39  C   UNL     1      -6.034   2.311  63.642  1.00  0.00    -0.010 C  
HETATM   40  N   UNL     1      -6.739   2.621  62.400  1.00  0.00    -0.021 NA 
HETATM   41  H   UNL     1      -6.358   2.131  61.591  1.00  0.00     0.000 HD 
HETATM   42  C   UNL     1      -8.171   2.335  62.630  1.00  0.00    -0.069 C  
ENDBRANCH  34  37
ENDBRANCH   8  30
TORSDOF 6
ENDMDL
MODEL      117
REMARK 921   NORMALIZED FREE ENERGY PREDICTED BY IDOCK:   -4.01 KCAL/MOL
REMARK 922        TOTAL FREE ENERGY PREDICTED BY IDOCK:   -6.95 KCAL/MOL
REMARK 923 INTER-LIGAND FREE ENERGY PREDICTED BY IDOCK:   -5.73 KCAL/MOL
REMARK 924 INTRA-LIGAND FREE ENERGY PREDICTED BY IDOCK:   -1.21 KCAL/MOL
REMARK 927      BINDING AFFINITY PREDICTED BY RF-SCORE:    0.00 PKD
ROOT
HETATM    1  CA  UNL     1      -7.250  11.667  66.551  1.00  0.00     0.048 C  
HETATM    2  C   UNL     1      -7.246   8.979  69.636  1.00  0.00    -0.059 C  
HETATM    3  C   UNL     1      -7.665  10.383  65.738  1.00  0.00    -0.146 C  
HETATM    4  O   UNL     1      -8.148  10.085  64.672  1.00  0.00    -0.143 OA 
HETATM    5  O   UNL     1      -8.205   7.561  64.955  1.00  0.00    -0.132 OA 
HETATM    6  OXT UNL     1      -7.446   6.022  66.364  1.00  0.00    -0.083 OA 
HETATM    7  N   UNL     1      -7.408   9.600  66.805  1.00  0.00    -0.090 N  
HETATM    8  C   UNL     1      -7.480   7.978  68.511  1.00  0.00    -0.102 C  
HETATM    9  CA  UNL     1      -7.534   8.292  67.188  1.00  0.00    -0.089 C  
HETATM   10  S   UNL     1      -7.578  10.702  69.217  1.00  0.00    -0.129 SA 
HETATM   11  C   UNL     1      -6.754  10.620  67.607  1.00  0.00    -0.072 C  
HETATM   12  C   UNL     1      -7.721   7.196  66.156  1.00  0.00    -0.098 C  
ENDROOT
BRANCH   1  13
HETATM   13  N   UNL     1      -8.359  12.548  67.008  1.00  0.00    -0.278 N  
HETATM   14  O   UNL     1      -7.066  14.293  67.737  1.00  0.00    -0.144 OA 
HETATM   15  C   UNL     1      -8.167  13.807  67.529  1.00  0.00    -0.188 C  
HETATM   16  H   UNL     1      -9.314  12.199  66.931  1.00  0.00     0.000 HD 
BRANCH  15  17
HETATM   17  C   UNL     1      -9.453  14.587  67.836  1.00  0.00    -0.212 C  
BRANCH  17  18
HETATM   18  N   UNL     1     -10.625  14.028  68.017  1.00  0.00    -0.243 NA 
HETATM   19  H   UNL     1     -10.766  13.018  67.978  1.00  0.00     0.000 HD 
HETATM   20  O   UNL     1     -11.667  14.926  68.266  1.00  0.00    -0.321 OA 
HETATM   21  H   UNL     1     -12.517  14.521  68.397  1.00  0.00     0.000 HD 
ENDBRANCH  17  18
BRANCH  17  22
HETATM   22  C   UNL     1      -9.394  16.046  67.959  1.00  0.00    -0.202 A  
HETATM   23  S   UNL     1      -9.396  18.287  68.887  1.00  0.00    -0.119 SA 
HETATM   24  H1  UNL     1      -9.025  19.045  65.320  1.00  0.00     0.000 HD 
HETATM   25  N   UNL     1      -9.494  16.645  69.154  1.00  0.00    -0.229 NA 
HETATM   26  N   UNL     1      -9.280  16.860  66.817  1.00  0.00    -0.237 NA 
HETATM   27  H2  UNL     1      -9.090  20.089  66.720  1.00  0.00     0.000 HD 
HETATM   28  C   UNL     1      -9.251  18.116  67.182  1.00  0.00    -0.256 A  
HETATM   29  N   UNL     1      -9.111  19.147  66.331  1.00  0.00    -0.340 NA 
ENDBRANCH  17  22
ENDBRANCH  15  17
ENDBRANCH   1  13
BRANCH   8  30
HETATM   30  C   UNL     1      -7.651   6.641  69.093  1.00  0.00    -0.100 C  
HETATM   31  C   UNL     1     -10.001   6.857  70.141  1.00  0.00    -0.188 C  
HETATM   32  C   UNL     1      -8.709   6.204  69.794  1.00  0.00    -0.135 C  
HETATM   33  C   UNL     1     -10.353   6.194  71.463  1.00  0.00    -0.209 C  
HETATM   34  N   UNL     1      -9.624   4.941  71.494  1.00  0.00    -0.154 N  
HETATM   35  C   UNL     1      -8.686   4.874  70.470  1.00  0.00    -0.108 C  
HETATM   36  O   UNL     1      -7.977   3.942  70.144  1.00  0.00    -0.048 OA 
BRANCH  34  37
HETATM   37  C   UNL     1     -10.071   3.785  72.289  1.00  0.00    -0.157 C  
HETATM   38  C   UNL     1     -11.154   4.124  73.315  1.00  0.00    -0.318 C  
HETATM   39  C   UNL     1     -10.357   4.622  74.507  1.00  0.00    -0.276 C  
HETATM   40  N   UNL     1      -9.132   3.826  74.537  1.00  0.00    -0.089 NA 
HETATM   41  H   UNL     1      -9.100   3.170  75.317  1.00  0.00     0.000 HD 
HETATM   42  C   UNL     1      -9.008   3.167  73.219  1.00  0.00    -0.086 C  
ENDBRANCH  34  37
ENDBRANCH   8  30
TORSDOF 6
ENDMDL
MODEL      118
REMARK 921   NORMALIZED FREE ENERGY PREDICTED BY IDOCK:   -3.91 KCAL/MOL
REMARK 922        TOTAL FREE ENERGY PREDICTED BY IDOCK:   -6.80 KCAL/MOL
REMARK 923 INTER-LIGAND FREE ENERGY PREDICTED BY IDOCK:   -6.46 KCAL/MOL
REMARK 924 INTRA-LIGAND FREE ENERGY PREDICTED BY IDOCK:   -0.34 KCAL/MOL
REMARK 927      BINDING AFFINITY PREDICTED BY RF-SCORE:    0.00 PKD
ROOT
HETATM    1  CA  UNL     1      -5.783  10.192  69.422  1.00  0.00    -0.037 C  
HETATM    2  C   UNL     1      -6.727  13.766  67.670  1.00  0.00    -0.176 C  
HETATM    3  C   UNL     1      -5.682  11.108  70.700  1.00  0.00    -0.125 C  
HETATM    4  O   UNL     1      -5.652  11.009  71.904  1.00  0.00    -0.315 OA 
HETATM    5  O   UNL     1      -5.531  13.476  72.500  1.00  0.00    -0.405 OA 
HETATM    6  OXT UNL     1      -5.241  15.427  71.481  1.00  0.00    -0.132 OA 
HETATM    7  N   UNL     1      -5.793  12.216  69.939  1.00  0.00    -0.125 N  
HETATM    8  C   UNL     1      -6.368  14.317  69.045  1.00  0.00    -0.096 C  
HETATM    9  CA  UNL     1      -5.914  13.570  70.089  1.00  0.00    -0.145 C  
HETATM   10  S   UNL     1      -7.055  11.993  67.610  1.00  0.00    -0.130 SA 
HETATM   11  C   UNL     1      -5.643  11.552  68.656  1.00  0.00    -0.042 C  
HETATM   12  C   UNL     1      -5.540  14.243  71.395  1.00  0.00    -0.206 C  
ENDROOT
BRANCH   1  13
HETATM   13  N   UNL     1      -7.074   9.481  69.218  1.00  0.00    -0.056 N  
HETATM   14  O   UNL     1      -6.804   7.906  70.860  1.00  0.00    -0.041 OA 
HETATM   15  C   UNL     1      -7.488   8.417  69.987  1.00  0.00    -0.063 C  
HETATM   16  H   UNL     1      -7.686   9.799  68.467  1.00  0.00     0.000 HD 
BRANCH  15  17
HETATM   17  C   UNL     1      -8.899   7.900  69.676  1.00  0.00    -0.138 C  
BRANCH  17  18
HETATM   18  N   UNL     1      -9.250   6.639  69.737  1.00  0.00    -0.146 NA 
HETATM   19  H   UNL     1      -9.688   6.150  68.956  1.00  0.00     0.000 HD 
HETATM   20  O   UNL     1      -8.978   6.016  70.959  1.00  0.00    -0.141 OA 
HETATM   21  H   UNL     1      -9.232   5.102  71.003  1.00  0.00     0.000 HD 
ENDBRANCH  17  18
BRANCH  17  22
HETATM   22  C   UNL     1      -9.945   8.856  69.300  1.00  0.00    -0.192 A  
HETATM   23  S   UNL     1     -11.454  10.230  67.989  1.00  0.00     0.208 SA 
HETATM   24  H1  UNL     1     -12.399  11.253  71.379  1.00  0.00     0.000 HD 
HETATM   25  N   UNL     1     -10.236   9.093  68.013  1.00  0.00    -0.200 NA 
HETATM   26  N   UNL     1     -10.640   9.586  70.281  1.00  0.00    -0.244 NA 
HETATM   27  H2  UNL     1     -13.014  11.735  69.816  1.00  0.00     0.000 HD 
HETATM   28  C   UNL     1     -11.514  10.368  69.702  1.00  0.00    -0.262 A  
HETATM   29  N   UNL     1     -12.364  11.172  70.364  1.00  0.00    -0.339 NA 
ENDBRANCH  17  22
ENDBRANCH  15  17
ENDBRANCH   1  13
BRANCH   8  30
HETATM   30  C   UNL     1      -6.607  15.766  69.054  1.00  0.00    -0.134 C  
HETATM   31  C   UNL     1      -7.990  16.049  66.891  1.00  0.00    -0.283 C  
HETATM   32  C   UNL     1      -7.271  16.471  68.124  1.00  0.00    -0.156 C  
HETATM   33  C   UNL     1      -7.832  17.264  65.993  1.00  0.00    -0.175 C  
HETATM   34  N   UNL     1      -7.568  18.386  66.872  1.00  0.00    -0.212 N  
HETATM   35  C   UNL     1      -7.302  17.962  68.169  1.00  0.00    -0.241 C  
HETATM   36  O   UNL     1      -7.135  18.630  69.171  1.00  0.00    -0.285 OA 
BRANCH  34  37
HETATM   37  C   UNL     1      -7.882  19.775  66.500  1.00  0.00    -0.299 C  
HETATM   38  C   UNL     1      -6.980  20.337  65.399  1.00  0.00    -0.297 C  
HETATM   39  C   UNL     1      -5.765  20.829  66.164  1.00  0.00    -0.211 C  
HETATM   40  N   UNL     1      -6.268  21.341  67.437  1.00  0.00    -0.412 NA 
HETATM   41  H   UNL     1      -6.207  22.357  67.511  1.00  0.00     0.000 HD 
HETATM   42  C   UNL     1      -7.644  20.829  67.600  1.00  0.00    -0.209 C  
ENDBRANCH  34  37
ENDBRANCH   8  30
TORSDOF 6
ENDMDL
MODEL      119
REMARK 921   NORMALIZED FREE ENERGY PREDICTED BY IDOCK:   -3.90 KCAL/MOL
REMARK 922        TOTAL FREE ENERGY PREDICTED BY IDOCK:   -6.79 KCAL/MOL
REMARK 923 INTER-LIGAND FREE ENERGY PREDICTED BY IDOCK:   -6.82 KCAL/MOL
REMARK 924 INTRA-LIGAND FREE ENERGY PREDICTED BY IDOCK:    0.03 KCAL/MOL
REMARK 927      BINDING AFFINITY PREDICTED BY RF-SCORE:    0.00 PKD
ROOT
HETATM    1  CA  UNL     1     -10.599   9.825  69.682  1.00  0.00    -0.239 C  
HETATM    2  C   UNL     1      -7.391  12.160  68.687  1.00  0.00    -0.109 C  
HETATM    3  C   UNL     1     -11.351  10.875  68.780  1.00  0.00    -0.292 C  
HETATM    4  O   UNL     1     -12.402  11.005  68.198  1.00  0.00    -0.402 OA 
HETATM    5  O   UNL     1     -11.999  13.288  67.159  1.00  0.00    -0.368 OA 
HETATM    6  OXT UNL     1     -10.519  14.938  67.278  1.00  0.00    -0.257 OA 
HETATM    7  N   UNL     1     -10.248  11.649  68.728  1.00  0.00    -0.204 N  
HETATM    8  C   UNL     1      -8.467  13.036  68.056  1.00  0.00    -0.181 C  
HETATM    9  CA  UNL     1      -9.804  12.783  68.106  1.00  0.00    -0.226 C  
HETATM   10  S   UNL     1      -7.891  10.465  69.051  1.00  0.00    -0.131 SA 
HETATM   11  C   UNL     1      -9.496  10.935  69.745  1.00  0.00     0.525 C  
HETATM   12  C   UNL     1     -10.782  13.761  67.483  1.00  0.00    -0.256 C  
ENDROOT
BRANCH   1  13
HETATM   13  N   UNL     1     -10.185   8.559  69.018  1.00  0.00    -0.204 N  
HETATM   14  O   UNL     1     -10.770   9.143  66.881  1.00  0.00    -0.203 OA 
HETATM   15  C   UNL     1     -10.273   8.345  67.661  1.00  0.00    -0.236 C  
HETATM   16  H   UNL     1      -9.815   7.808  69.600  1.00  0.00     0.000 HD 
BRANCH  15  17
HETATM   17  C   UNL     1      -9.691   7.012  67.173  1.00  0.00    -0.161 C  
BRANCH  17  18
HETATM   18  N   UNL     1      -9.612   6.661  65.913  1.00  0.00    -0.385 NA 
HETATM   19  H   UNL     1      -9.072   7.189  65.226  1.00  0.00     0.000 HD 
HETATM   20  O   UNL     1     -10.327   5.506  65.582  1.00  0.00    -0.403 OA 
HETATM   21  H   UNL     1     -10.270   5.252  64.668  1.00  0.00     0.000 HD 
ENDBRANCH  17  18
BRANCH  17  22
HETATM   22  C   UNL     1      -9.167   6.057  68.155  1.00  0.00    -0.116 A  
HETATM   23  S   UNL     1      -8.787   4.027  69.425  1.00  0.00    -0.102 SA 
HETATM   24  H1  UNL     1      -6.516   6.326  71.154  1.00  0.00     0.000 HD 
HETATM   25  N   UNL     1      -9.595   4.788  68.182  1.00  0.00    -0.141 NA 
HETATM   26  N   UNL     1      -8.234   6.463  69.126  1.00  0.00    -0.111 NA 
HETATM   27  H2  UNL     1      -6.851   4.630  71.405  1.00  0.00     0.000 HD 
HETATM   28  C   UNL     1      -7.923   5.442  69.882  1.00  0.00    -0.081 A  
HETATM   29  N   UNL     1      -7.029   5.487  70.883  1.00  0.00    -0.061 NA 
ENDBRANCH  17  22
ENDBRANCH  15  17
ENDBRANCH   1  13
BRANCH   8  30
HETATM   30  C   UNL     1      -7.822  14.171  67.385  1.00  0.00    -0.195 C  
HETATM   31  C   UNL     1      -7.887  15.951  69.255  1.00  0.00    -0.226 C  
HETATM   32  C   UNL     1      -7.612  15.392  67.903  1.00  0.00    -0.149 C  
HETATM   33  C   UNL     1      -8.127  17.421  68.954  1.00  0.00    -0.183 C  
HETATM   34  N   UNL     1      -7.483  17.685  67.682  1.00  0.00    -0.196 N  
HETATM   35  C   UNL     1      -7.094  16.506  67.057  1.00  0.00    -0.212 C  
HETATM   36  O   UNL     1      -6.449  16.360  66.037  1.00  0.00     0.329 OA 
BRANCH  34  37
HETATM   37  C   UNL     1      -7.013  19.025  67.296  1.00  0.00    -0.207 C  
HETATM   38  C   UNL     1      -7.712  20.162  68.044  1.00  0.00    -0.267 C  
HETATM   39  C   UNL     1      -8.976  20.384  67.232  1.00  0.00    -0.343 C  
HETATM   40  N   UNL     1      -8.609  20.149  65.838  1.00  0.00    -0.535 NA 
HETATM   41  H   UNL     1      -8.598  21.002  65.278  1.00  0.00     0.000 HD 
HETATM   42  C   UNL     1      -7.311  19.441  65.842  1.00  0.00    -0.287 C  
ENDBRANCH  34  37
ENDBRANCH   8  30
TORSDOF 6
ENDMDL
MODEL      120
REMARK 921   NORMALIZED FREE ENERGY PREDICTED BY IDOCK:   -3.83 KCAL/MOL
REMARK 922        TOTAL FREE ENERGY PREDICTED BY IDOCK:   -6.69 KCAL/MOL
REMARK 923 INTER-LIGAND FREE ENERGY PREDICTED BY IDOCK:   -5.81 KCAL/MOL
REMARK 924 INTRA-LIGAND FREE ENERGY PREDICTED BY IDOCK:   -0.88 KCAL/MOL
REMARK 927      BINDING AFFINITY PREDICTED BY RF-SCORE:    0.00 PKD
ROOT
HETATM    1  CA  UNL     1     -10.045   9.686  64.642  1.00  0.00     0.601 C  
HETATM    2  C   UNL     1     -10.032  11.394  68.360  1.00  0.00    -0.204 C  
HETATM    3  C   UNL     1     -10.198  11.192  64.204  1.00  0.00    -0.347 C  
HETATM    4  O   UNL     1     -10.084  11.880  63.217  1.00  0.00    -0.428 OA 
HETATM    5  O   UNL     1     -10.643  14.137  64.242  1.00  0.00    -0.234 OA 
HETATM    6  OXT UNL     1     -11.427  14.954  66.152  1.00  0.00    -0.341 OA 
HETATM    7  N   UNL     1     -10.393  11.565  65.485  1.00  0.00    -0.263 N  
HETATM    8  C   UNL     1     -10.353  12.658  67.571  1.00  0.00    -0.220 C  
HETATM    9  CA  UNL     1     -10.536  12.708  66.222  1.00  0.00    -0.251 C  
HETATM   10  S   UNL     1      -9.358  10.029  67.391  1.00  0.00    -0.149 SA 
HETATM   11  C   UNL     1     -10.536  10.226  66.029  1.00  0.00    -0.111 C  
HETATM   12  C   UNL     1     -10.903  14.021  65.557  1.00  0.00    -0.309 C  
ENDROOT
BRANCH   1  13
HETATM   13  N   UNL     1      -8.664   9.132  64.632  1.00  0.00    -0.253 N  
HETATM   14  O   UNL     1      -8.551   8.664  62.393  1.00  0.00    -0.209 OA 
HETATM   15  C   UNL     1      -8.022   8.703  63.493  1.00  0.00    -0.160 C  
HETATM   16  H   UNL     1      -8.165   9.066  65.520  1.00  0.00     0.000 HD 
BRANCH  15  17
HETATM   17  C   UNL     1      -6.564   8.268  63.692  1.00  0.00    -0.076 C  
BRANCH  17  18
HETATM   18  N   UNL     1      -5.527   9.012  63.390  1.00  0.00    -0.067 NA 
HETATM   19  H   UNL     1      -4.638   8.945  63.887  1.00  0.00     0.000 HD 
HETATM   20  O   UNL     1      -5.736   9.903  62.334  1.00  0.00    -0.088 OA 
HETATM   21  H   UNL     1      -4.985  10.442  62.116  1.00  0.00     0.000 HD 
ENDBRANCH  17  18
BRANCH  17  22
HETATM   22  C   UNL     1      -6.282   6.951  64.270  1.00  0.00    -0.036 A  
HETATM   23  S   UNL     1      -5.528   5.202  65.772  1.00  0.00    -0.014 SA 
HETATM   24  H1  UNL     1      -6.857   3.183  63.016  1.00  0.00     0.000 HD 
HETATM   25  N   UNL     1      -5.685   6.832  65.464  1.00  0.00    -0.030 NA 
HETATM   26  N   UNL     1      -6.587   5.774  63.562  1.00  0.00    -0.032 NA 
HETATM   27  H2  UNL     1      -6.136   2.723  64.540  1.00  0.00     0.000 HD 
HETATM   28  C   UNL     1      -6.242   4.735  64.278  1.00  0.00    -0.026 A  
HETATM   29  N   UNL     1      -6.433   3.460  63.901  1.00  0.00    -0.030 NA 
ENDBRANCH  17  22
ENDBRANCH  15  17
ENDBRANCH   1  13
BRANCH   8  30
HETATM   30  C   UNL     1     -10.414  13.794  68.498  1.00  0.00    -0.248 C  
HETATM   31  C   UNL     1     -12.143  12.937  70.213  1.00  0.00    -0.377 C  
HETATM   32  C   UNL     1     -11.192  13.896  69.587  1.00  0.00    -0.196 C  
HETATM   33  C   UNL     1     -13.159  13.865  70.859  1.00  0.00    -0.192 C  
HETATM   34  N   UNL     1     -12.490  15.140  71.034  1.00  0.00    -0.326 N  
HETATM   35  C   UNL     1     -11.278  15.173  70.353  1.00  0.00    -0.279 C  
HETATM   36  O   UNL     1     -10.424  16.038  70.359  1.00  0.00    -0.211 OA 
BRANCH  34  37
HETATM   37  C   UNL     1     -12.890  16.109  72.066  1.00  0.00    -0.141 C  
HETATM   38  C   UNL     1     -11.744  16.541  72.983  1.00  0.00    -0.242 C  
HETATM   39  C   UNL     1     -11.713  15.449  74.037  1.00  0.00     0.051 C  
HETATM   40  N   UNL     1     -13.104  15.054  74.252  1.00  0.00    -0.188 NA 
HETATM   41  H   UNL     1     -13.465  15.344  75.161  1.00  0.00     0.000 HD 
HETATM   42  C   UNL     1     -13.888  15.586  73.119  1.00  0.00    -0.187 C  
ENDBRANCH  34  37
ENDBRANCH   8  30
TORSDOF 6
ENDMDL
MODEL      121
REMARK 921   NORMALIZED FREE ENERGY PREDICTED BY IDOCK:   -3.72 KCAL/MOL
REMARK 922        TOTAL FREE ENERGY PREDICTED BY IDOCK:   -6.55 KCAL/MOL
REMARK 923 INTER-LIGAND FREE ENERGY PREDICTED BY IDOCK:   -6.23 KCAL/MOL
REMARK 924 INTRA-LIGAND FREE ENERGY PREDICTED BY IDOCK:   -0.32 KCAL/MOL
REMARK 927      BINDING AFFINITY PREDICTED BY RF-SCORE:    0.00 PKD
ROOT
HETATM    1  CA  UNL     1      -8.916   5.810  71.446  1.00  0.00    -0.140 C  
HETATM    2  C   UNL     1      -8.336   9.315  69.417  1.00  0.00    -0.127 C  
HETATM    3  C   UNL     1     -10.380   6.382  71.553  1.00  0.00    -0.207 C  
HETATM    4  O   UNL     1     -11.499   6.007  71.813  1.00  0.00    -0.288 OA 
HETATM    5  O   UNL     1     -12.740   8.197  71.466  1.00  0.00    -0.311 OA 
HETATM    6  OXT UNL     1     -12.278  10.340  71.120  1.00  0.00    -0.333 OA 
HETATM    7  N   UNL     1      -9.972   7.570  71.060  1.00  0.00    -0.186 N  
HETATM    8  C   UNL     1      -9.764   9.593  69.873  1.00  0.00    -0.262 C  
HETATM    9  CA  UNL     1     -10.504   8.765  70.660  1.00  0.00    -0.210 C  
HETATM   10  S   UNL     1      -7.821   7.588  69.501  1.00  0.00    -0.122 SA 
HETATM   11  C   UNL     1      -8.547   7.301  71.135  1.00  0.00    -0.130 C  
HETATM   12  C   UNL     1     -11.899   9.177  71.090  1.00  0.00    -0.307 C  
ENDROOT
BRANCH   1  13
HETATM   13  N   UNL     1      -8.661   4.851  70.337  1.00  0.00    -0.098 N  
HETATM   14  O   UNL     1      -9.133   2.931  71.494  1.00  0.00    -0.087 OA 
HETATM   15  C   UNL     1      -8.831   3.490  70.451  1.00  0.00    -0.082 C  
HETATM   16  H   UNL     1      -8.341   5.223  69.442  1.00  0.00     0.000 HD 
BRANCH  15  17
HETATM   17  C   UNL     1      -8.615   2.696  69.156  1.00  0.00    -0.073 C  
BRANCH  17  18
HETATM   18  N   UNL     1      -9.192   1.549  68.892  1.00  0.00    -0.120 NA 
HETATM   19  H   UNL     1      -9.012   0.704  69.435  1.00  0.00     0.000 HD 
HETATM   20  O   UNL     1     -10.073   1.574  67.807  1.00  0.00    -0.231 OA 
HETATM   21  H   UNL     1     -10.490   0.743  67.616  1.00  0.00     0.000 HD 
ENDBRANCH  17  18
BRANCH  17  22
HETATM   22  C   UNL     1      -7.727   3.238  68.123  1.00  0.00    -0.059 A  
HETATM   23  S   UNL     1      -6.659   4.754  66.561  1.00  0.00    -0.047 SA 
HETATM   24  H1  UNL     1      -4.829   1.661  65.840  1.00  0.00     0.000 HD 
HETATM   25  N   UNL     1      -7.806   4.522  67.746  1.00  0.00    -0.085 NA 
HETATM   26  N   UNL     1      -6.799   2.411  67.465  1.00  0.00    -0.040 NA 
HETATM   27  H2  UNL     1      -4.677   3.271  65.179  1.00  0.00     0.000 HD 
HETATM   28  C   UNL     1      -6.130   3.118  66.591  1.00  0.00    -0.024 A  
HETATM   29  N   UNL     1      -5.143   2.631  65.821  1.00  0.00    -0.007 NA 
ENDBRANCH  17  22
ENDBRANCH  15  17
ENDBRANCH   1  13
BRANCH   8  30
HETATM   30  C   UNL     1     -10.199  10.878  69.313  1.00  0.00    -0.190 C  
HETATM   31  C   UNL     1     -10.896  10.166  66.931  1.00  0.00    -0.176 C  
HETATM   32  C   UNL     1     -10.648  11.096  68.067  1.00  0.00    -0.233 C  
HETATM   33  C   UNL     1     -10.652  11.058  65.725  1.00  0.00    -0.195 C  
HETATM   34  N   UNL     1     -10.827  12.421  66.187  1.00  0.00    -0.265 N  
HETATM   35  C   UNL     1     -10.904  12.480  67.573  1.00  0.00    -0.232 C  
HETATM   36  O   UNL     1     -11.143  13.437  68.284  1.00  0.00    -0.240 OA 
BRANCH  34  37
HETATM   37  C   UNL     1     -11.211  13.520  65.285  1.00  0.00    -0.292 C  
HETATM   38  C   UNL     1     -10.288  14.737  65.370  1.00  0.00    -0.410 C  
HETATM   39  C   UNL     1     -10.851  15.518  66.543  1.00  0.00    -0.284 C  
HETATM   40  N   UNL     1     -12.300  15.332  66.496  1.00  0.00     0.340 NA 
HETATM   41  H   UNL     1     -12.803  16.179  66.228  1.00  0.00     0.000 HD 
HETATM   42  C   UNL     1     -12.564  14.191  65.594  1.00  0.00    -0.470 C  
ENDBRANCH  34  37
ENDBRANCH   8  30
TORSDOF 6
ENDMDL
MODEL      122
REMARK 921   NORMALIZED FREE ENERGY PREDICTED BY IDOCK:   -3.69 KCAL/MOL
REMARK 922        TOTAL FREE ENERGY PREDICTED BY IDOCK:   -6.50 KCAL/MOL
REMARK 923 INTER-LIGAND FREE ENERGY PREDICTED BY IDOCK:   -5.37 KCAL/MOL
REMARK 924 INTRA-LIGAND FREE ENERGY PREDICTED BY IDOCK:   -1.13 KCAL/MOL
REMARK 927      BINDING AFFINITY PREDICTED BY RF-SCORE:    0.00 PKD
ROOT
HETATM    1  CA  UNL     1      -8.246   6.886  70.501  1.00  0.00    -0.120 C  
HETATM    2  C   UNL     1      -8.605   9.884  67.740  1.00  0.00    -0.121 C  
HETATM    3  C   UNL     1      -9.556   7.558  71.060  1.00  0.00    -0.160 C  
HETATM    4  O   UNL     1     -10.468   7.311  71.813  1.00  0.00    -0.198 OA 
HETATM    5  O   UNL     1     -11.793   9.463  71.548  1.00  0.00    -0.333 OA 
HETATM    6  OXT UNL     1     -11.556  11.464  70.617  1.00  0.00    -0.222 OA 
HETATM    7  N   UNL     1      -9.407   8.599  70.216  1.00  0.00    -0.161 N  
HETATM    8  C   UNL     1      -9.736  10.333  68.657  1.00  0.00    -0.171 C  
HETATM    9  CA  UNL     1     -10.081   9.723  69.824  1.00  0.00    -0.239 C  
HETATM   10  S   UNL     1      -8.061   8.177  67.963  1.00  0.00    -0.130 SA 
HETATM   11  C   UNL     1      -8.065   8.261  69.772  1.00  0.00    -0.118 C  
HETATM   12  C   UNL     1     -11.195  10.297  70.678  1.00  0.00    -0.325 C  
ENDROOT
BRANCH   1  13
HETATM   13  N   UNL     1      -8.435   5.715  69.603  1.00  0.00    -0.109 N  
HETATM   14  O   UNL     1      -6.802   4.386  70.507  1.00  0.00    -0.035 OA 
HETATM   15  C   UNL     1      -7.716   4.546  69.713  1.00  0.00    -0.054 C  
HETATM   16  H   UNL     1      -9.136   5.781  68.865  1.00  0.00     0.000 HD 
BRANCH  15  17
HETATM   17  C   UNL     1      -8.145   3.426  68.755  1.00  0.00    -0.060 C  
BRANCH  17  18
HETATM   18  N   UNL     1      -8.359   2.186  69.123  1.00  0.00    -0.048 NA 
HETATM   19  H   UNL     1      -8.963   1.553  68.598  1.00  0.00     0.000 HD 
HETATM   20  O   UNL     1      -7.695   1.800  70.290  1.00  0.00    -0.039 OA 
HETATM   21  H   UNL     1      -7.850   0.902  70.557  1.00  0.00     0.000 HD 
ENDBRANCH  17  18
BRANCH  17  22
HETATM   22  C   UNL     1      -8.352   3.736  67.337  1.00  0.00    -0.095 A  
HETATM   23  S   UNL     1      -9.189   4.731  65.290  1.00  0.00    -0.136 SA 
HETATM   24  H1  UNL     1      -6.833   2.279  63.922  1.00  0.00     0.000 HD 
HETATM   25  N   UNL     1      -9.227   4.677  66.955  1.00  0.00    -0.121 NA 
HETATM   26  N   UNL     1      -7.671   3.019  66.337  1.00  0.00    -0.076 NA 
HETATM   27  H2  UNL     1      -7.859   3.456  63.137  1.00  0.00     0.000 HD 
HETATM   28  C   UNL     1      -8.022   3.474  65.162  1.00  0.00    -0.086 A  
HETATM   29  N   UNL     1      -7.524   3.025  63.998  1.00  0.00    -0.065 NA 
ENDBRANCH  17  22
ENDBRANCH  15  17
ENDBRANCH   1  13
BRANCH   8  30
HETATM   30  C   UNL     1     -10.388  11.508  68.066  1.00  0.00    -0.208 C  
HETATM   31  C   UNL     1      -8.559  13.302  68.393  1.00  0.00    -0.130 C  
HETATM   32  C   UNL     1      -9.881  12.749  67.990  1.00  0.00    -0.226 C  
HETATM   33  C   UNL     1      -8.902  14.743  68.733  1.00  0.00    -0.179 C  
HETATM   34  N   UNL     1     -10.136  15.042  68.035  1.00  0.00    -0.222 N  
HETATM   35  C   UNL     1     -10.714  13.891  67.512  1.00  0.00    -0.267 C  
HETATM   36  O   UNL     1     -11.690  13.785  66.795  1.00  0.00    -0.349 OA 
BRANCH  34  37
HETATM   37  C   UNL     1     -10.518  16.411  67.652  1.00  0.00    -0.302 C  
HETATM   38  C   UNL     1     -11.036  16.528  66.217  1.00  0.00     0.085 C  
HETATM   39  C   UNL     1      -9.764  16.666  65.400  1.00  0.00     0.319 C  
HETATM   40  N   UNL     1      -8.838  17.443  66.221  1.00  0.00    -0.427 NA 
HETATM   41  H   UNL     1      -8.677  18.384  65.861  1.00  0.00     0.000 HD 
HETATM   42  C   UNL     1      -9.365  17.433  67.602  1.00  0.00    -0.245 C  
ENDBRANCH  34  37
ENDBRANCH   8  30
TORSDOF 6
ENDMDL
MODEL      123
REMARK 921   NORMALIZED FREE ENERGY PREDICTED BY IDOCK:   -3.66 KCAL/MOL
REMARK 922        TOTAL FREE ENERGY PREDICTED BY IDOCK:   -6.46 KCAL/MOL
REMARK 923 INTER-LIGAND FREE ENERGY PREDICTED BY IDOCK:   -6.70 KCAL/MOL
REMARK 924 INTRA-LIGAND FREE ENERGY PREDICTED BY IDOCK:    0.24 KCAL/MOL
REMARK 927      BINDING AFFINITY PREDICTED BY RF-SCORE:    0.00 PKD
ROOT
HETATM    1  CA  UNL     1      -9.725   7.843  73.157  1.00  0.00    -0.286 C  
HETATM    2  C   UNL     1      -8.386   8.747  69.398  1.00  0.00    -0.117 C  
HETATM    3  C   UNL     1     -11.061   8.438  72.574  1.00  0.00    -0.326 C  
HETATM    4  O   UNL     1     -12.244   8.462  72.821  1.00  0.00    -0.339 OA 
HETATM    5  O   UNL     1     -13.037   9.825  70.829  1.00  0.00    -0.261 OA 
HETATM    6  OXT UNL     1     -12.167  11.013  69.167  1.00  0.00    -0.434 OA 
HETATM    7  N   UNL     1     -10.413   8.867  71.472  1.00  0.00    -0.295 N  
HETATM    8  C   UNL     1      -9.763   9.387  69.269  1.00  0.00    -0.173 C  
HETATM    9  CA  UNL     1     -10.690   9.446  70.264  1.00  0.00    -0.253 C  
HETATM   10  S   UNL     1      -8.204   7.573  70.757  1.00  0.00    -0.111 SA 
HETATM   11  C   UNL     1      -9.069   8.614  71.961  1.00  0.00    -0.241 C  
HETATM   12  C   UNL     1     -12.008  10.158  70.029  1.00  0.00    -0.136 C  
ENDROOT
BRANCH   1  13
HETATM   13  N   UNL     1      -9.583   6.362  73.108  1.00  0.00    -0.149 N  
HETATM   14  O   UNL     1     -11.740   5.882  72.501  1.00  0.00    -0.303 OA 
HETATM   15  C   UNL     1     -10.602   5.511  72.744  1.00  0.00    -0.225 C  
HETATM   16  H   UNL     1      -8.682   5.955  73.358  1.00  0.00     0.000 HD 
BRANCH  15  17
HETATM   17  C   UNL     1     -10.211   4.029  72.657  1.00  0.00    -0.167 C  
BRANCH  17  18
HETATM   18  N   UNL     1     -10.792   3.074  73.342  1.00  0.00    -0.196 NA 
HETATM   19  H   UNL     1     -10.272   2.308  73.771  1.00  0.00     0.000 HD 
HETATM   20  O   UNL     1     -12.182   3.188  73.438  1.00  0.00     0.211 OA 
HETATM   21  H   UNL     1     -12.603   2.495  73.934  1.00  0.00     0.000 HD 
ENDBRANCH  17  18
BRANCH  17  22
HETATM   22  C   UNL     1      -9.135   3.624  71.748  1.00  0.00    -0.111 A  
HETATM   23  S   UNL     1      -6.960   2.990  70.882  1.00  0.00    -0.033 SA 
HETATM   24  H1  UNL     1      -8.942   2.942  67.799  1.00  0.00     0.000 HD 
HETATM   25  N   UNL     1      -7.889   3.423  72.197  1.00  0.00    -0.058 NA 
HETATM   26  N   UNL     1      -9.374   3.483  70.369  1.00  0.00    -0.154 NA 
HETATM   27  H2  UNL     1      -7.258   2.578  68.094  1.00  0.00     0.000 HD 
HETATM   28  C   UNL     1      -8.268   3.120  69.772  1.00  0.00    -0.047 A  
HETATM   29  N   UNL     1      -8.167   2.866  68.457  1.00  0.00    -0.063 NA 
ENDBRANCH  17  22
ENDBRANCH  15  17
ENDBRANCH   1  13
BRANCH   8  30
HETATM   30  C   UNL     1      -9.919   9.906  67.905  1.00  0.00    -0.190 C  
HETATM   31  C   UNL     1      -9.354   7.806  66.512  1.00  0.00    -0.243 C  
HETATM   32  C   UNL     1      -9.718   9.227  66.764  1.00  0.00    -0.260 C  
HETATM   33  C   UNL     1      -8.590   7.896  65.201  1.00  0.00    -0.027 C  
HETATM   34  N   UNL     1      -9.014   9.129  64.569  1.00  0.00    -0.141 N  
HETATM   35  C   UNL     1      -9.753   9.918  65.442  1.00  0.00    -0.306 C  
HETATM   36  O   UNL     1     -10.338  10.960  65.220  1.00  0.00    -0.273 OA 
BRANCH  34  37
HETATM   37  C   UNL     1      -8.954   9.334  63.112  1.00  0.00    -0.062 C  
HETATM   38  C   UNL     1      -7.530   9.382  62.555  1.00  0.00    -0.106 C  
HETATM   39  C   UNL     1      -7.125  10.830  62.764  1.00  0.00     0.076 C  
HETATM   40  N   UNL     1      -8.335  11.623  62.554  1.00  0.00    -0.600 NA 
HETATM   41  H   UNL     1      -8.307  12.174  61.695  1.00  0.00     0.000 HD 
HETATM   42  C   UNL     1      -9.481  10.692  62.609  1.00  0.00    -0.301 C  
ENDBRANCH  34  37
ENDBRANCH   8  30
TORSDOF 6
ENDMDL
MODEL      124
REMARK 921   NORMALIZED FREE ENERGY PREDICTED BY IDOCK:   -3.66 KCAL/MOL
REMARK 922        TOTAL FREE ENERGY PREDICTED BY IDOCK:   -6.46 KCAL/MOL
REMARK 923 INTER-LIGAND FREE ENERGY PREDICTED BY IDOCK:   -5.27 KCAL/MOL
REMARK 924 INTRA-LIGAND FREE ENERGY PREDICTED BY IDOCK:   -1.19 KCAL/MOL
REMARK 927      BINDING AFFINITY PREDICTED BY RF-SCORE:    0.00 PKD
ROOT
HETATM    1  CA  UNL     1      -6.258   6.354  63.967  1.00  0.00    -0.030 C  
HETATM    2  C   UNL     1      -5.404   5.996  67.952  1.00  0.00    -0.004 C  
HETATM    3  C   UNL     1      -7.488   5.464  64.386  1.00  0.00    -0.067 C  
HETATM    4  O   UNL     1      -8.569   5.127  63.963  1.00  0.00    -0.136 OA 
HETATM    5  O   UNL     1      -9.334   3.699  65.920  1.00  0.00    -0.155 OA 
HETATM    6  OXT UNL     1      -8.498   2.851  67.794  1.00  0.00    -0.079 OA 
HETATM    7  N   UNL     1      -6.954   5.266  65.609  1.00  0.00    -0.064 N  
HETATM    8  C   UNL     1      -6.584   5.032  67.922  1.00  0.00    -0.050 C  
HETATM    9  CA  UNL     1      -7.284   4.692  66.805  1.00  0.00    -0.080 C  
HETATM   10  S   UNL     1      -5.285   7.113  66.539  1.00  0.00    -0.023 SA 
HETATM   11  C   UNL     1      -5.649   5.832  65.313  1.00  0.00    -0.016 C  
HETATM   12  C   UNL     1      -8.408   3.678  66.896  1.00  0.00    -0.103 C  
ENDROOT
BRANCH   1  13
HETATM   13  N   UNL     1      -6.494   7.822  63.907  1.00  0.00    -0.057 N  
HETATM   14  O   UNL     1      -8.226   7.780  62.407  1.00  0.00    -0.160 OA 
HETATM   15  C   UNL     1      -7.490   8.404  63.156  1.00  0.00    -0.110 C  
HETATM   16  H   UNL     1      -5.884   8.431  64.452  1.00  0.00     0.000 HD 
BRANCH  15  17
HETATM   17  C   UNL     1      -7.625   9.924  63.322  1.00  0.00    -0.137 C  
BRANCH  17  18
HETATM   18  N   UNL     1      -6.691  10.785  62.998  1.00  0.00    -0.357 NA 
HETATM   19  H   UNL     1      -6.755  11.383  62.174  1.00  0.00     0.000 HD 
HETATM   20  O   UNL     1      -5.599  10.818  63.871  1.00  0.00    -0.329 OA 
HETATM   21  H   UNL     1      -4.922  11.442  63.636  1.00  0.00     0.000 HD 
ENDBRANCH  17  18
BRANCH  17  22
HETATM   22  C   UNL     1      -8.872  10.478  63.858  1.00  0.00    -0.194 A  
HETATM   23  S   UNL     1     -11.073  11.485  64.010  1.00  0.00    -0.322 SA 
HETATM   24  H1  UNL     1     -10.269  11.104  67.566  1.00  0.00     0.000 HD 
HETATM   25  N   UNL     1      -9.834  10.931  63.042  1.00  0.00    -0.333 NA 
HETATM   26  N   UNL     1      -9.070  10.593  65.245  1.00  0.00    -0.187 NA 
HETATM   27  H2  UNL     1     -11.692  11.727  66.765  1.00  0.00     0.000 HD 
HETATM   28  C   UNL     1     -10.248  11.115  65.473  1.00  0.00    -0.263 A  
HETATM   29  N   UNL     1     -10.758  11.324  66.699  1.00  0.00    -0.263 NA 
ENDBRANCH  17  22
ENDBRANCH  15  17
ENDBRANCH   1  13
BRANCH   8  30
HETATM   30  C   UNL     1      -6.840   4.554  69.286  1.00  0.00    -0.049 C  
HETATM   31  C   UNL     1      -8.617   6.253  70.078  1.00  0.00    -0.134 C  
HETATM   32  C   UNL     1      -7.682   5.100  70.180  1.00  0.00    -0.071 C  
HETATM   33  C   UNL     1      -8.654   6.766  71.508  1.00  0.00    -0.120 C  
HETATM   34  N   UNL     1      -8.244   5.657  72.347  1.00  0.00    -0.111 N  
HETATM   35  C   UNL     1      -7.727   4.612  71.589  1.00  0.00    -0.095 C  
HETATM   36  O   UNL     1      -7.382   3.504  71.951  1.00  0.00    -0.048 OA 
BRANCH  34  37
HETATM   37  C   UNL     1      -8.646   5.540  73.758  1.00  0.00    -0.113 C  
HETATM   38  C   UNL     1      -9.495   4.302  74.056  1.00  0.00    -0.119 C  
HETATM   39  C   UNL     1     -10.901   4.754  73.704  1.00  0.00    -0.308 C  
HETATM   40  N   UNL     1     -10.979   6.165  74.079  1.00  0.00    -0.310 NA 
HETATM   41  H   UNL     1     -11.576   6.330  74.889  1.00  0.00     0.000 HD 
HETATM   42  C   UNL     1      -9.594   6.641  74.273  1.00  0.00    -0.270 C  
ENDBRANCH  34  37
ENDBRANCH   8  30
TORSDOF 6
ENDMDL
MODEL      125
REMARK 921   NORMALIZED FREE ENERGY PREDICTED BY IDOCK:   -3.56 KCAL/MOL
REMARK 922        TOTAL FREE ENERGY PREDICTED BY IDOCK:   -6.33 KCAL/MOL
REMARK 923 INTER-LIGAND FREE ENERGY PREDICTED BY IDOCK:   -5.08 KCAL/MOL
REMARK 924 INTRA-LIGAND FREE ENERGY PREDICTED BY IDOCK:   -1.25 KCAL/MOL
REMARK 927      BINDING AFFINITY PREDICTED BY RF-SCORE:    0.00 PKD
ROOT
HETATM    1  CA  UNL     1      -7.395   8.082  65.217  1.00  0.00    -0.070 C  
HETATM    2  C   UNL     1     -10.792   8.721  67.406  1.00  0.00    -0.017 C  
HETATM    3  C   UNL     1      -6.779   9.007  66.333  1.00  0.00    -0.075 C  
HETATM    4  O   UNL     1      -5.700   9.319  66.778  1.00  0.00    -0.049 OA 
HETATM    5  O   UNL     1      -6.471  10.889  68.621  1.00  0.00    -0.053 OA 
HETATM    6  OXT UNL     1      -8.343  11.865  69.306  1.00  0.00     0.281 OA 
HETATM    7  N   UNL     1      -8.009   9.289  66.807  1.00  0.00    -0.107 N  
HETATM    8  C   UNL     1      -9.891   9.688  68.165  1.00  0.00    -0.172 C  
HETATM    9  CA  UNL     1      -8.592   9.951  67.852  1.00  0.00    -0.125 C  
HETATM   10  S   UNL     1      -9.933   7.504  66.387  1.00  0.00     0.050 SA 
HETATM   11  C   UNL     1      -8.751   8.696  65.707  1.00  0.00    -0.181 C  
HETATM   12  C   UNL     1      -7.813  10.976  68.654  1.00  0.00    -0.136 C  
ENDROOT
BRANCH   1  13
HETATM   13  N   UNL     1      -7.255   6.615  65.423  1.00  0.00    -0.071 N  
HETATM   14  O   UNL     1      -5.182   6.382  64.476  1.00  0.00    -0.020 OA 
HETATM   15  C   UNL     1      -6.135   5.898  65.065  1.00  0.00    -0.026 C  
HETATM   16  H   UNL     1      -8.031   6.112  65.853  1.00  0.00     0.000 HD 
BRANCH  15  17
HETATM   17  C   UNL     1      -6.156   4.416  65.465  1.00  0.00    -0.027 C  
BRANCH  17  18
HETATM   18  N   UNL     1      -5.634   3.946  66.571  1.00  0.00    -0.017 NA 
HETATM   19  H   UNL     1      -5.249   3.004  66.642  1.00  0.00     0.000 HD 
HETATM   20  O   UNL     1      -5.645   4.838  67.647  1.00  0.00    -0.015 OA 
HETATM   21  H   UNL     1      -5.267   4.497  68.449  1.00  0.00     0.000 HD 
ENDBRANCH  17  18
BRANCH  17  22
HETATM   22  C   UNL     1      -6.809   3.446  64.582  1.00  0.00    -0.048 A  
HETATM   23  S   UNL     1      -7.245   1.471  63.243  1.00  0.00    -0.036 SA 
HETATM   24  H1  UNL     1     -10.310   3.383  62.623  1.00  0.00     0.000 HD 
HETATM   25  N   UNL     1      -6.209   2.292  64.258  1.00  0.00    -0.018 NA 
HETATM   26  N   UNL     1      -8.065   3.722  64.012  1.00  0.00    -0.089 NA 
HETATM   27  H2  UNL     1      -9.800   1.808  62.063  1.00  0.00     0.000 HD 
HETATM   28  C   UNL     1      -8.435   2.712  63.266  1.00  0.00    -0.085 A  
HETATM   29  N   UNL     1      -9.605   2.647  62.609  1.00  0.00    -0.092 NA 
ENDBRANCH  17  22
ENDBRANCH  15  17
ENDBRANCH   1  13
BRANCH   8  30
HETATM   30  C   UNL     1     -10.649  10.265  69.282  1.00  0.00    -0.254 C  
HETATM   31  C   UNL     1     -11.739  12.306  68.135  1.00  0.00    -0.408 C  
HETATM   32  C   UNL     1     -11.397  11.379  69.249  1.00  0.00    -0.355 C  
HETATM   33  C   UNL     1     -11.925  13.628  68.862  1.00  0.00    -0.356 C  
HETATM   34  N   UNL     1     -12.214  13.295  70.243  1.00  0.00    -0.340 N  
HETATM   35  C   UNL     1     -11.984  11.948  70.497  1.00  0.00    -0.267 C  
HETATM   36  O   UNL     1     -12.210  11.313  71.509  1.00  0.00    -0.176 OA 
BRANCH  34  37
HETATM   37  C   UNL     1     -12.968  14.192  71.133  1.00  0.00    -0.349 C  
HETATM   38  C   UNL     1     -12.732  15.678  70.854  1.00  0.00    -0.500 C  
HETATM   39  C   UNL     1     -11.468  15.981  71.639  1.00  0.00    -0.362 C  
HETATM   40  N   UNL     1     -11.536  15.164  72.848  1.00  0.00    -0.340 NA 
HETATM   41  H   UNL     1     -11.694  15.714  73.693  1.00  0.00     0.000 HD 
HETATM   42  C   UNL     1     -12.574  14.136  72.623  1.00  0.00    -0.176 C  
ENDBRANCH  34  37
ENDBRANCH   8  30
TORSDOF 6
ENDMDL
MODEL      126
REMARK 921   NORMALIZED FREE ENERGY PREDICTED BY IDOCK:   -3.40 KCAL/MOL
REMARK 922        TOTAL FREE ENERGY PREDICTED BY IDOCK:   -6.12 KCAL/MOL
REMARK 923 INTER-LIGAND FREE ENERGY PREDICTED BY IDOCK:   -5.24 KCAL/MOL
REMARK 924 INTRA-LIGAND FREE ENERGY PREDICTED BY IDOCK:   -0.89 KCAL/MOL
REMARK 927      BINDING AFFINITY PREDICTED BY RF-SCORE:    0.00 PKD
ROOT
HETATM    1  CA  UNL     1      -8.260   6.391  68.450  1.00  0.00    -0.113 C  
HETATM    2  C   UNL     1     -10.904   9.362  67.488  1.00  0.00    -0.138 C  
HETATM    3  C   UNL     1      -7.235   7.426  67.849  1.00  0.00    -0.091 C  
HETATM    4  O   UNL     1      -6.046   7.640  67.833  1.00  0.00    -0.041 OA 
HETATM    5  O   UNL     1      -6.048   9.768  66.443  1.00  0.00    -0.061 OA 
HETATM    6  OXT UNL     1      -7.467  10.967  65.230  1.00  0.00     0.025 OA 
HETATM    7  N   UNL     1      -8.246   8.199  67.403  1.00  0.00    -0.121 N  
HETATM    8  C   UNL     1      -9.671   9.990  66.850  1.00  0.00    -0.237 C  
HETATM    9  CA  UNL     1      -8.438   9.415  66.808  1.00  0.00    -0.127 C  
HETATM   10  S   UNL     1     -10.572   8.049  68.681  1.00  0.00    -0.044 SA 
HETATM   11  C   UNL     1      -9.311   7.244  67.660  1.00  0.00    -0.128 C  
HETATM   12  C   UNL     1      -7.298  10.119  66.096  1.00  0.00    -0.115 C  
ENDROOT
BRANCH   1  13
HETATM   13  N   UNL     1      -8.421   6.402  69.929  1.00  0.00    -0.130 N  
HETATM   14  O   UNL     1      -6.203   6.208  70.467  1.00  0.00    -0.033 OA 
HETATM   15  C   UNL     1      -7.366   6.347  70.811  1.00  0.00    -0.076 C  
HETATM   16  H   UNL     1      -9.366   6.452  70.310  1.00  0.00     0.000 HD 
BRANCH  15  17
HETATM   17  C   UNL     1      -7.749   6.479  72.292  1.00  0.00    -0.097 C  
BRANCH  17  18
HETATM   18  N   UNL     1      -7.335   7.445  73.075  1.00  0.00    -0.072 NA 
HETATM   19  H   UNL     1      -7.066   7.290  74.047  1.00  0.00     0.000 HD 
HETATM   20  O   UNL     1      -7.292   8.707  72.473  1.00  0.00    -0.285 OA 
HETATM   21  H   UNL     1      -6.992   9.407  73.041  1.00  0.00     0.000 HD 
ENDBRANCH  17  18
BRANCH  17  22
HETATM   22  C   UNL     1      -8.646   5.487  72.891  1.00  0.00    -0.119 A  
HETATM   23  S   UNL     1      -9.811   4.108  74.510  1.00  0.00    -0.169 SA 
HETATM   24  H1  UNL     1     -11.236   2.815  71.390  1.00  0.00     0.000 HD 
HETATM   25  N   UNL     1      -8.699   5.314  74.219  1.00  0.00    -0.116 NA 
HETATM   26  N   UNL     1      -9.442   4.654  72.082  1.00  0.00    -0.136 NA 
HETATM   27  H2  UNL     1     -11.543   2.397  73.059  1.00  0.00     0.000 HD 
HETATM   28  C   UNL     1     -10.148   3.858  72.842  1.00  0.00    -0.156 A  
HETATM   29  N   UNL     1     -11.037   2.963  72.379  1.00  0.00     0.472 NA 
ENDBRANCH  17  22
ENDBRANCH  15  17
ENDBRANCH   1  13
BRANCH   8  30
HETATM   30  C   UNL     1     -10.034  11.307  66.312  1.00  0.00    -0.260 C  
HETATM   31  C   UNL     1      -9.451  12.833  68.313  1.00  0.00    -0.203 C  
HETATM   32  C   UNL     1      -9.954  12.483  66.956  1.00  0.00    -0.217 C  
HETATM   33  C   UNL     1     -10.294  14.047  68.666  1.00  0.00    -0.238 C  
HETATM   34  N   UNL     1     -10.760  14.597  67.408  1.00  0.00    -0.276 N  
HETATM   35  C   UNL     1     -10.509  13.729  66.352  1.00  0.00    -0.284 C  
HETATM   36  O   UNL     1     -10.678  13.907  65.161  1.00  0.00    -0.319 OA 
BRANCH  34  37
HETATM   37  C   UNL     1     -11.125  16.014  67.250  1.00  0.00    -0.131 C  
HETATM   38  C   UNL     1     -10.484  16.683  66.032  1.00  0.00    -0.306 C  
HETATM   39  C   UNL     1      -9.119  17.105  66.547  1.00  0.00    -0.269 C  
HETATM   40  N   UNL     1      -9.314  17.490  67.944  1.00  0.00    -0.260 NA 
HETATM   41  H   UNL     1      -9.221  18.494  68.098  1.00  0.00     0.000 HD 
HETATM   42  C   UNL     1     -10.628  16.958  68.363  1.00  0.00    -0.365 C  
ENDBRANCH  34  37
ENDBRANCH   8  30
TORSDOF 6
ENDMDL
MODEL      127
REMARK 921   NORMALIZED FREE ENERGY PREDICTED BY IDOCK:   -3.40 KCAL/MOL
REMARK 922        TOTAL FREE ENERGY PREDICTED BY IDOCK:   -6.11 KCAL/MOL
REMARK 923 INTER-LIGAND FREE ENERGY PREDICTED BY IDOCK:   -5.79 KCAL/MOL
REMARK 924 INTRA-LIGAND FREE ENERGY PREDICTED BY IDOCK:   -0.32 KCAL/MOL
REMARK 927      BINDING AFFINITY PREDICTED BY RF-SCORE:    0.00 PKD
ROOT
HETATM    1  CA  UNL     1      -7.079   5.727  70.910  1.00  0.00    -0.071 C  
HETATM    2  C   UNL     1      -6.666   9.255  68.881  1.00  0.00    -0.052 C  
HETATM    3  C   UNL     1      -8.581   6.198  70.962  1.00  0.00    -0.132 C  
HETATM    4  O   UNL     1      -9.681   5.749  71.184  1.00  0.00    -0.164 OA 
HETATM    5  O   UNL     1     -11.055   7.847  70.779  1.00  0.00    -0.249 OA 
HETATM    6  OXT UNL     1     -10.727  10.016  70.436  1.00  0.00    -0.287 OA 
HETATM    7  N   UNL     1      -8.238   7.409  70.476  1.00  0.00    -0.125 N  
HETATM    8  C   UNL     1      -8.125   9.437  69.284  1.00  0.00    -0.105 C  
HETATM    9  CA  UNL     1      -8.835   8.563  70.049  1.00  0.00    -0.141 C  
HETATM   10  S   UNL     1      -6.038   7.567  68.994  1.00  0.00    -0.035 SA 
HETATM   11  C   UNL     1      -6.801   7.238  70.603  1.00  0.00    -0.053 C  
HETATM   12  C   UNL     1     -10.269   8.881  70.427  1.00  0.00    -0.200 C  
ENDROOT
BRANCH   1  13
HETATM   13  N   UNL     1      -6.719   4.783  69.817  1.00  0.00    -0.039 N  
HETATM   14  O   UNL     1      -8.849   4.346  69.094  1.00  0.00    -0.085 OA 
HETATM   15  C   UNL     1      -7.642   4.202  68.976  1.00  0.00    -0.054 C  
HETATM   16  H   UNL     1      -5.735   4.552  69.684  1.00  0.00     0.000 HD 
BRANCH  15  17
HETATM   17  C   UNL     1      -7.047   3.345  67.851  1.00  0.00    -0.051 C  
BRANCH  17  18
HETATM   18  N   UNL     1      -6.217   2.349  68.046  1.00  0.00    -0.024 NA 
HETATM   19  H   UNL     1      -5.830   2.126  68.964  1.00  0.00     0.000 HD 
HETATM   20  O   UNL     1      -5.903   1.617  66.898  1.00  0.00    -0.018 OA 
HETATM   21  H   UNL     1      -5.301   0.895  67.040  1.00  0.00     0.000 HD 
ENDBRANCH  17  18
BRANCH  17  22
HETATM   22  C   UNL     1      -7.425   3.623  66.462  1.00  0.00    -0.077 A  
HETATM   23  S   UNL     1      -8.692   3.768  64.400  1.00  0.00    -0.114 SA 
HETATM   24  H1  UNL     1      -5.491   5.186  63.314  1.00  0.00     0.000 HD 
HETATM   25  N   UNL     1      -8.647   3.319  66.004  1.00  0.00    -0.115 NA 
HETATM   26  N   UNL     1      -6.496   4.172  65.560  1.00  0.00    -0.036 NA 
HETATM   27  H2  UNL     1      -6.994   4.940  62.456  1.00  0.00     0.000 HD 
HETATM   28  C   UNL     1      -7.065   4.323  64.391  1.00  0.00    -0.047 A  
HETATM   29  N   UNL     1      -6.457   4.857  63.319  1.00  0.00    -0.026 NA 
ENDBRANCH  17  22
ENDBRANCH  15  17
ENDBRANCH   1  13
BRANCH   8  30
HETATM   30  C   UNL     1      -8.626  10.687  68.701  1.00  0.00    -0.144 C  
HETATM   31  C   UNL     1      -9.790   9.804  66.571  1.00  0.00    -0.286 C  
HETATM   32  C   UNL     1      -9.302  10.816  67.548  1.00  0.00    -0.158 C  
HETATM   33  C   UNL     1      -9.761  10.578  65.263  1.00  0.00    -0.270 C  
HETATM   34  N   UNL     1      -9.807  11.982  65.622  1.00  0.00    -0.244 N  
HETATM   35  C   UNL     1      -9.612  12.163  66.986  1.00  0.00    -0.205 C  
HETATM   36  O   UNL     1      -9.683  13.187  67.638  1.00  0.00    -0.203 OA 
BRANCH  34  37
HETATM   37  C   UNL     1     -10.329  13.015  64.712  1.00  0.00    -0.336 C  
HETATM   38  C   UNL     1     -11.590  13.710  65.230  1.00  0.00    -0.334 C  
HETATM   39  C   UNL     1     -12.704  12.778  64.792  1.00  0.00    -0.393 C  
HETATM   40  N   UNL     1     -12.293  12.232  63.501  1.00  0.00    -0.622 NA 
HETATM   41  H   UNL     1     -12.848  12.586  62.722  1.00  0.00     0.000 HD 
HETATM   42  C   UNL     1     -10.847  12.504  63.353  1.00  0.00    -0.302 C  
ENDBRANCH  34  37
ENDBRANCH   8  30
TORSDOF 6
ENDMDL
MODEL      128
REMARK 921   NORMALIZED FREE ENERGY PREDICTED BY IDOCK:   -3.40 KCAL/MOL
REMARK 922        TOTAL FREE ENERGY PREDICTED BY IDOCK:   -6.11 KCAL/MOL
REMARK 923 INTER-LIGAND FREE ENERGY PREDICTED BY IDOCK:   -5.97 KCAL/MOL
REMARK 924 INTRA-LIGAND FREE ENERGY PREDICTED BY IDOCK:   -0.14 KCAL/MOL
REMARK 927      BINDING AFFINITY PREDICTED BY RF-SCORE:    0.00 PKD
ROOT
HETATM    1  CA  UNL     1     -10.725   9.870  66.423  1.00  0.00     0.036 C  
HETATM    2  C   UNL     1      -8.775  13.151  67.896  1.00  0.00    -0.192 C  
HETATM    3  C   UNL     1     -11.093  10.889  65.280  1.00  0.00     0.152 C  
HETATM    4  O   UNL     1     -11.517  10.889  64.148  1.00  0.00     0.268 OA 
HETATM    5  O   UNL     1     -11.467  13.392  63.709  1.00  0.00    -0.358 OA 
HETATM    6  OXT UNL     1     -11.139  15.277  64.833  1.00  0.00    -0.400 OA 
HETATM    7  N   UNL     1     -10.590  11.911  66.001  1.00  0.00    -0.256 N  
HETATM    8  C   UNL     1      -9.468  13.849  66.732  1.00  0.00    -0.287 C  
HETATM    9  CA  UNL     1     -10.331  13.248  65.867  1.00  0.00    -0.292 C  
HETATM   10  S   UNL     1      -8.702  11.351  67.786  1.00  0.00    -0.141 SA 
HETATM   11  C   UNL     1     -10.419  11.172  67.240  1.00  0.00    -0.226 C  
HETATM   12  C   UNL     1     -11.000  14.063  64.777  1.00  0.00    -0.402 C  
ENDROOT
BRANCH   1  13
HETATM   13  N   UNL     1      -9.551   8.991  66.173  1.00  0.00    -0.254 N  
HETATM   14  O   UNL     1      -9.986   7.448  67.810  1.00  0.00    -0.152 OA 
HETATM   15  C   UNL     1      -9.306   7.829  66.870  1.00  0.00    -0.169 C  
HETATM   16  H   UNL     1      -8.891   9.264  65.445  1.00  0.00     0.000 HD 
BRANCH  15  17
HETATM   17  C   UNL     1      -8.099   7.018  66.378  1.00  0.00    -0.112 C  
BRANCH  17  18
HETATM   18  N   UNL     1      -7.511   6.079  67.078  1.00  0.00    -0.083 NA 
HETATM   19  H   UNL     1      -7.943   5.650  67.897  1.00  0.00     0.000 HD 
HETATM   20  O   UNL     1      -6.245   5.710  66.613  1.00  0.00    -0.029 OA 
HETATM   21  H   UNL     1      -5.819   5.030  67.121  1.00  0.00     0.000 HD 
ENDBRANCH  17  18
BRANCH  17  22
HETATM   22  C   UNL     1      -7.559   7.277  65.041  1.00  0.00    -0.107 A  
HETATM   23  S   UNL     1      -7.152   7.160  62.653  1.00  0.00    -0.071 SA 
HETATM   24  H1  UNL     1      -4.729   9.737  63.613  1.00  0.00     0.000 HD 
HETATM   25  N   UNL     1      -8.002   6.600  63.973  1.00  0.00    -0.113 NA 
HETATM   26  N   UNL     1      -6.524   8.211  64.851  1.00  0.00    -0.049 NA 
HETATM   27  H2  UNL     1      -5.128   9.051  62.056  1.00  0.00     0.000 HD 
HETATM   28  C   UNL     1      -6.214   8.262  63.581  1.00  0.00    -0.072 A  
HETATM   29  N   UNL     1      -5.285   9.083  63.063  1.00  0.00    -0.068 NA 
ENDBRANCH  17  22
ENDBRANCH  15  17
ENDBRANCH   1  13
BRANCH   8  30
HETATM   30  C   UNL     1      -9.040  15.252  66.696  1.00  0.00    -0.312 C  
HETATM   31  C   UNL     1      -9.799  16.058  69.029  1.00  0.00    -0.239 C  
HETATM   32  C   UNL     1      -9.213  16.165  67.665  1.00  0.00    -0.205 C  
HETATM   33  C   UNL     1     -10.354  17.455  69.253  1.00  0.00    -0.212 C  
HETATM   34  N   UNL     1      -9.629  18.329  68.352  1.00  0.00    -0.320 N  
HETATM   35  C   UNL     1      -8.877  17.601  67.437  1.00  0.00    -0.235 C  
HETATM   36  O   UNL     1      -8.083  18.004  66.609  1.00  0.00    -0.239 OA 
BRANCH  34  37
HETATM   37  C   UNL     1      -9.458  19.768  68.610  1.00  0.00    -0.284 C  
HETATM   38  C   UNL     1      -9.455  20.625  67.342  1.00  0.00    -0.516 C  
HETATM   39  C   UNL     1      -8.012  20.549  66.877  1.00  0.00    -0.239 C  
HETATM   40  N   UNL     1      -7.196  20.509  68.089  1.00  0.00    -0.202 NA 
HETATM   41  H   UNL     1      -6.665  21.367  68.241  1.00  0.00     0.000 HD 
HETATM   42  C   UNL     1      -8.099  20.179  69.211  1.00  0.00     0.412 C  
ENDBRANCH  34  37
ENDBRANCH   8  30
TORSDOF 6
ENDMDL
MODEL      129
REMARK 921   NORMALIZED FREE ENERGY PREDICTED BY IDOCK:   -3.36 KCAL/MOL
REMARK 922        TOTAL FREE ENERGY PREDICTED BY IDOCK:   -6.07 KCAL/MOL
REMARK 923 INTER-LIGAND FREE ENERGY PREDICTED BY IDOCK:   -6.72 KCAL/MOL
REMARK 924 INTRA-LIGAND FREE ENERGY PREDICTED BY IDOCK:    0.66 KCAL/MOL
REMARK 927      BINDING AFFINITY PREDICTED BY RF-SCORE:    0.00 PKD
ROOT
HETATM    1  CA  UNL     1      -7.173   8.699  68.650  1.00  0.00    -0.076 C  
HETATM    2  C   UNL     1      -8.787  12.302  67.575  1.00  0.00    -0.182 C  
HETATM    3  C   UNL     1      -6.351   9.620  69.628  1.00  0.00    -0.045 C  
HETATM    4  O   UNL     1      -5.668   9.531  70.621  1.00  0.00    -0.045 OA 
HETATM    5  O   UNL     1      -5.143  11.993  70.963  1.00  0.00    -0.117 OA 
HETATM    6  OXT UNL     1      -5.386  13.917  69.881  1.00  0.00    -0.092 OA 
HETATM    7  N   UNL     1      -6.820  10.725  69.014  1.00  0.00    -0.068 N  
HETATM    8  C   UNL     1      -7.709  12.846  68.506  1.00  0.00    -0.109 C  
HETATM    9  CA  UNL     1      -6.786  12.085  69.156  1.00  0.00    -0.101 C  
HETATM   10  S   UNL     1      -9.161  10.547  67.769  1.00  0.00    -0.146 SA 
HETATM   11  C   UNL     1      -7.426  10.042  67.884  1.00  0.00    -0.089 C  
HETATM   12  C   UNL     1      -5.729  12.750  70.017  1.00  0.00    -0.136 C  
ENDROOT
BRANCH   1  13
HETATM   13  N   UNL     1      -8.390   8.055  69.214  1.00  0.00    -0.133 N  
HETATM   14  O   UNL     1      -7.625   7.810  71.360  1.00  0.00    -0.076 OA 
HETATM   15  C   UNL     1      -8.521   7.700  70.538  1.00  0.00    -0.128 C  
HETATM   16  H   UNL     1      -9.170   7.865  68.585  1.00  0.00     0.000 HD 
BRANCH  15  17
HETATM   17  C   UNL     1      -9.899   7.148  70.929  1.00  0.00    -0.181 C  
BRANCH  17  18
HETATM   18  N   UNL     1     -11.029   7.783  70.731  1.00  0.00    -0.248 NA 
HETATM   19  H   UNL     1     -11.617   7.619  69.914  1.00  0.00     0.000 HD 
HETATM   20  O   UNL     1     -11.364   8.702  71.729  1.00  0.00    -0.278 OA 
HETATM   21  H   UNL     1     -12.183   9.162  71.586  1.00  0.00     0.000 HD 
ENDBRANCH  17  18
BRANCH  17  22
HETATM   22  C   UNL     1      -9.989   5.823  71.549  1.00  0.00    -0.180 A  
HETATM   23  S   UNL     1      -9.791   3.437  71.937  1.00  0.00    -0.146 SA 
HETATM   24  H1  UNL     1     -11.581   4.456  74.969  1.00  0.00     0.000 HD 
HETATM   25  N   UNL     1      -9.491   4.738  70.940  1.00  0.00    -0.154 NA 
HETATM   26  N   UNL     1     -10.647   5.648  72.780  1.00  0.00    -0.213 NA 
HETATM   27  H2  UNL     1     -11.002   2.894  74.441  1.00  0.00     0.000 HD 
HETATM   28  C   UNL     1     -10.598   4.386  73.123  1.00  0.00    -0.200 A  
HETATM   29  N   UNL     1     -11.103   3.893  74.266  1.00  0.00    -0.056 NA 
ENDBRANCH  17  22
ENDBRANCH  15  17
ENDBRANCH   1  13
BRANCH   8  30
HETATM   30  C   UNL     1      -7.848  14.305  68.592  1.00  0.00    -0.140 C  
HETATM   31  C   UNL     1     -10.391  14.579  68.235  1.00  0.00    -0.236 C  
HETATM   32  C   UNL     1      -8.982  15.009  68.450  1.00  0.00    -0.179 C  
HETATM   33  C   UNL     1     -10.968  15.746  67.451  1.00  0.00    -0.279 C  
HETATM   34  N   UNL     1     -10.119  16.885  67.736  1.00  0.00    -0.281 N  
HETATM   35  C   UNL     1      -8.959  16.500  68.397  1.00  0.00    -0.219 C  
HETATM   36  O   UNL     1      -8.081  17.197  68.867  1.00  0.00    -0.259 OA 
BRANCH  34  37
HETATM   37  C   UNL     1     -10.597  18.274  67.638  1.00  0.00    -0.405 C  
HETATM   38  C   UNL     1     -10.506  18.859  66.227  1.00  0.00    -0.510 C  
HETATM   39  C   UNL     1      -9.075  19.359  66.152  1.00  0.00    -0.284 C  
HETATM   40  N   UNL     1      -8.746  19.851  67.488  1.00  0.00    -0.328 NA 
HETATM   41  H   UNL     1      -8.659  20.867  67.530  1.00  0.00     0.000 HD 
HETATM   42  C   UNL     1      -9.769  19.319  68.412  1.00  0.00    -0.403 C  
ENDBRANCH  34  37
ENDBRANCH   8  30
TORSDOF 6
ENDMDL
MODEL      130
REMARK 921   NORMALIZED FREE ENERGY PREDICTED BY IDOCK:   -3.36 KCAL/MOL
REMARK 922        TOTAL FREE ENERGY PREDICTED BY IDOCK:   -6.06 KCAL/MOL
REMARK 923 INTER-LIGAND FREE ENERGY PREDICTED BY IDOCK:   -4.78 KCAL/MOL
REMARK 924 INTRA-LIGAND FREE ENERGY PREDICTED BY IDOCK:   -1.28 KCAL/MOL
REMARK 927      BINDING AFFINITY PREDICTED BY RF-SCORE:    0.00 PKD
ROOT
HETATM    1  CA  UNL     1      -6.402  10.884  68.177  1.00  0.00    -0.057 C  
HETATM    2  C   UNL     1      -6.857   8.250  71.273  1.00  0.00    -0.059 C  
HETATM    3  C   UNL     1      -6.197   9.546  67.372  1.00  0.00    -0.060 C  
HETATM    4  O   UNL     1      -6.193   9.149  66.230  1.00  0.00    -0.062 OA 
HETATM    5  O   UNL     1      -5.761   6.684  66.670  1.00  0.00    -0.013 OA 
HETATM    6  OXT UNL     1      -5.209   5.364  68.367  1.00  0.00    -0.003 OA 
HETATM    7  N   UNL     1      -6.156   8.839  68.519  1.00  0.00    -0.045 N  
HETATM    8  C   UNL     1      -6.444   7.232  70.216  1.00  0.00    -0.042 C  
HETATM    9  CA  UNL     1      -6.102   7.536  68.934  1.00  0.00    -0.031 C  
HETATM   10  S   UNL     1      -7.410   9.844  70.635  1.00  0.00     0.172 SA 
HETATM   11  C   UNL     1      -6.079   9.980  69.415  1.00  0.00    -0.041 C  
HETATM   12  C   UNL     1      -5.658   6.437  67.988  1.00  0.00    -0.008 C  
ENDROOT
BRANCH   1  13
HETATM   13  N   UNL     1      -7.772  11.465  68.158  1.00  0.00    -0.111 N  
HETATM   14  O   UNL     1      -7.158  13.669  68.267  1.00  0.00    -0.087 OA 
HETATM   15  C   UNL     1      -8.027  12.817  68.166  1.00  0.00    -0.156 C  
HETATM   16  H   UNL     1      -8.566  10.825  68.137  1.00  0.00     0.000 HD 
BRANCH  15  17
HETATM   17  C   UNL     1      -9.507  13.201  68.034  1.00  0.00    -0.220 C  
BRANCH  17  18
HETATM   18  N   UNL     1     -10.196  13.804  68.972  1.00  0.00    -0.430 NA 
HETATM   19  H   UNL     1     -10.775  13.298  69.643  1.00  0.00     0.000 HD 
HETATM   20  O   UNL     1     -10.076  15.197  68.981  1.00  0.00    -0.225 OA 
HETATM   21  H   UNL     1     -10.575  15.634  69.660  1.00  0.00     0.000 HD 
ENDBRANCH  17  18
BRANCH  17  22
HETATM   22  C   UNL     1     -10.216  12.901  66.787  1.00  0.00    -0.241 A  
HETATM   23  S   UNL     1     -10.703  12.170  64.527  1.00  0.00    -0.334 SA 
HETATM   24  H1  UNL     1     -13.990  13.441  65.537  1.00  0.00     0.000 HD 
HETATM   25  N   UNL     1      -9.582  12.343  65.747  1.00  0.00    -0.204 NA 
HETATM   26  N   UNL     1     -11.574  13.237  66.633  1.00  0.00    -0.347 NA 
HETATM   27  H2  UNL     1     -13.448  12.696  64.051  1.00  0.00     0.000 HD 
HETATM   28  C   UNL     1     -11.977  12.875  65.442  1.00  0.00    -0.426 A  
HETATM   29  N   UNL     1     -13.235  13.023  64.994  1.00  0.00    -0.685 NA 
ENDBRANCH  17  22
ENDBRANCH  15  17
ENDBRANCH   1  13
BRANCH   8  30
HETATM   30  C   UNL     1      -6.494   5.888  70.806  1.00  0.00    -0.040 C  
HETATM   31  C   UNL     1      -8.779   5.054  69.937  1.00  0.00    -0.122 C  
HETATM   32  C   UNL     1      -7.497   5.003  70.693  1.00  0.00    -0.069 C  
HETATM   33  C   UNL     1      -9.690   4.184  70.787  1.00  0.00    -0.196 C  
HETATM   34  N   UNL     1      -8.819   3.326  71.566  1.00  0.00    -0.081 N  
HETATM   35  C   UNL     1      -7.493   3.734  71.477  1.00  0.00    -0.052 C  
HETATM   36  O   UNL     1      -6.498   3.195  71.920  1.00  0.00    -0.014 OA 
BRANCH  34  37
HETATM   37  C   UNL     1      -9.253   2.018  72.084  1.00  0.00    -0.083 C  
HETATM   38  C   UNL     1     -10.754   1.936  72.371  1.00  0.00    -0.074 C  
HETATM   39  C   UNL     1     -10.871   2.516  73.769  1.00  0.00    -0.192 C  
HETATM   40  N   UNL     1      -9.667   2.097  74.483  1.00  0.00    -0.089 NA 
HETATM   41  H   UNL     1      -9.854   1.401  75.206  1.00  0.00     0.000 HD 
HETATM   42  C   UNL     1      -8.697   1.633  73.469  1.00  0.00    -0.058 C  
ENDBRANCH  34  37
ENDBRANCH   8  30
TORSDOF 6
ENDMDL
MODEL      131
REMARK 921   NORMALIZED FREE ENERGY PREDICTED BY IDOCK:   -3.19 KCAL/MOL
REMARK 922        TOTAL FREE ENERGY PREDICTED BY IDOCK:   -5.83 KCAL/MOL
REMARK 923 INTER-LIGAND FREE ENERGY PREDICTED BY IDOCK:   -5.72 KCAL/MOL
REMARK 924 INTRA-LIGAND FREE ENERGY PREDICTED BY IDOCK:   -0.11 KCAL/MOL
REMARK 927      BINDING AFFINITY PREDICTED BY RF-SCORE:    0.00 PKD
ROOT
HETATM    1  CA  UNL     1      -5.493   7.772  70.417  1.00  0.00    -0.023 C  
HETATM    2  C   UNL     1      -7.591   9.843  67.581  1.00  0.00    -0.091 C  
HETATM    3  C   UNL     1      -5.406   9.204  71.068  1.00  0.00    -0.033 C  
HETATM    4  O   UNL     1      -5.146   9.719  72.129  1.00  0.00    -0.074 OA 
HETATM    5  O   UNL     1      -5.546  12.148  71.499  1.00  0.00    -0.392 OA 
HETATM    6  OXT UNL     1      -5.935  13.357  69.679  1.00  0.00    -0.104 OA 
HETATM    7  N   UNL     1      -5.921   9.763  69.954  1.00  0.00    -0.041 N  
HETATM    8  C   UNL     1      -7.150  11.045  68.407  1.00  0.00    -0.074 C  
HETATM    9  CA  UNL     1      -6.350  10.982  69.508  1.00  0.00    -0.095 C  
HETATM   10  S   UNL     1      -7.468   8.247  68.414  1.00  0.00    -0.097 SA 
HETATM   11  C   UNL     1      -5.833   8.578  69.118  1.00  0.00    -0.039 C  
HETATM   12  C   UNL     1      -5.937  12.258  70.217  1.00  0.00    -0.138 C  
ENDROOT
BRANCH   1  13
HETATM   13  N   UNL     1      -6.579   6.884  70.913  1.00  0.00    -0.051 N  
HETATM   14  O   UNL     1      -7.804   8.493  71.990  1.00  0.00    -0.151 OA 
HETATM   15  C   UNL     1      -7.666   7.335  71.628  1.00  0.00    -0.087 C  
HETATM   16  H   UNL     1      -6.516   5.886  70.713  1.00  0.00     0.000 HD 
BRANCH  15  17
HETATM   17  C   UNL     1      -8.721   6.268  71.949  1.00  0.00    -0.136 C  
BRANCH  17  18
HETATM   18  N   UNL     1     -10.013   6.494  71.963  1.00  0.00    -0.170 NA 
HETATM   19  H   UNL     1     -10.634   6.190  71.213  1.00  0.00     0.000 HD 
HETATM   20  O   UNL     1     -10.472   7.183  73.089  1.00  0.00    -0.254 OA 
HETATM   21  H   UNL     1     -11.408   7.347  73.100  1.00  0.00     0.000 HD 
ENDBRANCH  17  18
BRANCH  17  22
HETATM   22  C   UNL     1      -8.290   4.899  72.243  1.00  0.00    -0.120 A  
HETATM   23  S   UNL     1      -7.875   2.808  73.399  1.00  0.00    -0.060 SA 
HETATM   24  H1  UNL     1      -6.350   2.083  70.146  1.00  0.00     0.000 HD 
HETATM   25  N   UNL     1      -8.509   4.348  73.445  1.00  0.00    -0.097 NA 
HETATM   26  N   UNL     1      -7.590   4.143  71.286  1.00  0.00    -0.058 NA 
HETATM   27  H2  UNL     1      -6.526   1.102  71.582  1.00  0.00     0.000 HD 
HETATM   28  C   UNL     1      -7.314   2.964  71.781  1.00  0.00    -0.040 A  
HETATM   29  N   UNL     1      -6.682   1.990  71.105  1.00  0.00    -0.023 NA 
ENDBRANCH  17  22
ENDBRANCH  15  17
ENDBRANCH   1  13
BRANCH   8  30
HETATM   30  C   UNL     1      -7.739  12.260  67.831  1.00  0.00    -0.133 C  
HETATM   31  C   UNL     1     -10.247  11.859  68.299  1.00  0.00    -0.207 C  
HETATM   32  C   UNL     1      -9.046  12.566  67.777  1.00  0.00    -0.191 C  
HETATM   33  C   UNL     1     -11.323  12.280  67.312  1.00  0.00    -0.328 C  
HETATM   34  N   UNL     1     -10.856  13.511  66.703  1.00  0.00    -0.282 N  
HETATM   35  C   UNL     1      -9.525  13.757  67.017  1.00  0.00    -0.255 C  
HETATM   36  O   UNL     1      -8.848  14.733  66.759  1.00  0.00    -0.246 OA 
BRANCH  34  37
HETATM   37  C   UNL     1     -11.774  14.509  66.131  1.00  0.00    -0.350 C  
HETATM   38  C   UNL     1     -13.133  13.936  65.726  1.00  0.00    -0.139 C  
HETATM   39  C   UNL     1     -12.877  13.389  64.333  1.00  0.00     0.057 C  
HETATM   40  N   UNL     1     -11.924  14.303  63.708  1.00  0.00    -0.802 NA 
HETATM   41  H   UNL     1     -12.336  14.862  62.960  1.00  0.00     0.000 HD 
HETATM   42  C   UNL     1     -11.334  15.123  64.787  1.00  0.00    -0.395 C  
ENDBRANCH  34  37
ENDBRANCH   8  30
TORSDOF 6
ENDMDL
MODEL      132
REMARK 921   NORMALIZED FREE ENERGY PREDICTED BY IDOCK:   -3.10 KCAL/MOL
REMARK 922        TOTAL FREE ENERGY PREDICTED BY IDOCK:   -5.71 KCAL/MOL
REMARK 923 INTER-LIGAND FREE ENERGY PREDICTED BY IDOCK:   -6.53 KCAL/MOL
REMARK 924 INTRA-LIGAND FREE ENERGY PREDICTED BY IDOCK:    0.82 KCAL/MOL
REMARK 927      BINDING AFFINITY PREDICTED BY RF-SCORE:    0.00 PKD
ROOT
HETATM    1  CA  UNL     1      -7.778   8.643  65.057  1.00  0.00    -0.103 C  
HETATM    2  C   UNL     1     -10.934   9.128  67.615  1.00  0.00     0.046 C  
HETATM    3  C   UNL     1      -7.231   9.880  65.864  1.00  0.00    -0.108 C  
HETATM    4  O   UNL     1      -6.192  10.465  66.061  1.00  0.00    -0.090 OA 
HETATM    5  O   UNL     1      -7.035  12.233  67.680  1.00  0.00    -0.102 OA 
HETATM    6  OXT UNL     1      -8.967  12.987  68.469  1.00  0.00    -0.152 OA 
HETATM    7  N   UNL     1      -8.425  10.036  66.473  1.00  0.00    -0.125 N  
HETATM    8  C   UNL     1     -10.164  10.379  68.023  1.00  0.00    -0.199 C  
HETATM    9  CA  UNL     1      -8.997  10.793  67.458  1.00  0.00    -0.132 C  
HETATM   10  S   UNL     1      -9.977   7.892  66.714  1.00  0.00    -0.256 SA 
HETATM   11  C   UNL     1      -9.159   9.099  65.640  1.00  0.00    -0.219 C  
HETATM   12  C   UNL     1      -8.351  12.087  67.916  1.00  0.00    -0.155 C  
ENDROOT
BRANCH   1  13
HETATM   13  N   UNL     1      -7.314   7.302  65.506  1.00  0.00    -0.072 N  
HETATM   14  O   UNL     1      -6.462   7.950  67.532  1.00  0.00    -0.053 OA 
HETATM   15  C   UNL     1      -6.728   7.069  66.729  1.00  0.00    -0.060 C  
HETATM   16  H   UNL     1      -7.438   6.512  64.873  1.00  0.00     0.000 HD 
BRANCH  15  17
HETATM   17  C   UNL     1      -6.423   5.596  67.034  1.00  0.00    -0.044 C  
BRANCH  17  18
HETATM   18  N   UNL     1      -6.178   4.691  66.117  1.00  0.00    -0.031 NA 
HETATM   19  H   UNL     1      -6.502   4.782  65.153  1.00  0.00     0.000 HD 
HETATM   20  O   UNL     1      -5.438   3.592  66.563  1.00  0.00    -0.016 OA 
HETATM   21  H   UNL     1      -5.261   2.937  65.898  1.00  0.00     0.000 HD 
ENDBRANCH  17  18
BRANCH  17  22
HETATM   22  C   UNL     1      -6.379   5.146  68.428  1.00  0.00    -0.036 A  
HETATM   23  S   UNL     1      -5.601   4.654  70.671  1.00  0.00    -0.016 SA 
HETATM   24  H1  UNL     1      -9.026   3.360  70.857  1.00  0.00     0.000 HD 
HETATM   25  N   UNL     1      -5.268   5.282  69.164  1.00  0.00     0.000 NA 
HETATM   26  N   UNL     1      -7.491   4.515  69.016  1.00  0.00    -0.056 NA 
HETATM   27  H2  UNL     1      -7.754   3.436  72.054  1.00  0.00     0.000 HD 
HETATM   28  C   UNL     1      -7.209   4.207  70.255  1.00  0.00    -0.042 A  
HETATM   29  N   UNL     1      -8.072   3.624  71.104  1.00  0.00    -0.065 NA 
ENDBRANCH  17  22
ENDBRANCH  15  17
ENDBRANCH   1  13
BRANCH   8  30
HETATM   30  C   UNL     1     -10.879  11.039  69.122  1.00  0.00    -0.283 C  
HETATM   31  C   UNL     1     -12.004  12.998  67.870  1.00  0.00    -0.338 C  
HETATM   32  C   UNL     1     -11.625  12.152  69.035  1.00  0.00    -0.374 C  
HETATM   33  C   UNL     1     -12.160  14.370  68.505  1.00  0.00    -0.243 C  
HETATM   34  N   UNL     1     -12.399  14.139  69.916  1.00  0.00    -0.346 N  
HETATM   35  C   UNL     1     -12.164  12.813  70.259  1.00  0.00    -0.277 C  
HETATM   36  O   UNL     1     -12.355  12.254  71.322  1.00  0.00    -0.247 OA 
BRANCH  34  37
HETATM   37  C   UNL     1     -13.118  15.102  70.765  1.00  0.00    -0.397 C  
HETATM   38  C   UNL     1     -12.197  16.012  71.581  1.00  0.00    -0.514 C  
HETATM   39  C   UNL     1     -11.886  15.177  72.810  1.00  0.00    -0.359 C  
HETATM   40  N   UNL     1     -13.101  14.421  73.105  1.00  0.00    -0.585 NA 
HETATM   41  H   UNL     1     -13.574  14.738  73.952  1.00  0.00     0.000 HD 
HETATM   42  C   UNL     1     -13.959  14.489  71.903  1.00  0.00    -0.481 C  
ENDBRANCH  34  37
ENDBRANCH   8  30
TORSDOF 6
ENDMDL
MODEL      133
REMARK 921   NORMALIZED FREE ENERGY PREDICTED BY IDOCK:   -2.99 KCAL/MOL
REMARK 922        TOTAL FREE ENERGY PREDICTED BY IDOCK:   -5.57 KCAL/MOL
REMARK 923 INTER-LIGAND FREE ENERGY PREDICTED BY IDOCK:   -4.40 KCAL/MOL
REMARK 924 INTRA-LIGAND FREE ENERGY PREDICTED BY IDOCK:   -1.16 KCAL/MOL
REMARK 927      BINDING AFFINITY PREDICTED BY RF-SCORE:    0.00 PKD
ROOT
HETATM    1  CA  UNL     1      -8.409  10.594  65.588  1.00  0.00    -0.162 C  
HETATM    2  C   UNL     1      -6.143   7.327  66.551  1.00  0.00    -0.039 C  
HETATM    3  C   UNL     1      -9.520   9.752  66.321  1.00  0.00    -0.195 C  
HETATM    4  O   UNL     1     -10.614   9.900  66.812  1.00  0.00    -0.208 OA 
HETATM    5  O   UNL     1     -11.005   7.526  67.631  1.00  0.00    -0.148 OA 
HETATM    6  OXT UNL     1     -10.072   5.521  67.441  1.00  0.00    -0.148 OA 
HETATM    7  N   UNL     1      -8.705   8.679  66.366  1.00  0.00    -0.124 N  
HETATM    8  C   UNL     1      -7.485   6.770  67.010  1.00  0.00    -0.087 C  
HETATM    9  CA  UNL     1      -8.677   7.418  66.896  1.00  0.00    -0.126 C  
HETATM   10  S   UNL     1      -6.084   9.117  66.333  1.00  0.00    -0.064 SA 
HETATM   11  C   UNL     1      -7.681   9.211  65.484  1.00  0.00    -0.094 C  
HETATM   12  C   UNL     1      -9.955   6.735  67.344  1.00  0.00    -0.148 C  
ENDROOT
BRANCH   1  13
HETATM   13  N   UNL     1      -7.707  11.618  66.408  1.00  0.00    -0.376 N  
HETATM   14  O   UNL     1      -9.509  12.983  66.780  1.00  0.00    -0.238 OA 
HETATM   15  C   UNL     1      -8.334  12.709  66.967  1.00  0.00    -0.130 C  
HETATM   16  H   UNL     1      -6.706  11.506  66.566  1.00  0.00     0.000 HD 
BRANCH  15  17
HETATM   17  C   UNL     1      -7.445  13.581  67.864  1.00  0.00    -0.153 C  
BRANCH  17  18
HETATM   18  N   UNL     1      -6.588  13.105  68.734  1.00  0.00    -0.090 NA 
HETATM   19  H   UNL     1      -5.846  13.673  69.144  1.00  0.00     0.000 HD 
HETATM   20  O   UNL     1      -6.772  11.757  69.058  1.00  0.00    -0.087 OA 
HETATM   21  H   UNL     1      -6.150  11.413  69.688  1.00  0.00     0.000 HD 
ENDBRANCH  17  18
BRANCH  17  22
HETATM   22  C   UNL     1      -7.525  15.040  67.751  1.00  0.00    -0.159 A  
HETATM   23  S   UNL     1      -7.057  17.336  67.127  1.00  0.00    -0.189 SA 
HETATM   24  H1  UNL     1      -9.926  17.825  69.355  1.00  0.00     0.000 HD 
HETATM   25  N   UNL     1      -6.655  15.724  66.996  1.00  0.00    -0.285 NA 
HETATM   26  N   UNL     1      -8.490  15.766  68.473  1.00  0.00    -0.173 NA 
HETATM   27  H2  UNL     1      -8.972  18.965  68.435  1.00  0.00     0.000 HD 
HETATM   28  C   UNL     1      -8.360  17.041  68.210  1.00  0.00    -0.228 A  
HETATM   29  N   UNL     1      -9.153  18.001  68.713  1.00  0.00    -0.260 NA 
ENDBRANCH  17  22
ENDBRANCH  15  17
ENDBRANCH   1  13
BRANCH   8  30
HETATM   30  C   UNL     1      -7.271   5.443  67.602  1.00  0.00    -0.072 C  
HETATM   31  C   UNL     1      -7.332   6.012  70.120  1.00  0.00    -0.078 C  
HETATM   32  C   UNL     1      -7.187   5.156  68.911  1.00  0.00    -0.061 C  
HETATM   33  C   UNL     1      -6.429   5.311  71.122  1.00  0.00    -0.035 C  
HETATM   34  N   UNL     1      -6.297   3.943  70.660  1.00  0.00    -0.025 N  
HETATM   35  C   UNL     1      -6.804   3.791  69.375  1.00  0.00    -0.042 C  
HETATM   36  O   UNL     1      -6.941   2.773  68.724  1.00  0.00    -0.043 OA 
BRANCH  34  37
HETATM   37  C   UNL     1      -5.985   2.827  71.568  1.00  0.00    -0.014 C  
HETATM   38  C   UNL     1      -7.211   2.017  71.992  1.00  0.00    -0.038 C  
HETATM   39  C   UNL     1      -7.757   2.806  73.168  1.00  0.00    -0.051 C  
HETATM   40  N   UNL     1      -6.595   3.347  73.869  1.00  0.00    -0.033 NA 
HETATM   41  H   UNL     1      -6.434   2.906  74.774  1.00  0.00     0.000 HD 
HETATM   42  C   UNL     1      -5.441   3.229  72.953  1.00  0.00     0.000 C  
ENDBRANCH  34  37
ENDBRANCH   8  30
TORSDOF 6
ENDMDL
MODEL      134
REMARK 921   NORMALIZED FREE ENERGY PREDICTED BY IDOCK:   -2.58 KCAL/MOL
REMARK 922        TOTAL FREE ENERGY PREDICTED BY IDOCK:   -5.01 KCAL/MOL
REMARK 923 INTER-LIGAND FREE ENERGY PREDICTED BY IDOCK:   -5.47 KCAL/MOL
REMARK 924 INTRA-LIGAND FREE ENERGY PREDICTED BY IDOCK:    0.46 KCAL/MOL
REMARK 927      BINDING AFFINITY PREDICTED BY RF-SCORE:    0.00 PKD
ROOT
HETATM    1  CA  UNL     1      -9.603  13.022  68.890  1.00  0.00     0.229 C  
HETATM    2  C   UNL     1     -11.067   9.433  67.582  1.00  0.00     0.117 C  
HETATM    3  C   UNL     1      -8.244  12.230  68.826  1.00  0.00     0.081 C  
HETATM    4  O   UNL     1      -7.054  12.441  68.820  1.00  0.00    -0.097 OA 
HETATM    5  O   UNL     1      -6.228  10.047  68.612  1.00  0.00    -0.045 OA 
HETATM    6  OXT UNL     1      -7.048   7.986  68.699  1.00  0.00    -0.068 OA 
HETATM    7  N   UNL     1      -8.904  11.075  68.609  1.00  0.00    -0.162 N  
HETATM    8  C   UNL     1      -9.630   8.980  67.815  1.00  0.00    -0.178 C  
HETATM    9  CA  UNL     1      -8.638   9.765  68.316  1.00  0.00    -0.119 C  
HETATM   10  S   UNL     1     -11.305  11.219  67.479  1.00  0.00    -0.250 SA 
HETATM   11  C   UNL     1     -10.234  11.588  68.891  1.00  0.00    -0.149 C  
HETATM   12  C   UNL     1      -7.257   9.182  68.552  1.00  0.00    -0.073 C  
ENDROOT
BRANCH   1  13
HETATM   13  N   UNL     1      -9.937  13.859  67.706  1.00  0.00    -0.236 N  
HETATM   14  O   UNL     1      -8.537  12.830  66.214  1.00  0.00     0.101 OA 
HETATM   15  C   UNL     1      -9.398  13.661  66.455  1.00  0.00    -0.228 C  
HETATM   16  H   UNL     1     -10.603  14.623  67.828  1.00  0.00     0.000 HD 
BRANCH  15  17
HETATM   17  C   UNL     1      -9.961  14.569  65.353  1.00  0.00    -0.318 C  
BRANCH  17  18
HETATM   18  N   UNL     1     -10.473  14.129  64.229  1.00  0.00    -0.538 NA 
HETATM   19  H   UNL     1     -11.356  14.475  63.854  1.00  0.00     0.000 HD 
HETATM   20  O   UNL     1      -9.712  13.149  63.585  1.00  0.00    -0.541 OA 
HETATM   21  H   UNL     1     -10.084  12.830  62.771  1.00  0.00     0.000 HD 
ENDBRANCH  17  18
BRANCH  17  22
HETATM   22  C   UNL     1      -9.955  16.021  65.549  1.00  0.00    -0.247 A  
HETATM   23  S   UNL     1     -10.634  18.349  65.581  1.00  0.00     0.152 SA 
HETATM   24  H1  UNL     1      -7.223  18.634  66.893  1.00  0.00     0.000 HD 
HETATM   25  N   UNL     1     -11.022  16.767  65.231  1.00  0.00    -0.392 NA 
HETATM   26  N   UNL     1      -8.808  16.678  66.030  1.00  0.00    -0.484 NA 
HETATM   27  H2  UNL     1      -8.455  19.841  66.611  1.00  0.00     0.000 HD 
HETATM   28  C   UNL     1      -9.046  17.961  66.116  1.00  0.00    -0.097 A  
HETATM   29  N   UNL     1      -8.165  18.865  66.576  1.00  0.00    -0.288 NA 
ENDBRANCH  17  22
ENDBRANCH  15  17
ENDBRANCH   1  13
BRANCH   8  30
HETATM   30  C   UNL     1      -9.501   7.578  67.399  1.00  0.00    -0.173 C  
HETATM   31  C   UNL     1      -8.009   7.822  65.305  1.00  0.00    -0.127 C  
HETATM   32  C   UNL     1      -8.834   7.121  66.327  1.00  0.00    -0.166 C  
HETATM   33  C   UNL     1      -8.200   6.945  64.079  1.00  0.00     0.075 C  
HETATM   34  N   UNL     1      -8.603   5.642  64.571  1.00  0.00    -0.067 N  
HETATM   35  C   UNL     1      -8.918   5.687  65.924  1.00  0.00    -0.155 C  
HETATM   36  O   UNL     1      -9.198   4.771  66.673  1.00  0.00    -0.120 OA 
BRANCH  34  37
HETATM   37  C   UNL     1      -8.371   4.402  63.812  1.00  0.00    -0.105 C  
HETATM   38  C   UNL     1      -9.383   4.169  62.689  1.00  0.00    -0.125 C  
HETATM   39  C   UNL     1     -10.544   3.501  63.402  1.00  0.00    -0.255 C  
HETATM   40  N   UNL     1      -9.953   2.658  64.439  1.00  0.00    -0.325 NA 
HETATM   41  H   UNL     1     -10.042   1.661  64.242  1.00  0.00     0.000 HD 
HETATM   42  C   UNL     1      -8.550   3.093  64.606  1.00  0.00    -0.099 C  
ENDBRANCH  34  37
ENDBRANCH   8  30
TORSDOF 6
ENDMDL
MODEL      135
REMARK 921   NORMALIZED FREE ENERGY PREDICTED BY IDOCK:   -2.55 KCAL/MOL
REMARK 922        TOTAL FREE ENERGY PREDICTED BY IDOCK:   -4.97 KCAL/MOL
REMARK 923 INTER-LIGAND FREE ENERGY PREDICTED BY IDOCK:   -4.07 KCAL/MOL
REMARK 924 INTRA-LIGAND FREE ENERGY PREDICTED BY IDOCK:   -0.90 KCAL/MOL
REMARK 927      BINDING AFFINITY PREDICTED BY RF-SCORE:    0.00 PKD
ROOT
HETATM    1  CA  UNL     1     -11.016  11.388  69.471  1.00  0.00    -0.166 C  
HETATM    2  C   UNL     1      -8.858  14.842  69.077  1.00  0.00    -0.136 C  
HETATM    3  C   UNL     1     -11.535  11.823  68.049  1.00  0.00    -0.319 C  
HETATM    4  O   UNL     1     -12.113  11.355  67.096  1.00  0.00    -0.390 OA 
HETATM    5  O   UNL     1     -12.111  13.399  65.587  1.00  0.00    -0.383 OA 
HETATM    6  OXT UNL     1     -11.615  15.559  65.706  1.00  0.00    -0.039 OA 
HETATM    7  N   UNL     1     -10.929  13.021  68.172  1.00  0.00    -0.234 N  
HETATM    8  C   UNL     1      -9.704  15.001  67.820  1.00  0.00    -0.215 C  
HETATM    9  CA  UNL     1     -10.683  14.141  67.426  1.00  0.00    -0.284 C  
HETATM   10  S   UNL     1      -8.812  13.176  69.771  1.00  0.00     2.739 SA 
HETATM   11  C   UNL     1     -10.590  12.893  69.578  1.00  0.00     0.433 C  
HETATM   12  C   UNL     1     -11.494  14.437  66.178  1.00  0.00    -0.357 C  
ENDROOT
BRANCH   1  13
HETATM   13  N   UNL     1      -9.895  10.411  69.495  1.00  0.00    -0.335 N  
HETATM   14  O   UNL     1     -11.106   8.591  70.181  1.00  0.00    -0.248 OA 
HETATM   15  C   UNL     1     -10.049   9.081  69.814  1.00  0.00    -0.200 C  
HETATM   16  H   UNL     1      -8.959  10.744  69.264  1.00  0.00     0.000 HD 
BRANCH  15  17
HETATM   17  C   UNL     1      -8.782   8.227  69.674  1.00  0.00    -0.138 C  
BRANCH  17  18
HETATM   18  N   UNL     1      -8.693   7.162  68.913  1.00  0.00    -0.128 NA 
HETATM   19  H   UNL     1      -7.999   6.430  69.069  1.00  0.00     0.000 HD 
HETATM   20  O   UNL     1      -9.625   7.109  67.872  1.00  0.00    -0.132 OA 
HETATM   21  H   UNL     1      -9.560   6.338  67.321  1.00  0.00     0.000 HD 
ENDBRANCH  17  18
BRANCH  17  22
HETATM   22  C   UNL     1      -7.574   8.610  70.410  1.00  0.00    -0.075 A  
HETATM   23  S   UNL     1      -5.516   8.497  71.688  1.00  0.00    -0.041 SA 
HETATM   24  H1  UNL     1      -5.944  12.129  71.439  1.00  0.00     0.000 HD 
HETATM   25  N   UNL     1      -6.755   7.684  70.926  1.00  0.00    -0.042 NA 
HETATM   26  N   UNL     1      -7.269   9.965  70.637  1.00  0.00    -0.311 NA 
HETATM   27  H2  UNL     1      -4.690  11.163  72.180  1.00  0.00     0.000 HD 
HETATM   28  C   UNL     1      -6.152  10.050  71.313  1.00  0.00     0.077 A  
HETATM   29  N   UNL     1      -5.567  11.208  71.661  1.00  0.00    -0.330 NA 
ENDBRANCH  17  22
ENDBRANCH  15  17
ENDBRANCH   1  13
BRANCH   8  30
HETATM   30  C   UNL     1      -9.276  16.214  67.111  1.00  0.00    -0.220 C  
HETATM   31  C   UNL     1      -6.722  15.846  67.004  1.00  0.00    -0.083 C  
HETATM   32  C   UNL     1      -8.015  16.556  66.802  1.00  0.00    -0.290 C  
HETATM   33  C   UNL     1      -5.741  16.998  67.145  1.00  0.00    -0.160 C  
HETATM   34  N   UNL     1      -6.366  18.143  66.513  1.00  0.00    -0.183 N  
HETATM   35  C   UNL     1      -7.703  17.895  66.224  1.00  0.00    -0.266 C  
HETATM   36  O   UNL     1      -8.493  18.590  65.615  1.00  0.00    -0.348 OA 
BRANCH  34  37
HETATM   37  C   UNL     1      -5.589  19.262  65.956  1.00  0.00    -0.155 C  
HETATM   38  C   UNL     1      -5.317  20.383  66.962  1.00  0.00    -0.188 C  
HETATM   39  C   UNL     1      -6.573  21.231  66.883  1.00  0.00    -0.272 C  
HETATM   40  N   UNL     1      -7.004  21.190  65.487  1.00  0.00    -0.368 NA 
HETATM   41  H   UNL     1      -6.875  22.078  65.003  1.00  0.00     0.000 HD 
HETATM   42  C   UNL     1      -6.288  20.069  64.843  1.00  0.00    -0.282 C  
ENDBRANCH  34  37
ENDBRANCH   8  30
TORSDOF 6
ENDMDL
MODEL      136
REMARK 921   NORMALIZED FREE ENERGY PREDICTED BY IDOCK:   -2.51 KCAL/MOL
REMARK 922        TOTAL FREE ENERGY PREDICTED BY IDOCK:   -4.91 KCAL/MOL
REMARK 923 INTER-LIGAND FREE ENERGY PREDICTED BY IDOCK:   -3.98 KCAL/MOL
REMARK 924 INTRA-LIGAND FREE ENERGY PREDICTED BY IDOCK:   -0.93 KCAL/MOL
REMARK 927      BINDING AFFINITY PREDICTED BY RF-SCORE:    0.00 PKD
ROOT
HETATM    1  CA  UNL     1      -8.668   9.066  65.363  1.00  0.00    -0.189 C  
HETATM    2  C   UNL     1      -5.881   6.674  67.165  1.00  0.00    -0.014 C  
HETATM    3  C   UNL     1      -9.650   8.024  66.020  1.00  0.00    -0.002 C  
HETATM    4  O   UNL     1     -10.821   7.909  66.296  1.00  0.00     0.572 OA 
HETATM    5  O   UNL     1     -10.747   5.615  67.385  1.00  0.00    -0.248 OA 
HETATM    6  OXT UNL     1      -9.313   3.941  67.655  1.00  0.00    -0.160 OA 
HETATM    7  N   UNL     1      -8.613   7.232  66.360  1.00  0.00    -0.131 N  
HETATM    8  C   UNL     1      -7.100   5.813  67.475  1.00  0.00    -0.074 C  
HETATM    9  CA  UNL     1      -8.370   6.088  67.069  1.00  0.00    -0.105 C  
HETATM   10  S   UNL     1      -6.239   8.379  66.694  1.00  0.00    -0.055 SA 
HETATM   11  C   UNL     1      -7.604   7.938  65.589  1.00  0.00    -0.084 C  
HETATM   12  C   UNL     1      -9.494   5.124  67.397  1.00  0.00    -0.132 C  
ENDROOT
BRANCH   1  13
HETATM   13  N   UNL     1      -8.429  10.322  66.125  1.00  0.00    -0.137 N  
HETATM   14  O   UNL     1     -10.430  11.334  65.656  1.00  0.00    -0.253 OA 
HETATM   15  C   UNL     1      -9.355  11.335  66.235  1.00  0.00    -0.207 C  
HETATM   16  H   UNL     1      -7.530  10.439  66.591  1.00  0.00     0.000 HD 
BRANCH  15  17
HETATM   17  C   UNL     1      -8.946  12.492  67.156  1.00  0.00    -0.200 C  
BRANCH  17  18
HETATM   18  N   UNL     1      -7.742  13.010  67.194  1.00  0.00    -0.369 NA 
HETATM   19  H   UNL     1      -6.926  12.484  67.509  1.00  0.00     0.000 HD 
HETATM   20  O   UNL     1      -7.664  14.340  66.771  1.00  0.00    -0.273 OA 
HETATM   21  H   UNL     1      -6.791  14.715  66.799  1.00  0.00     0.000 HD 
ENDBRANCH  17  18
BRANCH  17  22
HETATM   22  C   UNL     1      -9.946  13.088  68.046  1.00  0.00    -0.233 A  
HETATM   23  S   UNL     1     -11.908  13.392  69.438  1.00  0.00    -0.330 SA 
HETATM   24  H1  UNL     1     -10.393  16.721  69.689  1.00  0.00     0.000 HD 
HETATM   25  N   UNL     1     -11.007  12.384  68.464  1.00  0.00    -0.232 NA 
HETATM   26  N   UNL     1      -9.843  14.433  68.446  1.00  0.00    -0.228 NA 
HETATM   27  H2  UNL     1     -11.835  16.052  70.416  1.00  0.00     0.000 HD 
HETATM   28  C   UNL     1     -10.847  14.730  69.230  1.00  0.00    -0.264 A  
HETATM   29  N   UNL     1     -11.022  15.928  69.813  1.00  0.00    -0.298 NA 
ENDBRANCH  17  22
ENDBRANCH  15  17
ENDBRANCH   1  13
BRANCH   8  30
HETATM   30  C   UNL     1      -6.677   4.665  68.286  1.00  0.00    -0.050 C  
HETATM   31  C   UNL     1      -7.254   5.500  70.660  1.00  0.00    -0.073 C  
HETATM   32  C   UNL     1      -6.730   4.569  69.624  1.00  0.00    -0.041 C  
HETATM   33  C   UNL     1      -6.378   5.175  71.859  1.00  0.00    -0.035 C  
HETATM   34  N   UNL     1      -5.861   3.839  71.633  1.00  0.00    -0.012 N  
HETATM   35  C   UNL     1      -6.115   3.410  70.335  1.00  0.00    -0.019 C  
HETATM   36  O   UNL     1      -5.910   2.320  69.838  1.00  0.00    -0.020 OA 
BRANCH  34  37
HETATM   37  C   UNL     1      -5.441   2.956  72.733  1.00  0.00     0.000 C  
HETATM   38  C   UNL     1      -6.192   1.623  72.773  1.00  0.00    -0.009 C  
HETATM   39  C   UNL     1      -7.455   1.961  73.543  1.00  0.00    -0.033 C  
HETATM   40  N   UNL     1      -7.067   2.949  74.547  1.00  0.00    -0.040 NA 
HETATM   41  H   UNL     1      -7.085   2.580  75.498  1.00  0.00     0.000 HD 
HETATM   42  C   UNL     1      -5.743   3.473  74.153  1.00  0.00    -0.004 C  
ENDBRANCH  34  37
ENDBRANCH   8  30
TORSDOF 6
ENDMDL
MODEL      137
REMARK 921   NORMALIZED FREE ENERGY PREDICTED BY IDOCK:   -2.30 KCAL/MOL
REMARK 922        TOTAL FREE ENERGY PREDICTED BY IDOCK:   -4.63 KCAL/MOL
REMARK 923 INTER-LIGAND FREE ENERGY PREDICTED BY IDOCK:   -5.52 KCAL/MOL
REMARK 924 INTRA-LIGAND FREE ENERGY PREDICTED BY IDOCK:    0.89 KCAL/MOL
REMARK 927      BINDING AFFINITY PREDICTED BY RF-SCORE:    0.00 PKD
ROOT
HETATM    1  CA  UNL     1      -6.687   7.086  63.359  1.00  0.00    -0.044 C  
HETATM    2  C   UNL     1      -7.246   6.975  67.411  1.00  0.00    -0.090 C  
HETATM    3  C   UNL     1      -7.890   6.070  63.398  1.00  0.00    -0.107 C  
HETATM    4  O   UNL     1      -8.715   5.591  62.656  1.00  0.00    -0.086 OA 
HETATM    5  O   UNL     1      -9.968   4.152  64.334  1.00  0.00    -0.177 OA 
HETATM    6  OXT UNL     1      -9.758   3.477  66.439  1.00  0.00    -0.143 OA 
HETATM    7  N   UNL     1      -7.799   5.982  64.740  1.00  0.00    -0.105 N  
HETATM    8  C   UNL     1      -8.238   5.875  67.052  1.00  0.00    -0.105 C  
HETATM    9  CA  UNL     1      -8.466   5.414  65.791  1.00  0.00    -0.131 C  
HETATM   10  S   UNL     1      -6.754   8.048  66.045  1.00  0.00    -0.053 SA 
HETATM   11  C   UNL     1      -6.537   6.689  64.868  1.00  0.00    -0.042 C  
HETATM   12  C   UNL     1      -9.443   4.276  65.567  1.00  0.00    -0.176 C  
ENDROOT
BRANCH   1  13
HETATM   13  N   UNL     1      -7.034   8.512  63.113  1.00  0.00    -0.090 N  
HETATM   14  O   UNL     1      -9.261   8.367  63.627  1.00  0.00     0.765 OA 
HETATM   15  C   UNL     1      -8.292   9.036  63.307  1.00  0.00    -0.189 C  
HETATM   16  H   UNL     1      -6.298   9.136  62.781  1.00  0.00     0.000 HD 
BRANCH  15  17
HETATM   17  C   UNL     1      -8.404  10.552  63.096  1.00  0.00    -0.146 C  
BRANCH  17  18
HETATM   18  N   UNL     1      -7.580  11.254  62.357  1.00  0.00    -0.433 NA 
HETATM   19  H   UNL     1      -7.893  11.826  61.572  1.00  0.00     0.000 HD 
HETATM   20  O   UNL     1      -6.236  11.158  62.730  1.00  0.00    -0.352 OA 
HETATM   21  H   UNL     1      -5.638  11.667  62.194  1.00  0.00     0.000 HD 
ENDBRANCH  17  18
BRANCH  17  22
HETATM   22  C   UNL     1      -9.502  11.285  63.733  1.00  0.00    -0.204 A  
HETATM   23  S   UNL     1     -10.972  12.246  65.405  1.00  0.00    -0.311 SA 
HETATM   24  H1  UNL     1     -12.654  13.337  62.337  1.00  0.00     0.000 HD 
HETATM   25  N   UNL     1      -9.610  11.347  65.067  1.00  0.00    -0.232 NA 
HETATM   26  N   UNL     1     -10.501  11.902  62.958  1.00  0.00    -0.251 NA 
HETATM   27  H2  UNL     1     -13.029  13.619  64.020  1.00  0.00     0.000 HD 
HETATM   28  C   UNL     1     -11.365  12.485  63.748  1.00  0.00    -0.466 A  
HETATM   29  N   UNL     1     -12.422  13.195  63.319  1.00  0.00    -0.709 NA 
ENDBRANCH  17  22
ENDBRANCH  15  17
ENDBRANCH   1  13
BRANCH   8  30
HETATM   30  C   UNL     1      -8.905   5.418  68.277  1.00  0.00    -0.105 C  
HETATM   31  C   UNL     1      -8.727   7.532  69.751  1.00  0.00    -0.140 C  
HETATM   32  C   UNL     1      -9.075   6.126  69.405  1.00  0.00    -0.135 C  
HETATM   33  C   UNL     1      -8.487   7.445  71.249  1.00  0.00    -0.114 C  
HETATM   34  N   UNL     1      -9.193   6.264  71.705  1.00  0.00    -0.144 N  
HETATM   35  C   UNL     1      -9.626   5.488  70.636  1.00  0.00    -0.170 C  
HETATM   36  O   UNL     1     -10.323   4.492  70.649  1.00  0.00    -0.150 OA 
BRANCH  34  37
HETATM   37  C   UNL     1      -9.669   6.111  73.090  1.00  0.00    -0.158 C  
HETATM   38  C   UNL     1      -8.829   6.873  74.117  1.00  0.00    -0.203 C  
HETATM   39  C   UNL     1      -7.691   5.913  74.414  1.00  0.00    -0.097 C  
HETATM   40  N   UNL     1      -8.266   4.571  74.354  1.00  0.00    -0.094 NA 
HETATM   41  H   UNL     1      -8.330   4.122  75.268  1.00  0.00     0.000 HD 
HETATM   42  C   UNL     1      -9.572   4.687  73.673  1.00  0.00    -0.127 C  
ENDBRANCH  34  37
ENDBRANCH   8  30
TORSDOF 6
ENDMDL
MODEL      138
REMARK 921   NORMALIZED FREE ENERGY PREDICTED BY IDOCK:   -2.26 KCAL/MOL
REMARK 922        TOTAL FREE ENERGY PREDICTED BY IDOCK:   -4.57 KCAL/MOL
REMARK 923 INTER-LIGAND FREE ENERGY PREDICTED BY IDOCK:   -3.97 KCAL/MOL
REMARK 924 INTRA-LIGAND FREE ENERGY PREDICTED BY IDOCK:   -0.60 KCAL/MOL
REMARK 927      BINDING AFFINITY PREDICTED BY RF-SCORE:    0.00 PKD
ROOT
HETATM    1  CA  UNL     1      -6.662  10.860  68.217  1.00  0.00    -0.063 C  
HETATM    2  C   UNL     1      -7.032   8.342  71.420  1.00  0.00    -0.072 C  
HETATM    3  C   UNL     1      -6.510   9.492  67.452  1.00  0.00    -0.069 C  
HETATM    4  O   UNL     1      -6.557   9.055  66.326  1.00  0.00    -0.065 OA 
HETATM    5  O   UNL     1      -6.143   6.601  66.836  1.00  0.00    -0.032 OA 
HETATM    6  OXT UNL     1      -5.543   5.332  68.555  1.00  0.00    -0.013 OA 
HETATM    7  N   UNL     1      -6.433   8.824  68.622  1.00  0.00    -0.053 N  
HETATM    8  C   UNL     1      -6.676   7.282  70.385  1.00  0.00    -0.052 C  
HETATM    9  CA  UNL     1      -6.381   7.536  69.080  1.00  0.00    -0.035 C  
HETATM   10  S   UNL     1      -7.587   9.923  70.749  1.00  0.00     0.495 SA 
HETATM   11  C   UNL     1      -6.304   9.994  69.473  1.00  0.00    -0.049 C  
HETATM   12  C   UNL     1      -5.991   6.398  68.157  1.00  0.00    -0.016 C  
ENDROOT
BRANCH   1  13
HETATM   13  N   UNL     1      -8.023  11.461  68.231  1.00  0.00    -0.128 N  
HETATM   14  O   UNL     1      -7.457  13.493  67.336  1.00  0.00    -0.168 OA 
HETATM   15  C   UNL     1      -8.306  12.720  67.750  1.00  0.00    -0.177 C  
HETATM   16  H   UNL     1      -8.789  10.911  68.619  1.00  0.00     0.000 HD 
BRANCH  15  17
HETATM   17  C   UNL     1      -9.793  13.101  67.763  1.00  0.00    -0.228 C  
BRANCH  17  18
HETATM   18  N   UNL     1     -10.712  12.501  67.046  1.00  0.00    -0.239 NA 
HETATM   19  H   UNL     1     -10.665  12.443  66.028  1.00  0.00     0.000 HD 
HETATM   20  O   UNL     1     -11.761  11.947  67.786  1.00  0.00    -0.439 OA 
HETATM   21  H   UNL     1     -12.426  11.513  67.266  1.00  0.00     0.000 HD 
ENDBRANCH  17  18
BRANCH  17  22
HETATM   22  C   UNL     1     -10.246  14.189  68.634  1.00  0.00    -0.238 A  
HETATM   23  S   UNL     1     -10.432  16.346  69.727  1.00  0.00    -0.194 SA 
HETATM   24  H1  UNL     1     -13.090  14.499  71.447  1.00  0.00     0.000 HD 
HETATM   25  N   UNL     1      -9.656  15.392  68.603  1.00  0.00    -0.197 NA 
HETATM   26  N   UNL     1     -11.283  13.984  69.562  1.00  0.00    -0.230 NA 
HETATM   27  H2  UNL     1     -12.550  16.154  71.601  1.00  0.00     0.000 HD 
HETATM   28  C   UNL     1     -11.502  15.094  70.220  1.00  0.00    -0.282 A  
HETATM   29  N   UNL     1     -12.455  15.242  71.155  1.00  0.00    -0.340 NA 
ENDBRANCH  17  22
ENDBRANCH  15  17
ENDBRANCH   1  13
BRANCH   8  30
HETATM   30  C   UNL     1      -6.722   5.961  71.023  1.00  0.00    -0.060 C  
HETATM   31  C   UNL     1      -8.835   4.958  69.928  1.00  0.00    -0.126 C  
HETATM   32  C   UNL     1      -7.653   5.013  70.831  1.00  0.00    -0.078 C  
HETATM   33  C   UNL     1      -9.792   4.067  70.702  1.00  0.00    -0.158 C  
HETATM   34  N   UNL     1      -8.975   3.292  71.616  1.00  0.00    -0.094 N  
HETATM   35  C   UNL     1      -7.673   3.777  71.666  1.00  0.00    -0.061 C  
HETATM   36  O   UNL     1      -6.710   3.315  72.246  1.00  0.00    -0.014 OA 
BRANCH  34  37
HETATM   37  C   UNL     1      -9.395   1.981  72.135  1.00  0.00    -0.089 C  
HETATM   38  C   UNL     1     -10.878   1.911  72.505  1.00  0.00    -0.072 C  
HETATM   39  C   UNL     1     -10.909   2.468  73.917  1.00  0.00    -0.190 C  
HETATM   40  N   UNL     1      -9.672   2.023  74.556  1.00  0.00    -0.087 NA 
HETATM   41  H   UNL     1      -9.826   1.318  75.277  1.00  0.00     0.000 HD 
HETATM   42  C   UNL     1      -8.767   1.566  73.481  1.00  0.00    -0.057 C  
ENDBRANCH  34  37
ENDBRANCH   8  30
TORSDOF 6
ENDMDL
MODEL      139
REMARK 921   NORMALIZED FREE ENERGY PREDICTED BY IDOCK:   -1.23 KCAL/MOL
REMARK 922        TOTAL FREE ENERGY PREDICTED BY IDOCK:   -3.18 KCAL/MOL
REMARK 923 INTER-LIGAND FREE ENERGY PREDICTED BY IDOCK:   -5.43 KCAL/MOL
REMARK 924 INTRA-LIGAND FREE ENERGY PREDICTED BY IDOCK:    2.25 KCAL/MOL
REMARK 927      BINDING AFFINITY PREDICTED BY RF-SCORE:    0.00 PKD
ROOT
HETATM    1  CA  UNL     1     -10.083  10.081  64.420  1.00  0.00     0.151 C  
HETATM    2  C   UNL     1     -11.595  11.259  68.035  1.00  0.00    -0.272 C  
HETATM    3  C   UNL     1      -9.766  11.620  64.311  1.00  0.00    -0.173 C  
HETATM    4  O   UNL     1      -9.084  12.376  63.661  1.00  0.00     0.337 OA 
HETATM    5  O   UNL     1      -9.703  14.556  64.810  1.00  0.00    -0.009 OA 
HETATM    6  OXT UNL     1     -11.170  15.297  66.301  1.00  0.00    -0.316 OA 
HETATM    7  N   UNL     1     -10.493  11.868  65.419  1.00  0.00    -0.259 N  
HETATM    8  C   UNL     1     -11.292  12.651  67.492  1.00  0.00    -0.361 C  
HETATM    9  CA  UNL     1     -10.791  12.911  66.253  1.00  0.00    -0.275 C  
HETATM   10  S   UNL     1     -10.763   9.901  67.186  1.00  0.00    -0.156 SA 
HETATM   11  C   UNL     1     -11.090  10.548  65.526  1.00  0.00     0.484 C  
HETATM   12  C   UNL     1     -10.580  14.346  65.808  1.00  0.00    -0.318 C  
ENDROOT
BRANCH   1  13
HETATM   13  N   UNL     1      -8.976   9.210  64.900  1.00  0.00    -0.334 N  
HETATM   14  O   UNL     1      -7.503  10.879  65.440  1.00  0.00    -0.013 OA 
HETATM   15  C   UNL     1      -7.791   9.693  65.407  1.00  0.00    -0.117 C  
HETATM   16  H   UNL     1      -9.102   8.199  64.851  1.00  0.00     0.000 HD 
BRANCH  15  17
HETATM   17  C   UNL     1      -6.829   8.624  65.944  1.00  0.00    -0.068 C  
BRANCH  17  18
HETATM   18  N   UNL     1      -5.533   8.787  66.048  1.00  0.00    -0.037 NA 
HETATM   19  H   UNL     1      -4.861   8.137  65.638  1.00  0.00     0.000 HD 
HETATM   20  O   UNL     1      -5.142   9.922  66.764  1.00  0.00    -0.039 OA 
HETATM   21  H   UNL     1      -4.203  10.040  66.839  1.00  0.00     0.000 HD 
ENDBRANCH  17  18
BRANCH  17  22
HETATM   22  C   UNL     1      -7.368   7.337  66.392  1.00  0.00    -0.080 A  
HETATM   23  S   UNL     1      -8.523   5.205  66.430  1.00  0.00    -0.113 SA 
HETATM   24  H1  UNL     1      -7.278   5.346  69.875  1.00  0.00     0.000 HD 
HETATM   25  N   UNL     1      -8.084   6.561  65.567  1.00  0.00    -0.121 NA 
HETATM   26  N   UNL     1      -7.187   6.903  67.718  1.00  0.00    -0.088 NA 
HETATM   27  H2  UNL     1      -8.200   4.125  69.030  1.00  0.00     0.000 HD 
HETATM   28  C   UNL     1      -7.756   5.736  67.874  1.00  0.00    -0.097 A  
HETATM   29  N   UNL     1      -7.733   5.031  69.018  1.00  0.00    -0.079 NA 
ENDBRANCH  17  22
ENDBRANCH  15  17
ENDBRANCH   1  13
BRANCH   8  30
HETATM   30  C   UNL     1     -11.612  13.643  68.525  1.00  0.00    -0.371 C  
HETATM   31  C   UNL     1     -12.061  12.112  70.556  1.00  0.00    -0.383 C  
HETATM   32  C   UNL     1     -11.956  13.389  69.798  1.00  0.00    -0.396 C  
HETATM   33  C   UNL     1     -13.143  12.431  71.575  1.00  0.00    -0.264 C  
HETATM   34  N   UNL     1     -13.172  13.875  71.697  1.00  0.00    -0.354 N  
HETATM   35  C   UNL     1     -12.416  14.483  70.702  1.00  0.00    -0.343 C  
HETATM   36  O   UNL     1     -12.145  15.660  70.561  1.00  0.00    -0.352 OA 
BRANCH  34  37
HETATM   37  C   UNL     1     -13.653  14.558  72.909  1.00  0.00    -0.334 C  
HETATM   38  C   UNL     1     -13.965  16.041  72.698  1.00  0.00    -0.297 C  
HETATM   39  C   UNL     1     -12.612  16.707  72.874  1.00  0.00     0.210 C  
HETATM   40  N   UNL     1     -11.915  15.944  73.907  1.00  0.00    -0.350 NA 
HETATM   41  H   UNL     1     -11.816  16.456  74.784  1.00  0.00     0.000 HD 
HETATM   42  C   UNL     1     -12.636  14.663  74.062  1.00  0.00     0.155 C  
ENDBRANCH  34  37
ENDBRANCH   8  30
TORSDOF 6
ENDMDL
MODEL      140
REMARK 921   NORMALIZED FREE ENERGY PREDICTED BY IDOCK:   -0.17 KCAL/MOL
REMARK 922        TOTAL FREE ENERGY PREDICTED BY IDOCK:   -1.76 KCAL/MOL
REMARK 923 INTER-LIGAND FREE ENERGY PREDICTED BY IDOCK:   -1.66 KCAL/MOL
REMARK 924 INTRA-LIGAND FREE ENERGY PREDICTED BY IDOCK:   -0.10 KCAL/MOL
REMARK 927      BINDING AFFINITY PREDICTED BY RF-SCORE:    0.00 PKD
ROOT
HETATM    1  CA  UNL     1      -5.334   9.693  71.086  1.00  0.00    -0.059 C  
HETATM    2  C   UNL     1      -6.136  12.447  68.168  1.00  0.00    -0.065 C  
HETATM    3  C   UNL     1      -5.623  10.933  72.013  1.00  0.00     0.561 C  
HETATM    4  O   UNL     1      -5.874  11.180  73.169  1.00  0.00     0.855 OA 
HETATM    5  O   UNL     1      -6.113  13.704  72.991  1.00  0.00    -0.062 OA 
HETATM    6  OXT UNL     1      -5.757  15.313  71.504  1.00  0.00     0.128 OA 
HETATM    7  N   UNL     1      -5.644  11.754  70.943  1.00  0.00    -0.113 N  
HETATM    8  C   UNL     1      -6.166  13.408  69.350  1.00  0.00    -0.109 C  
HETATM    9  CA  UNL     1      -5.913  13.061  70.642  1.00  0.00    -0.044 C  
HETATM   10  S   UNL     1      -6.285  10.699  68.590  1.00  0.00    -0.046 SA 
HETATM   11  C   UNL     1      -5.133  10.790  69.984  1.00  0.00    -0.044 C  
HETATM   12  C   UNL     1      -5.923  14.121  71.727  1.00  0.00     0.047 C  
ENDROOT
BRANCH   1  13
HETATM   13  N   UNL     1      -6.472   8.764  70.852  1.00  0.00    -0.046 N  
HETATM   14  O   UNL     1      -5.468   7.467  69.252  1.00  0.00    -0.015 OA 
HETATM   15  C   UNL     1      -6.422   7.702  69.977  1.00  0.00    -0.034 C  
HETATM   16  H   UNL     1      -7.338   8.921  71.368  1.00  0.00     0.000 HD 
BRANCH  15  17
HETATM   17  C   UNL     1      -7.669   6.807  69.968  1.00  0.00    -0.102 C  
BRANCH  17  18
HETATM   18  N   UNL     1      -8.889   7.248  69.779  1.00  0.00    -0.142 NA 
HETATM   19  H   UNL     1      -9.675   6.965  70.365  1.00  0.00     0.000 HD 
HETATM   20  O   UNL     1      -9.029   8.139  68.710  1.00  0.00    -0.143 OA 
HETATM   21  H   UNL     1      -9.913   8.458  68.574  1.00  0.00     0.000 HD 
ENDBRANCH  17  18
BRANCH  17  22
HETATM   22  C   UNL     1      -7.516   5.363  70.164  1.00  0.00    -0.069 A  
HETATM   23  S   UNL     1      -7.799   2.963  69.961  1.00  0.00    -0.042 SA 
HETATM   24  H1  UNL     1      -5.258   3.111  72.599  1.00  0.00     0.000 HD 
HETATM   25  N   UNL     1      -8.242   4.488  69.455  1.00  0.00    -0.068 NA 
HETATM   26  N   UNL     1      -6.635   4.858  71.138  1.00  0.00    -0.030 NA 
HETATM   27  H2  UNL     1      -6.026   1.753  71.812  1.00  0.00     0.000 HD 
HETATM   28  C   UNL     1      -6.676   3.551  71.123  1.00  0.00    -0.031 A  
HETATM   29  N   UNL     1      -5.924   2.763  71.910  1.00  0.00    -0.013 NA 
ENDBRANCH  17  22
ENDBRANCH  15  17
ENDBRANCH   1  13
BRANCH   8  30
HETATM   30  C   UNL     1      -6.525  14.746  68.866  1.00  0.00    -0.089 C  
HETATM   31  C   UNL     1      -9.030  14.839  69.484  1.00  0.00     0.115 C  
HETATM   32  C   UNL     1      -7.741  15.314  68.912  1.00  0.00    -0.167 C  
HETATM   33  C   UNL     1     -10.051  15.523  68.590  1.00  0.00    -0.210 C  
HETATM   34  N   UNL     1      -9.376  16.664  68.003  1.00  0.00    -0.224 N  
HETATM   35  C   UNL     1      -8.007  16.617  68.236  1.00  0.00    -0.192 C  
HETATM   36  O   UNL     1      -7.159  17.448  67.973  1.00  0.00    -0.176 OA 
BRANCH  34  37
HETATM   37  C   UNL     1     -10.099  17.858  67.535  1.00  0.00    -0.342 C  
HETATM   38  C   UNL     1      -9.985  18.095  66.028  1.00  0.00    -0.220 C  
HETATM   39  C   UNL     1      -8.676  18.850  65.894  1.00  0.00     0.161 C  
HETATM   40  N   UNL     1      -8.577  19.704  67.075  1.00  0.00    -0.299 NA 
HETATM   41  H   UNL     1      -8.689  20.695  66.862  1.00  0.00     0.000 HD 
HETATM   42  C   UNL     1      -9.564  19.206  68.057  1.00  0.00    -0.332 C  
ENDBRANCH  34  37
ENDBRANCH   8  30
TORSDOF 6
ENDMDL
MODEL      141
REMARK 921   NORMALIZED FREE ENERGY PREDICTED BY IDOCK:    0.04 KCAL/MOL
REMARK 922        TOTAL FREE ENERGY PREDICTED BY IDOCK:   -1.47 KCAL/MOL
REMARK 923 INTER-LIGAND FREE ENERGY PREDICTED BY IDOCK:   -1.97 KCAL/MOL
REMARK 924 INTRA-LIGAND FREE ENERGY PREDICTED BY IDOCK:    0.50 KCAL/MOL
REMARK 927      BINDING AFFINITY PREDICTED BY RF-SCORE:    0.00 PKD
ROOT
HETATM    1  CA  UNL     1      -5.721   7.866  67.247  1.00  0.00    -0.037 C  
HETATM    2  C   UNL     1      -8.930  10.329  66.633  1.00  0.00    -0.140 C  
HETATM    3  C   UNL     1      -5.770   8.539  68.670  1.00  0.00    -0.037 C  
HETATM    4  O   UNL     1      -5.341   8.365  69.787  1.00  0.00    -0.029 OA 
HETATM    5  O   UNL     1      -6.421  10.354  70.940  1.00  0.00    -0.327 OA 
HETATM    6  OXT UNL     1      -7.559  12.181  70.399  1.00  0.00     1.784 OA 
HETATM    7  N   UNL     1      -6.686   9.430  68.240  1.00  0.00    -0.059 N  
HETATM    8  C   UNL     1      -8.548  10.854  68.012  1.00  0.00    -0.131 C  
HETATM    9  CA  UNL     1      -7.478  10.427  68.738  1.00  0.00    -0.093 C  
HETATM   10  S   UNL     1      -8.233   8.722  66.199  1.00  0.00    -0.121 SA 
HETATM   11  C   UNL     1      -6.580   9.108  66.827  1.00  0.00    -0.068 C  
HETATM   12  C   UNL     1      -7.171  11.066  70.080  1.00  0.00     0.242 C  
ENDROOT
BRANCH   1  13
HETATM   13  N   UNL     1      -6.404   6.551  67.113  1.00  0.00    -0.039 N  
HETATM   14  O   UNL     1      -7.866   6.800  68.860  1.00  0.00    -0.107 OA 
HETATM   15  C   UNL     1      -7.449   6.149  67.914  1.00  0.00    -0.085 C  
HETATM   16  H   UNL     1      -6.080   5.911  66.387  1.00  0.00     0.000 HD 
BRANCH  15  17
HETATM   17  C   UNL     1      -8.078   4.801  67.535  1.00  0.00    -0.101 C  
BRANCH  17  18
HETATM   18  N   UNL     1      -9.346   4.511  67.696  1.00  0.00    -0.138 NA 
HETATM   19  H   UNL     1     -10.050   4.704  66.984  1.00  0.00     0.000 HD 
HETATM   20  O   UNL     1      -9.657   3.914  68.922  1.00  0.00    -0.171 OA 
HETATM   21  H   UNL     1     -10.576   3.703  69.038  1.00  0.00     0.000 HD 
ENDBRANCH  17  18
BRANCH  17  22
HETATM   22  C   UNL     1      -7.236   3.761  66.938  1.00  0.00    -0.064 A  
HETATM   23  S   UNL     1      -5.842   1.796  66.662  1.00  0.00    -0.019 SA 
HETATM   24  H1  UNL     1      -5.820   3.111  63.240  1.00  0.00     0.000 HD 
HETATM   25  N   UNL     1      -6.746   2.757  67.679  1.00  0.00    -0.040 NA 
HETATM   26  N   UNL     1      -6.880   3.815  65.578  1.00  0.00    -0.052 NA 
HETATM   27  H2  UNL     1      -5.081   1.687  63.933  1.00  0.00     0.000 HD 
HETATM   28  C   UNL     1      -6.128   2.785  65.285  1.00  0.00    -0.019 A  
HETATM   29  N   UNL     1      -5.650   2.524  64.057  1.00  0.00    -0.009 NA 
ENDBRANCH  17  22
ENDBRANCH  15  17
ENDBRANCH   1  13
BRANCH   8  30
HETATM   30  C   UNL     1      -9.525  11.870  68.421  1.00  0.00    -0.189 C  
HETATM   31  C   UNL     1      -9.477  13.449  66.379  1.00  0.00    -0.230 C  
HETATM   32  C   UNL     1      -9.879  12.963  67.727  1.00  0.00    -0.221 C  
HETATM   33  C   UNL     1      -9.603  14.956  66.529  1.00  0.00    -0.276 C  
HETATM   34  N   UNL     1     -10.514  15.179  67.634  1.00  0.00    -0.249 N  
HETATM   35  C   UNL     1     -10.764  14.002  68.329  1.00  0.00    -0.254 C  
HETATM   36  O   UNL     1     -11.545  13.805  69.241  1.00  0.00    -0.271 OA 
BRANCH  34  37
HETATM   37  C   UNL     1     -11.313  16.409  67.767  1.00  0.00    -0.034 C  
HETATM   38  C   UNL     1     -10.590  17.668  67.282  1.00  0.00    -0.297 C  
HETATM   39  C   UNL     1      -9.770  18.083  68.490  1.00  0.00    -0.352 C  
HETATM   40  N   UNL     1     -10.579  17.753  69.662  1.00  0.00    -0.155 NA 
HETATM   41  H   UNL     1     -10.939  18.578  70.144  1.00  0.00     0.000 HD 
HETATM   42  C   UNL     1     -11.644  16.834  69.211  1.00  0.00     0.417 C  
ENDBRANCH  34  37
ENDBRANCH   8  30
TORSDOF 6
ENDMDL
MODEL      142
REMARK 921   NORMALIZED FREE ENERGY PREDICTED BY IDOCK:    1.24 KCAL/MOL
REMARK 922        TOTAL FREE ENERGY PREDICTED BY IDOCK:    0.15 KCAL/MOL
REMARK 923 INTER-LIGAND FREE ENERGY PREDICTED BY IDOCK:   -0.95 KCAL/MOL
REMARK 924 INTRA-LIGAND FREE ENERGY PREDICTED BY IDOCK:    1.10 KCAL/MOL
REMARK 927      BINDING AFFINITY PREDICTED BY RF-SCORE:    0.00 PKD
ROOT
HETATM    1  CA  UNL     1      -8.582   8.428  72.740  1.00  0.00    -0.170 C  
HETATM    2  C   UNL     1      -7.354  10.636  69.522  1.00  0.00    -0.141 C  
HETATM    3  C   UNL     1      -9.998   8.756  72.133  1.00  0.00    -0.289 C  
HETATM    4  O   UNL     1     -11.143   8.379  72.211  1.00  0.00    -0.324 OA 
HETATM    5  O   UNL     1     -12.191   9.942  70.503  1.00  0.00    -0.253 OA 
HETATM    6  OXT UNL     1     -11.627  11.722  69.304  1.00  0.00    -0.264 OA 
HETATM    7  N   UNL     1      -9.445   9.626  71.263  1.00  0.00     0.166 N  
HETATM    8  C   UNL     1      -8.850  10.873  69.356  1.00  0.00     0.111 C  
HETATM    9  CA  UNL     1      -9.811  10.403  70.198  1.00  0.00     0.213 C  
HETATM   10  S   UNL     1      -6.905   9.244  70.580  1.00  0.00    -0.105 SA 
HETATM   11  C   UNL     1      -8.122   9.641  71.862  1.00  0.00     1.650 C  
HETATM   12  C   UNL     1     -11.267  10.751  69.955  1.00  0.00    -0.300 C  
ENDROOT
BRANCH   1  13
HETATM   13  N   UNL     1      -7.989   7.116  72.366  1.00  0.00    -0.096 N  
HETATM   14  O   UNL     1      -8.711   5.936  74.192  1.00  0.00    -0.122 OA 
HETATM   15  C   UNL     1      -8.141   5.969  73.113  1.00  0.00    -0.115 C  
HETATM   16  H   UNL     1      -7.439   7.062  71.508  1.00  0.00     0.000 HD 
BRANCH  15  17
HETATM   17  C   UNL     1      -7.537   4.703  72.490  1.00  0.00    -0.086 C  
BRANCH  17  18
HETATM   18  N   UNL     1      -6.250   4.483  72.372  1.00  0.00    -0.017 NA 
HETATM   19  H   UNL     1      -5.569   4.818  73.054  1.00  0.00     0.000 HD 
HETATM   20  O   UNL     1      -5.884   3.754  71.237  1.00  0.00    -0.012 OA 
HETATM   21  H   UNL     1      -4.951   3.595  71.152  1.00  0.00     0.000 HD 
ENDBRANCH  17  18
BRANCH  17  22
HETATM   22  C   UNL     1      -8.431   3.648  72.003  1.00  0.00    -0.086 A  
HETATM   23  S   UNL     1     -10.165   1.956  71.904  1.00  0.00    -0.002 SA 
HETATM   24  H1  UNL     1      -8.790   1.697  68.516  1.00  0.00     0.000 HD 
HETATM   25  N   UNL     1      -9.367   3.113  72.799  1.00  0.00    -0.091 NA 
HETATM   26  N   UNL     1      -8.297   3.136  70.700  1.00  0.00    -0.055 NA 
HETATM   27  H2  UNL     1     -10.104   0.849  69.295  1.00  0.00     0.000 HD 
HETATM   28  C   UNL     1      -9.200   2.209  70.503  1.00  0.00    -0.115 A  
HETATM   29  N   UNL     1      -9.362   1.546  69.346  1.00  0.00    -0.110 NA 
ENDBRANCH  17  22
ENDBRANCH  15  17
ENDBRANCH   1  13
BRANCH   8  30
HETATM   30  C   UNL     1      -9.073  11.669  68.143  1.00  0.00    -0.183 C  
HETATM   31  C   UNL     1     -10.878  10.258  66.953  1.00  0.00    -0.205 C  
HETATM   32  C   UNL     1      -9.913  11.376  67.138  1.00  0.00    -0.217 C  
HETATM   33  C   UNL     1     -10.905  10.102  65.441  1.00  0.00     0.600 C  
HETATM   34  N   UNL     1     -10.455  11.367  64.895  1.00  0.00    -0.290 N  
HETATM   35  C   UNL     1      -9.924  12.186  65.885  1.00  0.00    -0.245 C  
HETATM   36  O   UNL     1      -9.546  13.338  65.801  1.00  0.00    -0.181 OA 
BRANCH  34  37
HETATM   37  C   UNL     1     -10.831  11.828  63.549  1.00  0.00    -0.426 C  
HETATM   38  C   UNL     1     -11.475  13.216  63.531  1.00  0.00    -0.305 C  
HETATM   39  C   UNL     1     -12.935  12.924  63.827  1.00  0.00     0.236 C  
HETATM   40  N   UNL     1     -13.233  11.648  63.180  1.00  0.00    -0.621 NA 
HETATM   41  H   UNL     1     -13.848  11.744  62.371  1.00  0.00     0.000 HD 
HETATM   42  C   UNL     1     -11.940  11.013  62.853  1.00  0.00     1.497 C  
ENDBRANCH  34  37
ENDBRANCH   8  30
TORSDOF 6
ENDMDL
MODEL      143
REMARK 921   NORMALIZED FREE ENERGY PREDICTED BY IDOCK:    1.90 KCAL/MOL
REMARK 922        TOTAL FREE ENERGY PREDICTED BY IDOCK:    1.05 KCAL/MOL
REMARK 923 INTER-LIGAND FREE ENERGY PREDICTED BY IDOCK:   -0.32 KCAL/MOL
REMARK 924 INTRA-LIGAND FREE ENERGY PREDICTED BY IDOCK:    1.37 KCAL/MOL
REMARK 927      BINDING AFFINITY PREDICTED BY RF-SCORE:    0.00 PKD
ROOT
HETATM    1  CA  UNL     1      -7.493   7.336  71.686  1.00  0.00    -0.085 C  
HETATM    2  C   UNL     1      -8.107  10.544  69.222  1.00  0.00    -0.148 C  
HETATM    3  C   UNL     1      -9.000   7.617  72.046  1.00  0.00    -0.124 C  
HETATM    4  O   UNL     1      -9.937   7.071  72.580  1.00  0.00    -0.166 OA 
HETATM    5  O   UNL     1     -11.680   8.895  72.281  1.00  0.00    -0.354 OA 
HETATM    6  OXT UNL     1     -11.785  11.011  71.619  1.00  0.00     0.346 OA 
HETATM    7  N   UNL     1      -8.970   8.774  71.355  1.00  0.00    -0.220 N  
HETATM    8  C   UNL     1      -9.448  10.598  69.944  1.00  0.00     0.344 C  
HETATM    9  CA  UNL     1      -9.822   9.767  70.955  1.00  0.00     0.052 C  
HETATM   10  S   UNL     1      -7.211   8.984  69.374  1.00  0.00    -0.058 SA 
HETATM   11  C   UNL     1      -7.533   8.807  71.147  1.00  0.00    -0.101 C  
HETATM   12  C   UNL     1     -11.167   9.955  71.631  1.00  0.00     0.076 C  
ENDROOT
BRANCH   1  13
HETATM   13  N   UNL     1      -7.242   6.292  70.655  1.00  0.00    -0.072 N  
HETATM   14  O   UNL     1      -5.435   7.288  69.661  1.00  0.00    -0.021 OA 
HETATM   15  C   UNL     1      -6.204   6.344  69.753  1.00  0.00    -0.034 C  
HETATM   16  H   UNL     1      -7.875   5.493  70.615  1.00  0.00     0.000 HD 
BRANCH  15  17
HETATM   17  C   UNL     1      -6.066   5.112  68.849  1.00  0.00    -0.026 C  
BRANCH  17  18
HETATM   18  N   UNL     1      -5.220   5.023  67.852  1.00  0.00    -0.007 NA 
HETATM   19  H   UNL     1      -4.360   5.572  67.808  1.00  0.00     0.000 HD 
HETATM   20  O   UNL     1      -5.588   4.118  66.852  1.00  0.00    -0.016 OA 
HETATM   21  H   UNL     1      -4.974   4.054  66.129  1.00  0.00     0.000 HD 
ENDBRANCH  17  18
BRANCH  17  22
HETATM   22  C   UNL     1      -6.907   3.939  69.103  1.00  0.00    -0.046 A  
HETATM   23  S   UNL     1      -7.779   1.886  70.055  1.00  0.00    -0.042 SA 
HETATM   24  H1  UNL     1     -10.206   2.455  67.368  1.00  0.00     0.000 HD 
HETATM   25  N   UNL     1      -6.614   3.077  70.087  1.00  0.00    -0.032 NA 
HETATM   26  N   UNL     1      -8.019   3.660  68.288  1.00  0.00    -0.071 NA 
HETATM   27  H2  UNL     1     -10.098   1.198  68.578  1.00  0.00     0.000 HD 
HETATM   28  C   UNL     1      -8.603   2.568  68.709  1.00  0.00    -0.074 A  
HETATM   29  N   UNL     1      -9.717   2.050  68.166  1.00  0.00    -0.053 NA 
ENDBRANCH  17  22
ENDBRANCH  15  17
ENDBRANCH   1  13
BRANCH   8  30
HETATM   30  C   UNL     1     -10.259  11.674  69.359  1.00  0.00     0.220 C  
HETATM   31  C   UNL     1      -8.660  13.686  69.610  1.00  0.00     1.379 C  
HETATM   32  C   UNL     1      -9.914  12.967  69.253  1.00  0.00     0.563 C  
HETATM   33  C   UNL     1      -9.171  15.078  69.944  1.00  0.00     0.219 C  
HETATM   34  N   UNL     1     -10.453  15.210  69.279  1.00  0.00    -0.250 N  
HETATM   35  C   UNL     1     -10.896  13.988  68.787  1.00  0.00    -0.263 C  
HETATM   36  O   UNL     1     -11.871  13.750  68.101  1.00  0.00    -0.343 OA 
BRANCH  34  37
HETATM   37  C   UNL     1     -11.014  16.515  68.892  1.00  0.00    -0.325 C  
HETATM   38  C   UNL     1     -11.350  16.623  67.403  1.00  0.00     0.253 C  
HETATM   39  C   UNL     1     -10.025  17.020  66.777  1.00  0.00    -0.295 C  
HETATM   40  N   UNL     1      -9.365  17.894  67.744  1.00  0.00    -0.259 NA 
HETATM   41  H   UNL     1      -9.325  18.867  67.441  1.00  0.00     0.000 HD 
HETATM   42  C   UNL     1     -10.061  17.718  69.037  1.00  0.00    -0.294 C  
ENDBRANCH  34  37
ENDBRANCH   8  30
TORSDOF 6
ENDMDL
MODEL      144
REMARK 921   NORMALIZED FREE ENERGY PREDICTED BY IDOCK:    2.99 KCAL/MOL
REMARK 922        TOTAL FREE ENERGY PREDICTED BY IDOCK:    2.51 KCAL/MOL
REMARK 923 INTER-LIGAND FREE ENERGY PREDICTED BY IDOCK:    2.97 KCAL/MOL
REMARK 924 INTRA-LIGAND FREE ENERGY PREDICTED BY IDOCK:   -0.46 KCAL/MOL
REMARK 927      BINDING AFFINITY PREDICTED BY RF-SCORE:    0.00 PKD
ROOT
HETATM    1  CA  UNL     1      -8.634  11.822  64.719  1.00  0.00     0.892 C  
HETATM    2  C   UNL     1     -12.157  12.132  66.775  1.00  0.00     0.118 C  
HETATM    3  C   UNL     1      -8.044  12.200  66.129  1.00  0.00     0.485 C  
HETATM    4  O   UNL     1      -6.992  12.177  66.724  1.00  0.00    -0.051 OA 
HETATM    5  O   UNL     1      -7.781  13.095  68.958  1.00  0.00     0.014 OA 
HETATM    6  OXT UNL     1      -9.597  14.026  69.832  1.00  0.00     0.880 OA 
HETATM    7  N   UNL     1      -9.280  12.470  66.596  1.00  0.00    -0.227 N  
HETATM    8  C   UNL     1     -11.243  12.633  67.887  1.00  0.00    -0.310 C  
HETATM    9  CA  UNL     1      -9.897  12.799  67.772  1.00  0.00    -0.220 C  
HETATM   10  S   UNL     1     -11.333  11.241  65.440  1.00  0.00     0.223 SA 
HETATM   11  C   UNL     1      -9.958  12.413  65.313  1.00  0.00    -0.215 C  
HETATM   12  C   UNL     1      -9.101  13.355  68.937  1.00  0.00     0.254 C  
ENDROOT
BRANCH   1  13
HETATM   13  N   UNL     1      -8.681  10.372  64.387  1.00  0.00    -0.191 N  
HETATM   14  O   UNL     1      -6.420  10.010  64.332  1.00  0.00    -0.119 OA 
HETATM   15  C   UNL     1      -7.561   9.582  64.261  1.00  0.00    -0.122 C  
HETATM   16  H   UNL     1      -9.594   9.939  64.246  1.00  0.00     0.000 HD 
BRANCH  15  17
HETATM   17  C   UNL     1      -7.840   8.092  64.022  1.00  0.00    -0.143 C  
BRANCH  17  18
HETATM   18  N   UNL     1      -8.506   7.625  62.993  1.00  0.00    -0.374 NA 
HETATM   19  H   UNL     1      -9.406   8.007  62.700  1.00  0.00     0.000 HD 
HETATM   20  O   UNL     1      -7.885   6.562  62.330  1.00  0.00    -0.089 OA 
HETATM   21  H   UNL     1      -8.368   6.224  61.585  1.00  0.00     0.000 HD 
ENDBRANCH  17  18
BRANCH  17  22
HETATM   22  C   UNL     1      -7.329   7.105  64.976  1.00  0.00    -0.083 A  
HETATM   23  S   UNL     1      -6.145   5.218  65.934  1.00  0.00    -0.034 SA 
HETATM   24  H1  UNL     1      -7.911   6.465  68.894  1.00  0.00     0.000 HD 
HETATM   25  N   UNL     1      -6.490   6.135  64.587  1.00  0.00    -0.033 NA 
HETATM   26  N   UNL     1      -7.744   7.122  66.321  1.00  0.00    -0.098 NA 
HETATM   27  H2  UNL     1      -6.798   5.133  68.691  1.00  0.00     0.000 HD 
HETATM   28  C   UNL     1      -7.156   6.149  66.968  1.00  0.00    -0.073 A  
HETATM   29  N   UNL     1      -7.312   5.913  68.281  1.00  0.00    -0.079 NA 
ENDBRANCH  17  22
ENDBRANCH  15  17
ENDBRANCH   1  13
BRANCH   8  30
HETATM   30  C   UNL     1     -12.049  12.883  69.088  1.00  0.00    -0.216 C  
HETATM   31  C   UNL     1     -12.379  15.440  68.935  1.00  0.00     0.006 C  
HETATM   32  C   UNL     1     -12.493  14.075  69.518  1.00  0.00    -0.159 C  
HETATM   33  C   UNL     1     -12.388  16.322  70.172  1.00  0.00     0.533 C  
HETATM   34  N   UNL     1     -13.015  15.542  71.221  1.00  0.00    -0.477 N  
HETATM   35  C   UNL     1     -13.164  14.212  70.843  1.00  0.00    -0.225 C  
HETATM   36  O   UNL     1     -13.729  13.310  71.431  1.00  0.00    -0.103 OA 
BRANCH  34  37
HETATM   37  C   UNL     1     -13.698  16.161  72.369  1.00  0.00     0.121 C  
HETATM   38  C   UNL     1     -12.876  17.252  73.058  1.00  0.00     2.568 C  
HETATM   39  C   UNL     1     -11.998  16.470  74.018  1.00  0.00    -0.173 C  
HETATM   40  N   UNL     1     -12.808  15.348  74.486  1.00  0.00    -0.582 NA 
HETATM   41  H   UNL     1     -13.083  15.434  75.465  1.00  0.00     0.000 HD 
HETATM   42  C   UNL     1     -13.961  15.229  73.568  1.00  0.00     1.273 C  
ENDBRANCH  34  37
ENDBRANCH   8  30
TORSDOF 6
ENDMDL
MODEL      145
REMARK 921   NORMALIZED FREE ENERGY PREDICTED BY IDOCK:    3.25 KCAL/MOL
REMARK 922        TOTAL FREE ENERGY PREDICTED BY IDOCK:    2.87 KCAL/MOL
REMARK 923 INTER-LIGAND FREE ENERGY PREDICTED BY IDOCK:    0.71 KCAL/MOL
REMARK 924 INTRA-LIGAND FREE ENERGY PREDICTED BY IDOCK:    2.15 KCAL/MOL
REMARK 927      BINDING AFFINITY PREDICTED BY RF-SCORE:    0.00 PKD
ROOT
HETATM    1  CA  UNL     1     -11.667  13.382  63.647  1.00  0.00    -0.327 C  
HETATM    2  C   UNL     1     -12.495  13.388  67.653  1.00  0.00     0.260 C  
HETATM    3  C   UNL     1     -10.914  14.709  64.035  1.00  0.00     0.660 C  
HETATM    4  O   UNL     1     -10.084  15.463  63.584  1.00  0.00     2.783 OA 
HETATM    5  O   UNL     1      -9.940  17.100  65.522  1.00  0.00    -0.565 OA 
HETATM    6  OXT UNL     1     -11.008  17.538  67.418  1.00  0.00    -0.228 OA 
HETATM    7  N   UNL     1     -11.452  14.677  65.271  1.00  0.00    -0.351 N  
HETATM    8  C   UNL     1     -11.829  14.758  67.594  1.00  0.00    -0.319 C  
HETATM    9  CA  UNL     1     -11.364  15.349  66.459  1.00  0.00    -0.098 C  
HETATM   10  S   UNL     1     -12.170  12.310  66.243  1.00  0.00     0.435 SA 
HETATM   11  C   UNL     1     -12.406  13.614  65.009  1.00  0.00    -0.427 C  
HETATM   12  C   UNL     1     -10.766  16.741  66.522  1.00  0.00    -0.104 C  
ENDROOT
BRANCH   1  13
HETATM   13  N   UNL     1     -10.840  12.147  63.579  1.00  0.00    -0.503 N  
HETATM   14  O   UNL     1      -9.272  12.758  65.134  1.00  0.00     0.341 OA 
HETATM   15  C   UNL     1      -9.730  11.929  64.363  1.00  0.00    -0.109 C  
HETATM   16  H   UNL     1     -11.110  11.422  62.914  1.00  0.00     0.000 HD 
BRANCH  15  17
HETATM   17  C   UNL     1      -9.086  10.544  64.208  1.00  0.00    -0.228 C  
BRANCH  17  18
HETATM   18  N   UNL     1      -8.752  10.014  63.057  1.00  0.00    -0.192 NA 
HETATM   19  H   UNL     1      -7.981  10.367  62.490  1.00  0.00     0.000 HD 
HETATM   20  O   UNL     1      -9.537   8.924  62.667  1.00  0.00    -0.195 OA 
HETATM   21  H   UNL     1      -9.295   8.540  61.832  1.00  0.00     0.000 HD 
ENDBRANCH  17  18
BRANCH  17  22
HETATM   22  C   UNL     1      -8.799   9.750  65.405  1.00  0.00    -0.169 A  
HETATM   23  S   UNL     1      -7.672   8.805  67.334  1.00  0.00    -0.097 SA 
HETATM   24  H1  UNL     1     -10.844   6.971  67.454  1.00  0.00     0.000 HD 
HETATM   25  N   UNL     1      -7.627   9.860  66.045  1.00  0.00    -0.102 NA 
HETATM   26  N   UNL     1      -9.731   8.812  65.888  1.00  0.00    -0.206 NA 
HETATM   27  H2  UNL     1      -9.446   6.927  68.502  1.00  0.00     0.000 HD 
HETATM   28  C   UNL     1      -9.249   8.232  66.956  1.00  0.00    -0.152 A  
HETATM   29  N   UNL     1      -9.909   7.311  67.678  1.00  0.00    -0.144 NA 
ENDBRANCH  17  22
ENDBRANCH  15  17
ENDBRANCH   1  13
BRANCH   8  30
HETATM   30  C   UNL     1     -11.764  15.313  68.952  1.00  0.00    -0.362 C  
HETATM   31  C   UNL     1     -12.344  13.230  70.364  1.00  0.00    -0.365 C  
HETATM   32  C   UNL     1     -12.008  14.655  70.097  1.00  0.00    -0.372 C  
HETATM   33  C   UNL     1     -13.181  13.327  71.628  1.00  0.00    -0.359 C  
HETATM   34  N   UNL     1     -12.829  14.588  72.252  1.00  0.00    -0.334 N  
HETATM   35  C   UNL     1     -12.066  15.378  71.400  1.00  0.00    -0.373 C  
HETATM   36  O   UNL     1     -11.524  16.443  71.628  1.00  0.00    -0.381 OA 
BRANCH  34  37
HETATM   37  C   UNL     1     -12.975  14.825  73.697  1.00  0.00    -0.153 C  
HETATM   38  C   UNL     1     -13.818  16.055  74.037  1.00  0.00     1.435 C  
HETATM   39  C   UNL     1     -12.816  17.193  73.964  1.00  0.00     1.034 C  
HETATM   40  N   UNL     1     -11.550  16.650  74.455  1.00  0.00     0.508 NA 
HETATM   41  H   UNL     1     -11.281  17.025  75.364  1.00  0.00     0.000 HD 
HETATM   42  C   UNL     1     -11.676  15.178  74.448  1.00  0.00     0.474 C  
ENDBRANCH  34  37
ENDBRANCH   8  30
TORSDOF 6
ENDMDL
MODEL      146
REMARK 921   NORMALIZED FREE ENERGY PREDICTED BY IDOCK:    3.70 KCAL/MOL
REMARK 922        TOTAL FREE ENERGY PREDICTED BY IDOCK:    3.48 KCAL/MOL
REMARK 923 INTER-LIGAND FREE ENERGY PREDICTED BY IDOCK:   -1.31 KCAL/MOL
REMARK 924 INTRA-LIGAND FREE ENERGY PREDICTED BY IDOCK:    4.78 KCAL/MOL
REMARK 927      BINDING AFFINITY PREDICTED BY RF-SCORE:    0.00 PKD
ROOT
HETATM    1  CA  UNL     1      -6.525   6.505  69.351  1.00  0.00    -0.043 C  
HETATM    2  C   UNL     1      -6.152   9.988  67.239  1.00  0.00    -0.058 C  
HETATM    3  C   UNL     1      -7.913   7.149  69.725  1.00  0.00    -0.123 C  
HETATM    4  O   UNL     1      -8.982   6.830  70.188  1.00  0.00    -0.147 OA 
HETATM    5  O   UNL     1     -10.154   9.081  70.068  1.00  0.00    -0.181 OA 
HETATM    6  OXT UNL     1      -9.656  11.200  69.636  1.00  0.00     0.223 OA 
HETATM    7  N   UNL     1      -7.544   8.318  69.162  1.00  0.00    -0.086 N  
HETATM    8  C   UNL     1      -7.455  10.335  67.949  1.00  0.00    -0.088 C  
HETATM    9  CA  UNL     1      -8.079   9.540  68.862  1.00  0.00    -0.096 C  
HETATM   10  S   UNL     1      -5.719   8.237  67.231  1.00  0.00    -0.039 SA 
HETATM   11  C   UNL     1      -6.145   7.977  68.972  1.00  0.00    -0.039 C  
HETATM   12  C   UNL     1      -9.348  10.020  69.541  1.00  0.00    -0.229 C  
ENDROOT
BRANCH   1  13
HETATM   13  N   UNL     1      -6.527   5.541  68.218  1.00  0.00    -0.042 N  
HETATM   14  O   UNL     1      -8.301   6.434  67.076  1.00  0.00    -0.112 OA 
HETATM   15  C   UNL     1      -7.398   5.616  67.154  1.00  0.00    -0.080 C  
HETATM   16  H   UNL     1      -5.846   4.782  68.229  1.00  0.00     0.000 HD 
BRANCH  15  17
HETATM   17  C   UNL     1      -7.157   4.585  66.043  1.00  0.00    -0.071 C  
BRANCH  17  18
HETATM   18  N   UNL     1      -6.037   3.924  65.884  1.00  0.00    -0.027 NA 
HETATM   19  H   UNL     1      -5.685   3.647  64.967  1.00  0.00     0.000 HD 
HETATM   20  O   UNL     1      -5.361   3.627  67.072  1.00  0.00    -0.011 OA 
HETATM   21  H   UNL     1      -4.549   3.147  66.957  1.00  0.00     0.000 HD 
ENDBRANCH  17  18
BRANCH  17  22
HETATM   22  C   UNL     1      -8.235   4.289  65.095  1.00  0.00    -0.102 A  
HETATM   23  S   UNL     1      -9.948   3.119  63.839  1.00  0.00    -0.179 SA 
HETATM   24  H1  UNL     1     -10.146   6.439  62.298  1.00  0.00     0.000 HD 
HETATM   25  N   UNL     1      -8.779   3.067  65.025  1.00  0.00    -0.107 NA 
HETATM   26  N   UNL     1      -8.693   5.270  64.197  1.00  0.00    -0.075 NA 
HETATM   27  H2  UNL     1     -11.059   4.977  62.009  1.00  0.00     0.000 HD 
HETATM   28  C   UNL     1      -9.649   4.769  63.457  1.00  0.00     0.246 A  
HETATM   29  N   UNL     1     -10.323   5.461  62.524  1.00  0.00     1.234 NA 
ENDBRANCH  17  22
ENDBRANCH  15  17
ENDBRANCH   1  13
BRANCH   8  30
HETATM   30  C   UNL     1      -7.921  11.644  67.475  1.00  0.00    -0.141 C  
HETATM   31  C   UNL     1     -10.436  11.172  67.122  1.00  0.00    -0.270 C  
HETATM   32  C   UNL     1      -9.174  11.962  67.111  1.00  0.00    -0.183 C  
HETATM   33  C   UNL     1     -11.212  11.789  65.971  1.00  0.00    -0.296 C  
HETATM   34  N   UNL     1     -10.657  13.113  65.770  1.00  0.00    -0.278 N  
HETATM   35  C   UNL     1      -9.481  13.284  66.491  1.00  0.00    -0.245 C  
HETATM   36  O   UNL     1      -8.810  14.288  66.631  1.00  0.00    -0.223 OA 
BRANCH  34  37
HETATM   37  C   UNL     1     -11.427  14.212  65.165  1.00  0.00    -0.336 C  
HETATM   38  C   UNL     1     -10.589  15.136  64.279  1.00  0.00     0.635 C  
HETATM   39  C   UNL     1      -9.992  16.117  65.271  1.00  0.00     0.028 C  
HETATM   40  N   UNL     1     -11.011  16.329  66.297  1.00  0.00    -0.084 NA 
HETATM   41  H   UNL     1     -11.426  17.260  66.261  1.00  0.00     0.000 HD 
HETATM   42  C   UNL     1     -12.004  15.244  66.154  1.00  0.00     0.320 C  
ENDBRANCH  34  37
ENDBRANCH   8  30
TORSDOF 6
ENDMDL
MODEL      147
REMARK 921   NORMALIZED FREE ENERGY PREDICTED BY IDOCK:    5.92 KCAL/MOL
REMARK 922        TOTAL FREE ENERGY PREDICTED BY IDOCK:    6.47 KCAL/MOL
REMARK 923 INTER-LIGAND FREE ENERGY PREDICTED BY IDOCK:    5.66 KCAL/MOL
REMARK 924 INTRA-LIGAND FREE ENERGY PREDICTED BY IDOCK:    0.81 KCAL/MOL
REMARK 927      BINDING AFFINITY PREDICTED BY RF-SCORE:    0.00 PKD
ROOT
HETATM    1  CA  UNL     1     -11.322  13.294  70.736  1.00  0.00     1.107 C  
HETATM    2  C   UNL     1      -8.379  15.463  68.899  1.00  0.00    -0.203 C  
HETATM    3  C   UNL     1     -12.210  14.018  69.655  1.00  0.00    -0.332 C  
HETATM    4  O   UNL     1     -13.304  13.925  69.150  1.00  0.00     1.719 OA 
HETATM    5  O   UNL     1     -13.151  15.866  67.517  1.00  0.00     2.789 OA 
HETATM    6  OXT UNL     1     -11.801  17.572  67.075  1.00  0.00     1.459 OA 
HETATM    7  N   UNL     1     -11.178  14.814  69.311  1.00  0.00    -0.269 N  
HETATM    8  C   UNL     1      -9.559  16.073  68.152  1.00  0.00    -0.209 C  
HETATM    9  CA  UNL     1     -10.866  15.764  68.377  1.00  0.00    -0.297 C  
HETATM   10  S   UNL     1      -8.718  13.901  69.736  1.00  0.00     1.729 SA 
HETATM   11  C   UNL     1     -10.308  14.445  70.414  1.00  0.00     0.872 C  
HETATM   12  C   UNL     1     -11.957  16.479  67.603  1.00  0.00     0.998 C  
ENDROOT
BRANCH   1  13
HETATM   13  N   UNL     1     -10.852  11.924  70.396  1.00  0.00     0.564 N  
HETATM   14  O   UNL     1     -12.892  11.045  69.836  1.00  0.00    -0.141 OA 
HETATM   15  C   UNL     1     -11.681  10.926  69.936  1.00  0.00    -0.339 C  
HETATM   16  H   UNL     1      -9.861  11.712  70.509  1.00  0.00     0.000 HD 
BRANCH  15  17
HETATM   17  C   UNL     1     -10.973   9.622  69.544  1.00  0.00    -0.208 C  
BRANCH  17  18
HETATM   18  N   UNL     1     -10.921   9.153  68.320  1.00  0.00    -0.477 NA 
HETATM   19  H   UNL     1     -10.602   9.713  67.529  1.00  0.00     0.000 HD 
HETATM   20  O   UNL     1     -11.337   7.825  68.186  1.00  0.00    -0.185 OA 
HETATM   21  H   UNL     1     -11.300   7.486  67.299  1.00  0.00     0.000 HD 
ENDBRANCH  17  18
BRANCH  17  22
HETATM   22  C   UNL     1     -10.289   8.839  70.577  1.00  0.00    -0.203 A  
HETATM   23  S   UNL     1      -8.724   8.159  72.300  1.00  0.00    -0.200 SA 
HETATM   24  H1  UNL     1     -10.824   5.162  72.089  1.00  0.00     0.000 HD 
HETATM   25  N   UNL     1      -9.223   9.330  71.225  1.00  0.00    -0.278 NA 
HETATM   26  N   UNL     1     -10.705   7.530  70.882  1.00  0.00    -0.232 NA 
HETATM   27  H2  UNL     1      -9.458   5.543  73.110  1.00  0.00     0.000 HD 
HETATM   28  C   UNL     1      -9.943   7.042  71.826  1.00  0.00    -0.176 A  
HETATM   29  N   UNL     1     -10.101   5.823  72.370  1.00  0.00    -0.176 NA 
ENDBRANCH  17  22
ENDBRANCH  15  17
ENDBRANCH   1  13
BRANCH   8  30
HETATM   30  C   UNL     1      -9.051  17.022  67.155  1.00  0.00    -0.232 C  
HETATM   31  C   UNL     1      -6.605  16.226  66.919  1.00  0.00    -0.123 C  
HETATM   32  C   UNL     1      -7.799  17.080  66.672  1.00  0.00    -0.299 C  
HETATM   33  C   UNL     1      -5.461  17.204  66.714  1.00  0.00    -0.176 C  
HETATM   34  N   UNL     1      -5.987  18.278  65.895  1.00  0.00    -0.191 N  
HETATM   35  C   UNL     1      -7.370  18.198  65.782  1.00  0.00    -0.135 C  
HETATM   36  O   UNL     1      -8.121  18.870  65.101  1.00  0.00     0.453 OA 
BRANCH  34  37
HETATM   37  C   UNL     1      -5.130  19.113  65.037  1.00  0.00    -0.158 C  
HETATM   38  C   UNL     1      -5.306  20.616  65.267  1.00  0.00    -0.222 C  
HETATM   39  C   UNL     1      -6.498  20.963  64.395  1.00  0.00    -0.236 C  
HETATM   40  N   UNL     1      -6.395  20.114  63.210  1.00  0.00    -0.117 NA 
HETATM   41  H   UNL     1      -6.154  20.633  62.366  1.00  0.00     0.000 HD 
HETATM   42  C   UNL     1      -5.429  19.040  63.526  1.00  0.00    -0.215 C  
ENDBRANCH  34  37
ENDBRANCH   8  30
TORSDOF 6
ENDMDL
MODEL      148
REMARK 921   NORMALIZED FREE ENERGY PREDICTED BY IDOCK:    6.37 KCAL/MOL
REMARK 922        TOTAL FREE ENERGY PREDICTED BY IDOCK:    7.09 KCAL/MOL
REMARK 923 INTER-LIGAND FREE ENERGY PREDICTED BY IDOCK:    6.83 KCAL/MOL
REMARK 924 INTRA-LIGAND FREE ENERGY PREDICTED BY IDOCK:    0.26 KCAL/MOL
REMARK 927      BINDING AFFINITY PREDICTED BY RF-SCORE:    0.00 PKD
ROOT
HETATM    1  CA  UNL     1     -11.196  12.742  70.712  1.00  0.00     1.792 C  
HETATM    2  C   UNL     1      -8.339  15.037  68.893  1.00  0.00    -0.183 C  
HETATM    3  C   UNL     1     -12.115  13.452  69.647  1.00  0.00    -0.289 C  
HETATM    4  O   UNL     1     -13.207  13.329  69.145  1.00  0.00     1.555 OA 
HETATM    5  O   UNL     1     -13.129  15.298  67.541  1.00  0.00     2.106 OA 
HETATM    6  OXT UNL     1     -11.841  17.056  67.119  1.00  0.00     1.036 OA 
HETATM    7  N   UNL     1     -11.112  14.287  69.309  1.00  0.00    -0.263 N  
HETATM    8  C   UNL     1      -9.543  15.618  68.162  1.00  0.00    -0.196 C  
HETATM    9  CA  UNL     1     -10.837  15.261  68.388  1.00  0.00    -0.257 C  
HETATM   10  S   UNL     1      -8.621  13.452  69.709  1.00  0.00     2.384 SA 
HETATM   11  C   UNL     1     -10.224  13.931  70.402  1.00  0.00     1.982 C  
HETATM   12  C   UNL     1     -11.956  15.950  67.630  1.00  0.00     0.511 C  
ENDROOT
BRANCH   1  13
HETATM   13  N   UNL     1     -10.682  11.394  70.349  1.00  0.00     0.254 N  
HETATM   14  O   UNL     1     -12.665  10.263  70.537  1.00  0.00    -0.311 OA 
HETATM   15  C   UNL     1     -11.477  10.274  70.256  1.00  0.00    -0.317 C  
HETATM   16  H   UNL     1      -9.685  11.294  70.158  1.00  0.00     0.000 HD 
BRANCH  15  17
HETATM   17  C   UNL     1     -10.762   9.009  69.762  1.00  0.00    -0.225 C  
BRANCH  17  18
HETATM   18  N   UNL     1     -11.104   7.790  70.106  1.00  0.00    -0.347 NA 
HETATM   19  H   UNL     1     -10.932   7.412  71.039  1.00  0.00     0.000 HD 
HETATM   20  O   UNL     1     -11.723   7.050  69.095  1.00  0.00    -0.440 OA 
HETATM   21  H   UNL     1     -11.970   6.167  69.344  1.00  0.00     0.000 HD 
ENDBRANCH  17  18
BRANCH  17  22
HETATM   22  C   UNL     1      -9.635   9.138  68.835  1.00  0.00    -0.152 A  
HETATM   23  S   UNL     1      -7.409   9.034  67.879  1.00  0.00    -0.084 SA 
HETATM   24  H1  UNL     1      -9.229  10.669  65.149  1.00  0.00     0.000 HD 
HETATM   25  N   UNL     1      -8.410   8.711  69.171  1.00  0.00    -0.118 NA 
HETATM   26  N   UNL     1      -9.800   9.758  67.583  1.00  0.00    -0.159 NA 
HETATM   27  H2  UNL     1      -7.557  10.180  65.290  1.00  0.00     0.000 HD 
HETATM   28  C   UNL     1      -8.659   9.755  66.943  1.00  0.00    -0.124 A  
HETATM   29  N   UNL     1      -8.487  10.242  65.703  1.00  0.00    -0.153 NA 
ENDBRANCH  17  22
ENDBRANCH  15  17
ENDBRANCH   1  13
BRANCH   8  30
HETATM   30  C   UNL     1      -9.073  16.599  67.176  1.00  0.00    -0.227 C  
HETATM   31  C   UNL     1      -6.522  16.206  67.270  1.00  0.00    -0.216 C  
HETATM   32  C   UNL     1      -7.796  16.843  66.838  1.00  0.00    -0.252 C  
HETATM   33  C   UNL     1      -5.530  17.351  67.142  1.00  0.00    -0.140 C  
HETATM   34  N   UNL     1      -6.115  18.292  66.207  1.00  0.00    -0.169 N  
HETATM   35  C   UNL     1      -7.444  17.981  65.941  1.00  0.00    -0.178 C  
HETATM   36  O   UNL     1      -8.202  18.494  65.140  1.00  0.00     0.723 OA 
BRANCH  34  37
HETATM   37  C   UNL     1      -5.303  19.222  65.407  1.00  0.00    -0.157 C  
HETATM   38  C   UNL     1      -5.581  20.697  65.707  1.00  0.00    -0.236 C  
HETATM   39  C   UNL     1      -6.780  21.008  64.830  1.00  0.00     0.023 C  
HETATM   40  N   UNL     1      -6.602  20.227  63.607  1.00  0.00    -0.056 NA 
HETATM   41  H   UNL     1      -6.383  20.802  62.794  1.00  0.00     0.000 HD 
HETATM   42  C   UNL     1      -5.573  19.205  63.889  1.00  0.00    -0.290 C  
ENDBRANCH  34  37
ENDBRANCH   8  30
TORSDOF 6
ENDMDL
MODEL      149
REMARK 921   NORMALIZED FREE ENERGY PREDICTED BY IDOCK:    6.88 KCAL/MOL
REMARK 922        TOTAL FREE ENERGY PREDICTED BY IDOCK:    7.77 KCAL/MOL
REMARK 923 INTER-LIGAND FREE ENERGY PREDICTED BY IDOCK:    1.60 KCAL/MOL
REMARK 924 INTRA-LIGAND FREE ENERGY PREDICTED BY IDOCK:    6.17 KCAL/MOL
REMARK 927      BINDING AFFINITY PREDICTED BY RF-SCORE:    0.00 PKD
ROOT
HETATM    1  CA  UNL     1      -9.734  15.534  66.566  1.00  0.00    -0.270 C  
HETATM    2  C   UNL     1      -9.142  11.578  67.423  1.00  0.00    -0.166 C  
HETATM    3  C   UNL     1     -10.115  14.935  65.160  1.00  0.00    -0.319 C  
HETATM    4  O   UNL     1     -10.683  15.260  64.144  1.00  0.00     0.245 OA 
HETATM    5  O   UNL     1     -10.473  13.077  62.860  1.00  0.00     0.810 OA 
HETATM    6  OXT UNL     1      -9.424  11.129  63.041  1.00  0.00    -0.307 OA 
HETATM    7  N   UNL     1      -9.671  13.719  65.536  1.00  0.00    -0.140 N  
HETATM    8  C   UNL     1      -9.404  11.412  65.931  1.00  0.00    -0.247 C  
HETATM    9  CA  UNL     1      -9.632  12.436  65.063  1.00  0.00     0.082 C  
HETATM   10  S   UNL     1      -9.677  13.149  68.132  1.00  0.00    -0.226 SA 
HETATM   11  C   UNL     1      -9.031  14.149  66.767  1.00  0.00    -0.208 C  
HETATM   12  C   UNL     1      -9.829  12.147  63.587  1.00  0.00    -0.232 C  
ENDROOT
BRANCH   1  13
HETATM   13  N   UNL     1     -10.863  15.810  67.495  1.00  0.00    -0.318 N  
HETATM   14  O   UNL     1     -10.386  14.179  69.031  1.00  0.00    -0.223 OA 
HETATM   15  C   UNL     1     -11.067  15.127  68.673  1.00  0.00    -0.271 C  
HETATM   16  H   UNL     1     -11.524  16.547  67.246  1.00  0.00     0.000 HD 
BRANCH  15  17
HETATM   17  C   UNL     1     -12.228  15.644  69.533  1.00  0.00    -0.207 C  
BRANCH  17  18
HETATM   18  N   UNL     1     -13.176  16.435  69.089  1.00  0.00     1.265 NA 
HETATM   19  H   UNL     1     -13.696  17.066  69.699  1.00  0.00     0.000 HD 
HETATM   20  O   UNL     1     -13.416  16.344  67.715  1.00  0.00     3.645 OA 
HETATM   21  H   UNL     1     -14.103  16.917  67.394  1.00  0.00     0.000 HD 
ENDBRANCH  17  18
BRANCH  17  22
HETATM   22  C   UNL     1     -12.320  15.232  70.936  1.00  0.00    -0.377 A  
HETATM   23  S   UNL     1     -12.043  15.162  73.344  1.00  0.00    -0.400 SA 
HETATM   24  H1  UNL     1     -14.047  12.138  72.818  1.00  0.00     0.000 HD 
HETATM   25  N   UNL     1     -11.726  15.941  71.906  1.00  0.00    -0.465 NA 
HETATM   26  N   UNL     1     -12.995  14.051  71.297  1.00  0.00    -0.339 NA 
HETATM   27  H2  UNL     1     -13.419  12.867  74.277  1.00  0.00     0.000 HD 
HETATM   28  C   UNL     1     -12.937  13.899  72.595  1.00  0.00    -0.346 A  
HETATM   29  N   UNL     1     -13.516  12.887  73.263  1.00  0.00     0.839 NA 
ENDBRANCH  17  22
ENDBRANCH  15  17
ENDBRANCH   1  13
BRANCH   8  30
HETATM   30  C   UNL     1      -9.385   9.982  65.601  1.00  0.00    -0.257 C  
HETATM   31  C   UNL     1      -7.829   9.072  67.450  1.00  0.00    -0.100 C  
HETATM   32  C   UNL     1      -8.696   9.024  66.241  1.00  0.00    -0.155 C  
HETATM   33  C   UNL     1      -6.843   7.947  67.185  1.00  0.00    -0.073 C  
HETATM   34  N   UNL     1      -7.485   7.060  66.234  1.00  0.00    -0.079 N  
HETATM   35  C   UNL     1      -8.634   7.633  65.704  1.00  0.00    -0.123 C  
HETATM   36  O   UNL     1      -9.460   7.139  64.960  1.00  0.00     0.901 OA 
BRANCH  34  37
HETATM   37  C   UNL     1      -7.141   5.633  66.125  1.00  0.00    -0.068 C  
HETATM   38  C   UNL     1      -8.282   4.693  66.522  1.00  0.00    -0.107 C  
HETATM   39  C   UNL     1      -8.144   4.599  68.030  1.00  0.00    -0.088 C  
HETATM   40  N   UNL     1      -6.711   4.646  68.311  1.00  0.00    -0.049 NA 
HETATM   41  H   UNL     1      -6.339   3.754  68.639  1.00  0.00     0.000 HD 
HETATM   42  C   UNL     1      -6.043   5.138  67.087  1.00  0.00    -0.030 C  
ENDBRANCH  34  37
ENDBRANCH   8  30
TORSDOF 6
ENDMDL
MODEL      150
REMARK 921   NORMALIZED FREE ENERGY PREDICTED BY IDOCK:   17.17 KCAL/MOL
REMARK 922        TOTAL FREE ENERGY PREDICTED BY IDOCK:   21.67 KCAL/MOL
REMARK 923 INTER-LIGAND FREE ENERGY PREDICTED BY IDOCK:   20.02 KCAL/MOL
REMARK 924 INTRA-LIGAND FREE ENERGY PREDICTED BY IDOCK:    1.64 KCAL/MOL
REMARK 927      BINDING AFFINITY PREDICTED BY RF-SCORE:    0.00 PKD
ROOT
HETATM    1  CA  UNL     1      -7.997  12.743  70.672  1.00  0.00     5.674 C  
HETATM    2  C   UNL     1      -6.306  14.193  67.240  1.00  0.00     0.413 C  
HETATM    3  C   UNL     1      -8.187  14.281  70.955  1.00  0.00     3.516 C  
HETATM    4  O   UNL     1      -8.820  15.013  71.678  1.00  0.00     3.180 OA 
HETATM    5  O   UNL     1      -7.993  17.249  70.799  1.00  0.00     3.957 OA 
HETATM    6  OXT UNL     1      -6.434  18.028  69.425  1.00  0.00    -0.254 OA 
HETATM    7  N   UNL     1      -7.416  14.591  69.893  1.00  0.00     0.080 N  
HETATM    8  C   UNL     1      -6.505  15.535  67.937  1.00  0.00    -0.171 C  
HETATM    9  CA  UNL     1      -7.012  15.693  69.190  1.00  0.00    -0.166 C  
HETATM   10  S   UNL     1      -7.269  12.824  67.914  1.00  0.00    -0.138 SA 
HETATM   11  C   UNL     1      -6.929  13.246  69.642  1.00  0.00     0.242 C  
HETATM   12  C   UNL     1      -7.113  17.080  69.796  1.00  0.00     0.361 C  
ENDROOT
BRANCH   1  13
HETATM   13  N   UNL     1      -9.162  12.031  70.078  1.00  0.00     2.076 N  
HETATM   14  O   UNL     1      -8.116  10.029  69.692  1.00  0.00    -0.143 OA 
HETATM   15  C   UNL     1      -9.126  10.716  69.674  1.00  0.00     0.163 C  
HETATM   16  H   UNL     1     -10.035  12.546  69.964  1.00  0.00     0.000 HD 
BRANCH  15  17
HETATM   17  C   UNL     1     -10.467  10.148  69.190  1.00  0.00    -0.222 C  
BRANCH  17  18
HETATM   18  N   UNL     1     -10.957  10.344  67.990  1.00  0.00    -0.274 NA 
HETATM   19  H   UNL     1     -10.495  10.008  67.144  1.00  0.00     0.000 HD 
HETATM   20  O   UNL     1     -12.164  11.048  67.960  1.00  0.00    -0.703 OA 
HETATM   21  H   UNL     1     -12.520  11.190  67.091  1.00  0.00     0.000 HD 
ENDBRANCH  17  18
BRANCH  17  22
HETATM   22  C   UNL     1     -11.263   9.317  70.097  1.00  0.00    -0.208 A  
HETATM   23  S   UNL     1     -12.262   7.396  71.190  1.00  0.00    -0.303 SA 
HETATM   24  H1  UNL     1     -13.844  10.123  73.061  1.00  0.00     0.000 HD 
HETATM   25  N   UNL     1     -11.233   7.979  70.016  1.00  0.00    -0.158 NA 
HETATM   26  N   UNL     1     -12.118   9.904  71.047  1.00  0.00    -0.332 NA 
HETATM   27  H2  UNL     1     -13.979   8.387  73.216  1.00  0.00     0.000 HD 
HETATM   28  C   UNL     1     -12.718   8.964  71.731  1.00  0.00    -0.364 A  
HETATM   29  N   UNL     1     -13.574   9.193  72.740  1.00  0.00    -0.346 NA 
ENDBRANCH  17  22
ENDBRANCH  15  17
ENDBRANCH   1  13
BRANCH   8  30
HETATM   30  C   UNL     1      -6.079  16.608  67.031  1.00  0.00    -0.199 C  
HETATM   31  C   UNL     1      -8.123  18.182  67.135  1.00  0.00    -0.230 C  
HETATM   32  C   UNL     1      -6.788  17.697  66.692  1.00  0.00    -0.252 C  
HETATM   33  C   UNL     1      -8.611  18.943  65.914  1.00  0.00     0.137 C  
HETATM   34  N   UNL     1      -7.427  19.293  65.154  1.00  0.00     0.393 N  
HETATM   35  C   UNL     1      -6.304  18.629  65.633  1.00  0.00    -0.264 C  
HETATM   36  O   UNL     1      -5.142  18.758  65.299  1.00  0.00    -0.142 OA 
BRANCH  34  37
HETATM   37  C   UNL     1      -7.385  20.446  64.240  1.00  0.00     0.990 C  
HETATM   38  C   UNL     1      -7.295  20.058  62.763  1.00  0.00     4.170 C  
HETATM   39  C   UNL     1      -5.807  19.849  62.550  1.00  0.00    -0.161 C  
HETATM   40  N   UNL     1      -5.134  20.835  63.392  1.00  0.00    -0.184 NA 
HETATM   41  H   UNL     1      -4.683  21.577  62.857  1.00  0.00     0.000 HD 
HETATM   42  C   UNL     1      -6.134  21.341  64.355  1.00  0.00    -0.116 C  
ENDBRANCH  34  37
ENDBRANCH   8  30
TORSDOF 6
ENDMDL
MODEL      151
REMARK 921   NORMALIZED FREE ENERGY PREDICTED BY IDOCK:   18.89 KCAL/MOL
REMARK 922        TOTAL FREE ENERGY PREDICTED BY IDOCK:   23.99 KCAL/MOL
REMARK 923 INTER-LIGAND FREE ENERGY PREDICTED BY IDOCK:   21.07 KCAL/MOL
REMARK 924 INTRA-LIGAND FREE ENERGY PREDICTED BY IDOCK:    2.92 KCAL/MOL
REMARK 927      BINDING AFFINITY PREDICTED BY RF-SCORE:    0.00 PKD
ROOT
HETATM    1  CA  UNL     1      -7.901  12.739  70.724  1.00  0.00     5.930 C  
HETATM    2  C   UNL     1      -6.214  14.166  67.281  1.00  0.00     0.458 C  
HETATM    3  C   UNL     1      -8.131  14.277  70.976  1.00  0.00     3.718 C  
HETATM    4  O   UNL     1      -8.788  15.007  71.679  1.00  0.00     3.180 OA 
HETATM    5  O   UNL     1      -8.008  17.245  70.765  1.00  0.00     3.957 OA 
HETATM    6  OXT UNL     1      -6.456  18.036  69.389  1.00  0.00    -0.254 OA 
HETATM    7  N   UNL     1      -7.358  14.586  69.915  1.00  0.00     0.021 N  
HETATM    8  C   UNL     1      -6.452  15.514  67.949  1.00  0.00    -0.171 C  
HETATM    9  CA  UNL     1      -6.974  15.684  69.195  1.00  0.00    -0.166 C  
HETATM   10  S   UNL     1      -7.149  12.785  67.972  1.00  0.00    -0.129 SA 
HETATM   11  C   UNL     1      -6.836  13.249  69.694  1.00  0.00     0.151 C  
HETATM   12  C   UNL     1      -7.115  17.080  69.773  1.00  0.00     0.361 C  
ENDROOT
BRANCH   1  13
HETATM   13  N   UNL     1      -9.041  11.987  70.134  1.00  0.00     2.669 N  
HETATM   14  O   UNL     1      -7.834  10.228  69.300  1.00  0.00    -0.115 OA 
HETATM   15  C   UNL     1      -8.909  10.771  69.504  1.00  0.00     0.153 C  
HETATM   16  H   UNL     1      -9.974  12.396  70.201  1.00  0.00     0.000 HD 
BRANCH  15  17
HETATM   17  C   UNL     1     -10.227  10.120  69.064  1.00  0.00    -0.206 C  
BRANCH  17  18
HETATM   18  N   UNL     1     -11.412  10.625  69.303  1.00  0.00    -0.270 NA 
HETATM   19  H   UNL     1     -12.033  10.950  68.561  1.00  0.00     0.000 HD 
HETATM   20  O   UNL     1     -11.760  10.684  70.656  1.00  0.00    -0.320 OA 
HETATM   21  H   UNL     1     -12.619  11.051  70.829  1.00  0.00     0.000 HD 
ENDBRANCH  17  18
BRANCH  17  22
HETATM   22  C   UNL     1     -10.188   8.862  68.312  1.00  0.00    -0.201 A  
HETATM   23  S   UNL     1     -10.587   6.570  67.625  1.00  0.00    -0.310 SA 
HETATM   24  H1  UNL     1      -8.249   7.649  65.016  1.00  0.00     0.000 HD 
HETATM   25  N   UNL     1     -10.892   7.794  68.714  1.00  0.00    -0.050 NA 
HETATM   26  N   UNL     1      -9.372   8.727  67.174  1.00  0.00    -0.145 NA 
HETATM   27  H2  UNL     1      -9.072   6.129  65.271  1.00  0.00     0.000 HD 
HETATM   28  C   UNL     1      -9.507   7.522  66.684  1.00  0.00    -0.191 A  
HETATM   29  N   UNL     1      -8.889   7.085  65.574  1.00  0.00    -0.025 NA 
ENDBRANCH  17  22
ENDBRANCH  15  17
ENDBRANCH   1  13
BRANCH   8  30
HETATM   30  C   UNL     1      -6.044  16.580  67.026  1.00  0.00    -0.173 C  
HETATM   31  C   UNL     1      -8.100  18.139  67.134  1.00  0.00    -0.230 C  
HETATM   32  C   UNL     1      -6.765  17.660  66.683  1.00  0.00    -0.244 C  
HETATM   33  C   UNL     1      -8.607  18.882  65.909  1.00  0.00     0.137 C  
HETATM   34  N   UNL     1      -7.433  19.233  65.133  1.00  0.00     0.393 N  
HETATM   35  C   UNL     1      -6.300  18.584  65.608  1.00  0.00    -0.273 C  
HETATM   36  O   UNL     1      -5.142  18.717  65.261  1.00  0.00    -0.142 OA 
BRANCH  34  37
HETATM   37  C   UNL     1      -7.410  20.376  64.206  1.00  0.00     0.990 C  
HETATM   38  C   UNL     1      -7.160  19.981  62.749  1.00  0.00     2.986 C  
HETATM   39  C   UNL     1      -5.647  19.898  62.667  1.00  0.00    -0.294 C  
HETATM   40  N   UNL     1      -5.135  20.947  63.546  1.00  0.00    -0.190 NA 
HETATM   41  H   UNL     1      -4.704  21.720  63.038  1.00  0.00     0.000 HD 
HETATM   42  C   UNL     1      -6.254  21.375  64.411  1.00  0.00     0.066 C  
ENDBRANCH  34  37
ENDBRANCH   8  30
TORSDOF 6
ENDMDL
MODEL      152
REMARK 921   NORMALIZED FREE ENERGY PREDICTED BY IDOCK:   20.09 KCAL/MOL
REMARK 922        TOTAL FREE ENERGY PREDICTED BY IDOCK:   25.61 KCAL/MOL
REMARK 923 INTER-LIGAND FREE ENERGY PREDICTED BY IDOCK:   22.86 KCAL/MOL
REMARK 924 INTRA-LIGAND FREE ENERGY PREDICTED BY IDOCK:    2.75 KCAL/MOL
REMARK 927      BINDING AFFINITY PREDICTED BY RF-SCORE:    0.00 PKD
ROOT
HETATM    1  CA  UNL     1      -7.889  12.743  70.713  1.00  0.00     5.930 C  
HETATM    2  C   UNL     1      -6.285  14.208  67.247  1.00  0.00     0.458 C  
HETATM    3  C   UNL     1      -8.064  14.279  71.011  1.00  0.00     3.718 C  
HETATM    4  O   UNL     1      -8.674  15.010  71.756  1.00  0.00     3.541 OA 
HETATM    5  O   UNL     1      -7.860  17.248  70.870  1.00  0.00     4.342 OA 
HETATM    6  OXT UNL     1      -6.335  18.028  69.459  1.00  0.00    -0.249 OA 
HETATM    7  N   UNL     1      -7.320  14.593  69.931  1.00  0.00    -0.037 N  
HETATM    8  C   UNL     1      -6.459  15.546  67.957  1.00  0.00    -0.148 C  
HETATM    9  CA  UNL     1      -6.930  15.698  69.225  1.00  0.00    -0.179 C  
HETATM   10  S   UNL     1      -7.235  12.838  67.937  1.00  0.00    -0.138 SA 
HETATM   11  C   UNL     1      -6.847  13.248  69.658  1.00  0.00     0.151 C  
HETATM   12  C   UNL     1      -7.009  17.082  69.842  1.00  0.00     0.467 C  
ENDROOT
BRANCH   1  13
HETATM   13  N   UNL     1      -9.072  12.040  70.147  1.00  0.00     2.669 N  
HETATM   14  O   UNL     1     -10.094  13.875  69.233  1.00  0.00    -0.001 OA 
HETATM   15  C   UNL     1     -10.057  12.669  69.419  1.00  0.00     0.713 C  
HETATM   16  H   UNL     1      -9.159  11.036  70.307  1.00  0.00     0.000 HD 
BRANCH  15  17
HETATM   17  C   UNL     1     -11.130  11.739  68.837  1.00  0.00    -0.243 C  
BRANCH  17  18
HETATM   18  N   UNL     1     -11.730  10.793  69.518  1.00  0.00    -0.294 NA 
HETATM   19  H   UNL     1     -11.502   9.804  69.406  1.00  0.00     0.000 HD 
HETATM   20  O   UNL     1     -12.706  11.245  70.411  1.00  0.00    -0.223 OA 
HETATM   21  H   UNL     1     -13.141  10.559  70.904  1.00  0.00     0.000 HD 
ENDBRANCH  17  18
BRANCH  17  22
HETATM   22  C   UNL     1     -11.543  11.906  67.441  1.00  0.00    -0.297 A  
HETATM   23  S   UNL     1     -11.793  11.574  65.052  1.00  0.00     0.420 SA 
HETATM   24  H1  UNL     1     -13.805  14.603  65.515  1.00  0.00     0.000 HD 
HETATM   25  N   UNL     1     -11.132  11.056  66.491  1.00  0.00    -0.177 NA 
HETATM   26  N   UNL     1     -12.345  12.995  67.054  1.00  0.00    -0.307 NA 
HETATM   27  H2  UNL     1     -13.465  13.651  64.090  1.00  0.00     0.000 HD 
HETATM   28  C   UNL     1     -12.576  12.928  65.768  1.00  0.00    -0.106 A  
HETATM   29  N   UNL     1     -13.341  13.801  65.091  1.00  0.00    -0.487 NA 
ENDBRANCH  17  22
ENDBRANCH  15  17
ENDBRANCH   1  13
BRANCH   8  30
HETATM   30  C   UNL     1      -6.051  16.623  67.047  1.00  0.00    -0.199 C  
HETATM   31  C   UNL     1      -8.088  18.203  67.212  1.00  0.00    -0.230 C  
HETATM   32  C   UNL     1      -6.765  17.716  66.733  1.00  0.00    -0.226 C  
HETATM   33  C   UNL     1      -8.604  18.973  66.008  1.00  0.00    -0.065 C  
HETATM   34  N   UNL     1      -7.438  19.324  65.221  1.00  0.00     0.202 N  
HETATM   35  C   UNL     1      -6.305  18.653  65.667  1.00  0.00    -0.264 C  
HETATM   36  O   UNL     1      -5.152  18.780  65.305  1.00  0.00    -0.142 OA 
BRANCH  34  37
HETATM   37  C   UNL     1      -7.415  20.482  64.313  1.00  0.00     1.128 C  
HETATM   38  C   UNL     1      -7.367  20.102  62.832  1.00  0.00     3.488 C  
HETATM   39  C   UNL     1      -5.886  19.888  62.577  1.00  0.00    -0.161 C  
HETATM   40  N   UNL     1      -5.186  20.866  63.407  1.00  0.00    -0.199 NA 
HETATM   41  H   UNL     1      -4.747  21.610  62.864  1.00  0.00     0.000 HD 
HETATM   42  C   UNL     1      -6.158  21.370  64.400  1.00  0.00     0.010 C  
ENDBRANCH  34  37
ENDBRANCH   8  30
TORSDOF 6
ENDMDL
MODEL      153
REMARK 921   NORMALIZED FREE ENERGY PREDICTED BY IDOCK:   22.23 KCAL/MOL
REMARK 922        TOTAL FREE ENERGY PREDICTED BY IDOCK:   28.51 KCAL/MOL
REMARK 923 INTER-LIGAND FREE ENERGY PREDICTED BY IDOCK:   27.20 KCAL/MOL
REMARK 924 INTRA-LIGAND FREE ENERGY PREDICTED BY IDOCK:    1.31 KCAL/MOL
REMARK 927      BINDING AFFINITY PREDICTED BY RF-SCORE:    0.00 PKD
ROOT
HETATM    1  CA  UNL     1      -8.415   8.765  73.611  1.00  0.00     0.473 C  
HETATM    2  C   UNL     1      -6.755  11.459  71.019  1.00  0.00     1.948 C  
HETATM    3  C   UNL     1      -9.696   9.073  72.749  1.00  0.00     0.870 C  
HETATM    4  O   UNL     1     -10.792   8.612  72.529  1.00  0.00    -0.306 OA 
HETATM    5  O   UNL     1     -11.602  10.313  70.824  1.00  0.00    -0.310 OA 
HETATM    6  OXT UNL     1     -10.970  12.272  69.992  1.00  0.00     0.241 OA 
HETATM    7  N   UNL     1      -9.059  10.087  72.128  1.00  0.00     3.826 N  
HETATM    8  C   UNL     1      -8.198  11.614  70.556  1.00  0.00     4.438 C  
HETATM    9  CA  UNL     1      -9.265  10.971  71.106  1.00  0.00     6.183 C  
HETATM   10  S   UNL     1      -6.408   9.973  71.982  1.00  0.00     1.065 SA 
HETATM   11  C   UNL     1      -7.898  10.112  73.001  1.00  0.00     5.918 C  
HETATM   12  C   UNL     1     -10.664  11.249  70.589  1.00  0.00     1.599 C  
ENDROOT
BRANCH   1  13
HETATM   13  N   UNL     1      -7.635   7.557  73.228  1.00  0.00    -0.092 N  
HETATM   14  O   UNL     1      -8.855   6.028  74.421  1.00  0.00    -0.121 OA 
HETATM   15  C   UNL     1      -7.951   6.282  73.640  1.00  0.00    -0.100 C  
HETATM   16  H   UNL     1      -6.820   7.680  72.627  1.00  0.00     0.000 HD 
BRANCH  15  17
HETATM   17  C   UNL     1      -7.078   5.170  73.042  1.00  0.00    -0.088 C  
BRANCH  17  18
HETATM   18  N   UNL     1      -5.767   5.178  73.054  1.00  0.00    -0.021 NA 
HETATM   19  H   UNL     1      -5.208   4.457  72.597  1.00  0.00     0.000 HD 
HETATM   20  O   UNL     1      -5.196   6.252  73.743  1.00  0.00    -0.038 OA 
HETATM   21  H   UNL     1      -4.246   6.258  73.751  1.00  0.00     0.000 HD 
ENDBRANCH  17  18
BRANCH  17  22
HETATM   22  C   UNL     1      -7.723   4.006  72.427  1.00  0.00    -0.080 A  
HETATM   23  S   UNL     1      -8.359   1.723  71.913  1.00  0.00    -0.048 SA 
HETATM   24  H1  UNL     1     -10.341   3.542  69.423  1.00  0.00     0.000 HD 
HETATM   25  N   UNL     1      -7.454   2.763  72.850  1.00  0.00    -0.044 NA 
HETATM   26  N   UNL     1      -8.605   4.162  71.343  1.00  0.00    -0.099 NA 
HETATM   27  H2  UNL     1     -10.220   1.835  69.778  1.00  0.00     0.000 HD 
HETATM   28  C   UNL     1      -9.045   2.987  70.970  1.00  0.00    -0.115 A  
HETATM   29  N   UNL     1      -9.934   2.792  69.982  1.00  0.00     0.298 NA 
ENDBRANCH  17  22
ENDBRANCH  15  17
ENDBRANCH   1  13
BRANCH   8  30
HETATM   30  C   UNL     1      -8.236  12.547  69.423  1.00  0.00     0.998 C  
HETATM   31  C   UNL     1      -9.712  14.434  70.390  1.00  0.00     1.579 C  
HETATM   32  C   UNL     1      -8.900  13.714  69.371  1.00  0.00     0.884 C  
HETATM   33  C   UNL     1     -10.713  15.188  69.531  1.00  0.00    -0.266 C  
HETATM   34  N   UNL     1     -10.116  15.296  68.214  1.00  0.00    -0.223 N  
HETATM   35  C   UNL     1      -8.989  14.490  68.101  1.00  0.00    -0.182 C  
HETATM   36  O   UNL     1      -8.199  14.409  67.180  1.00  0.00    -0.204 OA 
BRANCH  34  37
HETATM   37  C   UNL     1     -10.469  16.369  67.270  1.00  0.00    -0.303 C  
HETATM   38  C   UNL     1      -9.263  17.161  66.760  1.00  0.00    -0.270 C  
HETATM   39  C   UNL     1      -9.047  18.201  67.845  1.00  0.00    -0.265 C  
HETATM   40  N   UNL     1     -10.377  18.561  68.331  1.00  0.00    -0.358 NA 
HETATM   41  H   UNL     1     -10.659  19.504  68.064  1.00  0.00     0.000 HD 
HETATM   42  C   UNL     1     -11.312  17.519  67.856  1.00  0.00     0.413 C  
ENDBRANCH  34  37
ENDBRANCH   8  30
TORSDOF 6
ENDMDL
MODEL      154
REMARK 921   NORMALIZED FREE ENERGY PREDICTED BY IDOCK:   26.85 KCAL/MOL
REMARK 922        TOTAL FREE ENERGY PREDICTED BY IDOCK:   34.74 KCAL/MOL
REMARK 923 INTER-LIGAND FREE ENERGY PREDICTED BY IDOCK:   28.35 KCAL/MOL
REMARK 924 INTRA-LIGAND FREE ENERGY PREDICTED BY IDOCK:    6.39 KCAL/MOL
REMARK 927      BINDING AFFINITY PREDICTED BY RF-SCORE:    0.00 PKD
ROOT
HETATM    1  CA  UNL     1     -10.197  14.582  67.299  1.00  0.00    -0.255 C  
HETATM    2  C   UNL     1     -10.574  10.554  67.913  1.00  0.00    -0.232 C  
HETATM    3  C   UNL     1     -10.829  14.196  65.909  1.00  0.00    -0.294 C  
HETATM    4  O   UNL     1     -11.373  14.721  64.967  1.00  0.00    -0.358 OA 
HETATM    5  O   UNL     1     -11.833  12.650  63.569  1.00  0.00    -0.476 OA 
HETATM    6  OXT UNL     1     -11.308  10.493  63.560  1.00  0.00     1.098 OA 
HETATM    7  N   UNL     1     -10.683  12.884  66.185  1.00  0.00    -0.269 N  
HETATM    8  C   UNL     1     -10.987  10.563  66.446  1.00  0.00    -0.019 C  
HETATM    9  CA  UNL     1     -11.013  11.668  65.651  1.00  0.00    -0.266 C  
HETATM   10  S   UNL     1     -10.630  12.157  68.741  1.00  0.00    -0.161 SA 
HETATM   11  C   UNL     1      -9.859  13.053  67.369  1.00  0.00    -0.215 C  
HETATM   12  C   UNL     1     -11.393  11.540  64.189  1.00  0.00    -0.267 C  
ENDROOT
BRANCH   1  13
HETATM   13  N   UNL     1     -11.140  15.068  68.343  1.00  0.00    -0.265 N  
HETATM   14  O   UNL     1     -10.930  13.296  69.778  1.00  0.00     0.043 OA 
HETATM   15  C   UNL     1     -11.394  14.394  69.515  1.00  0.00    -0.276 C  
HETATM   16  H   UNL     1     -11.625  15.951  68.180  1.00  0.00     0.000 HD 
BRANCH  15  17
HETATM   17  C   UNL     1     -12.318  15.126  70.499  1.00  0.00    -0.358 C  
BRANCH  17  18
HETATM   18  N   UNL     1     -13.020  16.190  70.195  1.00  0.00    -0.424 NA 
HETATM   19  H   UNL     1     -12.599  17.037  69.810  1.00  0.00     0.000 HD 
HETATM   20  O   UNL     1     -14.391  16.075  70.439  1.00  0.00     0.388 OA 
HETATM   21  H   UNL     1     -14.900  16.847  70.219  1.00  0.00     0.000 HD 
ENDBRANCH  17  18
BRANCH  17  22
HETATM   22  C   UNL     1     -12.456  14.616  71.866  1.00  0.00    -0.341 A  
HETATM   23  S   UNL     1     -12.096  14.226  74.232  1.00  0.00     2.236 SA 
HETATM   24  H1  UNL     1     -14.908  11.960  73.607  1.00  0.00     0.000 HD 
HETATM   25  N   UNL     1     -11.637  15.026  72.844  1.00  0.00    -0.262 NA 
HETATM   26  N   UNL     1     -13.424  13.644  72.177  1.00  0.00    -0.467 NA 
HETATM   27  H2  UNL     1     -14.028  12.330  75.071  1.00  0.00     0.000 HD 
HETATM   28  C   UNL     1     -13.351  13.350  73.449  1.00  0.00     2.052 A  
HETATM   29  N   UNL     1     -14.164  12.480  74.072  1.00  0.00     7.525 NA 
ENDBRANCH  17  22
ENDBRANCH  15  17
ENDBRANCH   1  13
BRANCH   8  30
HETATM   30  C   UNL     1     -11.362   9.200  66.050  1.00  0.00     3.091 C  
HETATM   31  C   UNL     1      -9.986   7.804  67.732  1.00  0.00    -0.220 C  
HETATM   32  C   UNL     1     -10.908   8.058  66.591  1.00  0.00     0.338 C  
HETATM   33  C   UNL     1      -9.345   6.483  67.340  1.00  0.00    -0.121 C  
HETATM   34  N   UNL     1     -10.253   5.854  66.401  1.00  0.00    -0.144 N  
HETATM   35  C   UNL     1     -11.244   6.736  65.987  1.00  0.00     2.284 C  
HETATM   36  O   UNL     1     -12.214   6.519  65.286  1.00  0.00     5.975 OA 
BRANCH  34  37
HETATM   37  C   UNL     1     -10.301   4.396  66.201  1.00  0.00    -0.141 C  
HETATM   38  C   UNL     1      -9.895   3.955  64.793  1.00  0.00    -0.197 C  
HETATM   39  C   UNL     1     -11.183   4.094  64.002  1.00  0.00     0.412 C  
HETATM   40  N   UNL     1     -12.263   3.732  64.917  1.00  0.00     2.354 NA 
HETATM   41  H   UNL     1     -12.704   2.843  64.683  1.00  0.00     0.000 HD 
HETATM   42  C   UNL     1     -11.702   3.759  66.285  1.00  0.00     6.584 C  
ENDBRANCH  34  37
ENDBRANCH   8  30
TORSDOF 6
ENDMDL
MODEL      155
REMARK 921   NORMALIZED FREE ENERGY PREDICTED BY IDOCK:   37.94 KCAL/MOL
REMARK 922        TOTAL FREE ENERGY PREDICTED BY IDOCK:   49.72 KCAL/MOL
REMARK 923 INTER-LIGAND FREE ENERGY PREDICTED BY IDOCK:   48.58 KCAL/MOL
REMARK 924 INTRA-LIGAND FREE ENERGY PREDICTED BY IDOCK:    1.14 KCAL/MOL
REMARK 927      BINDING AFFINITY PREDICTED BY RF-SCORE:    0.00 PKD
ROOT
HETATM    1  CA  UNL     1     -13.637  16.163  70.259  1.00  0.00     2.515 C  
HETATM    2  C   UNL     1     -14.375  12.145  70.047  1.00  0.00     7.500 C  
HETATM    3  C   UNL     1     -12.538  15.674  71.276  1.00  0.00    -0.463 C  
HETATM    4  O   UNL     1     -11.538  16.081  71.818  1.00  0.00    -0.444 OA 
HETATM    5  O   UNL     1     -10.917  13.993  73.125  1.00  0.00     2.856 OA 
HETATM    6  OXT UNL     1     -11.794  12.017  73.627  1.00  0.00     8.428 OA 
HETATM    7  N   UNL     1     -13.047  14.425  71.255  1.00  0.00    -0.337 N  
HETATM    8  C   UNL     1     -13.355  12.092  71.178  1.00  0.00     0.247 C  
HETATM    9  CA  UNL     1     -12.759  13.179  71.741  1.00  0.00    -0.168 C  
HETATM   10  S   UNL     1     -14.382  13.671  69.085  1.00  0.00    11.326 SA 
HETATM   11  C   UNL     1     -14.263  14.753  70.532  1.00  0.00     0.880 C  
HETATM   12  C   UNL     1     -11.796  13.000  72.899  1.00  0.00     4.214 C  
ENDROOT
BRANCH   1  13
HETATM   13  N   UNL     1     -13.187  16.394  68.859  1.00  0.00     1.607 N  
HETATM   14  O   UNL     1     -11.150  15.359  69.031  1.00  0.00    -0.238 OA 
HETATM   15  C   UNL     1     -11.991  15.934  68.357  1.00  0.00     0.035 C  
HETATM   16  H   UNL     1     -13.799  16.923  68.238  1.00  0.00     0.000 HD 
BRANCH  15  17
HETATM   17  C   UNL     1     -11.773  16.191  66.860  1.00  0.00     0.774 C  
BRANCH  17  18
HETATM   18  N   UNL     1     -12.666  16.737  66.070  1.00  0.00     4.806 NA 
HETATM   19  H   UNL     1     -13.294  17.480  66.379  1.00  0.00     0.000 HD 
HETATM   20  O   UNL     1     -12.690  16.221  64.771  1.00  0.00     1.028 OA 
HETATM   21  H   UNL     1     -13.337  16.616  64.199  1.00  0.00     0.000 HD 
ENDBRANCH  17  18
BRANCH  17  22
HETATM   22  C   UNL     1     -10.490  15.830  66.250  1.00  0.00    -0.309 A  
HETATM   23  S   UNL     1      -8.297  15.981  65.226  1.00  0.00     3.642 SA 
HETATM   24  H1  UNL     1      -8.771  12.346  65.247  1.00  0.00     0.000 HD 
HETATM   25  N   UNL     1      -9.611  16.771  65.879  1.00  0.00    -0.509 NA 
HETATM   26  N   UNL     1     -10.168  14.485  65.994  1.00  0.00    -0.300 NA 
HETATM   27  H2  UNL     1      -7.434  13.332  64.703  1.00  0.00     0.000 HD 
HETATM   28  C   UNL     1      -8.981  14.419  65.448  1.00  0.00     1.384 A  
HETATM   29  N   UNL     1      -8.366  13.272  65.114  1.00  0.00     3.221 NA 
ENDBRANCH  17  22
ENDBRANCH  15  17
ENDBRANCH   1  13
BRANCH   8  30
HETATM   30  C   UNL     1     -13.118  10.688  71.539  1.00  0.00    -0.527 C  
HETATM   31  C   UNL     1     -10.728  10.342  70.625  1.00  0.00    -0.125 C  
HETATM   32  C   UNL     1     -12.015   9.970  71.274  1.00  0.00    -0.483 C  
HETATM   33  C   UNL     1     -10.295   9.029  69.993  1.00  0.00    -0.206 C  
HETATM   34  N   UNL     1     -10.985   7.982  70.720  1.00  0.00    -0.244 N  
HETATM   35  C   UNL     1     -11.968   8.505  71.551  1.00  0.00    -0.303 C  
HETATM   36  O   UNL     1     -12.664   7.930  72.365  1.00  0.00    -0.207 OA 
BRANCH  34  37
HETATM   37  C   UNL     1     -10.468   6.606  70.808  1.00  0.00    -0.216 C  
HETATM   38  C   UNL     1     -11.235   5.722  71.793  1.00  0.00    -0.275 C  
HETATM   39  C   UNL     1     -10.581   6.041  73.125  1.00  0.00    -0.246 C  
HETATM   40  N   UNL     1      -9.165   6.266  72.839  1.00  0.00    -0.134 NA 
HETATM   41  H   UNL     1      -8.563   5.523  73.193  1.00  0.00     0.000 HD 
HETATM   42  C   UNL     1      -9.043   6.466  71.380  1.00  0.00    -0.145 C  
ENDBRANCH  34  37
ENDBRANCH   8  30
TORSDOF 6
ENDMDL
MODEL      156
REMARK 921   NORMALIZED FREE ENERGY PREDICTED BY IDOCK:   71.25 KCAL/MOL
REMARK 922        TOTAL FREE ENERGY PREDICTED BY IDOCK:   94.71 KCAL/MOL
REMARK 923 INTER-LIGAND FREE ENERGY PREDICTED BY IDOCK:   85.71 KCAL/MOL
REMARK 924 INTRA-LIGAND FREE ENERGY PREDICTED BY IDOCK:    9.00 KCAL/MOL
REMARK 927      BINDING AFFINITY PREDICTED BY RF-SCORE:    0.00 PKD
ROOT
HETATM    1  CA  UNL     1      -7.191  13.119  71.764  1.00  0.00     6.386 C  
HETATM    2  C   UNL     1      -6.238  13.191  67.786  1.00  0.00    -0.156 C  
HETATM    3  C   UNL     1      -7.347  14.667  71.518  1.00  0.00     2.625 C  
HETATM    4  O   UNL     1      -7.837  15.638  72.044  1.00  0.00     5.294 OA 
HETATM    5  O   UNL     1      -7.239  17.380  70.294  1.00  0.00     1.142 OA 
HETATM    6  OXT UNL     1      -5.997  17.547  68.462  1.00  0.00    -0.161 OA 
HETATM    7  N   UNL     1      -6.807  14.546  70.288  1.00  0.00    -0.054 N  
HETATM    8  C   UNL     1      -6.318  14.699  67.990  1.00  0.00    -0.165 C  
HETATM    9  CA  UNL     1      -6.569  15.311  69.179  1.00  0.00    -0.130 C  
HETATM   10  S   UNL     1      -7.025  12.195  69.069  1.00  0.00    -0.053 SA 
HETATM   11  C   UNL     1      -6.357  13.174  70.439  1.00  0.00     0.159 C  
HETATM   12  C   UNL     1      -6.573  16.826  69.265  1.00  0.00    -0.223 C  
ENDROOT
BRANCH   1  13
HETATM   13  N   UNL     1      -8.437  12.309  71.693  1.00  0.00    13.847 N  
HETATM   14  O   UNL     1      -7.587  10.569  70.469  1.00  0.00    -0.014 OA 
HETATM   15  C   UNL     1      -8.513  11.079  71.080  1.00  0.00     5.398 C  
HETATM   16  H   UNL     1      -9.282  12.686  72.123  1.00  0.00     0.000 HD 
BRANCH  15  17
HETATM   17  C   UNL     1      -9.866  10.367  71.216  1.00  0.00     2.673 C  
BRANCH  17  18
HETATM   18  N   UNL     1     -10.289   9.798  72.319  1.00  0.00     1.372 NA 
HETATM   19  H   UNL     1      -9.841   9.949  73.224  1.00  0.00     0.000 HD 
HETATM   20  O   UNL     1     -11.402   8.968  72.158  1.00  0.00    -0.357 OA 
HETATM   21  H   UNL     1     -11.709   8.556  72.957  1.00  0.00     0.000 HD 
ENDBRANCH  17  18
BRANCH  17  22
HETATM   22  C   UNL     1     -10.770  10.319  70.064  1.00  0.00    -0.292 A  
HETATM   23  S   UNL     1     -11.782   9.704  67.947  1.00  0.00     2.019 SA 
HETATM   24  H1  UNL     1     -14.031  12.400  69.000  1.00  0.00     0.000 HD 
HETATM   25  N   UNL     1     -10.569   9.452  69.062  1.00  0.00    -0.220 NA 
HETATM   26  N   UNL     1     -11.847  11.218  69.956  1.00  0.00    -0.337 NA 
HETATM   27  H2  UNL     1     -14.045  11.372  67.586  1.00  0.00     0.000 HD 
HETATM   28  C   UNL     1     -12.501  10.981  68.848  1.00  0.00     0.395 A  
HETATM   29  N   UNL     1     -13.605  11.643  68.465  1.00  0.00     5.230 NA 
ENDBRANCH  17  22
ENDBRANCH  15  17
ENDBRANCH   1  13
BRANCH   8  30
HETATM   30  C   UNL     1      -6.098  15.365  66.700  1.00  0.00     1.618 C  
HETATM   31  C   UNL     1      -7.216  17.653  67.131  1.00  0.00    -0.206 C  
HETATM   32  C   UNL     1      -6.507  16.597  66.357  1.00  0.00     0.189 C  
HETATM   33  C   UNL     1      -7.989  18.383  66.045  1.00  0.00    -0.111 C  
HETATM   34  N   UNL     1      -7.305  18.100  64.799  1.00  0.00     2.182 N  
HETATM   35  C   UNL     1      -6.360  17.093  64.958  1.00  0.00     2.762 C  
HETATM   36  O   UNL     1      -5.549  16.675  64.155  1.00  0.00     5.189 OA 
BRANCH  34  37
HETATM   37  C   UNL     1      -7.375  18.998  63.635  1.00  0.00     6.002 C  
HETATM   38  C   UNL     1      -6.905  20.425  63.929  1.00  0.00     0.410 C  
HETATM   39  C   UNL     1      -8.145  21.087  64.500  1.00  0.00     1.934 C  
HETATM   40  N   UNL     1      -9.280  20.510  63.783  1.00  0.00     3.748 NA 
HETATM   41  H   UNL     1      -9.728  21.170  63.147  1.00  0.00     0.000 HD 
HETATM   42  C   UNL     1      -8.793  19.291  63.105  1.00  0.00    17.619 C  
ENDBRANCH  34  37
ENDBRANCH   8  30
TORSDOF 6
ENDMDL
