MODEL        1
REMARK 921   NORMALIZED FREE ENERGY PREDICTED BY IDOCK:   -6.42 KCAL/MOL
REMARK 922        TOTAL FREE ENERGY PREDICTED BY IDOCK:  -14.33 KCAL/MOL
REMARK 923 INTER-LIGAND FREE ENERGY PREDICTED BY IDOCK:  -10.55 KCAL/MOL
REMARK 924 INTRA-LIGAND FREE ENERGY PREDICTED BY IDOCK:   -3.78 KCAL/MOL
REMARK 927      BINDING AFFINITY PREDICTED BY RF-SCORE:    0.00 PKD
ROOT
HETATM    1  C   UNL     1     -12.025  15.333  70.903  1.00  0.00    -0.342 C  
HETATM    2  N   UNL     1     -12.531  14.004  70.627  1.00  0.00    -0.347 NA 
HETATM    3  C   UNL     1     -13.118  13.174  71.568  1.00  0.00    -0.315 A  
HETATM    4  C   UNL     1     -12.824  11.822  71.285  1.00  0.00    -0.308 A  
HETATM    5  N   UNL     1     -13.841  13.575  72.642  1.00  0.00    -0.753 NA 
HETATM    6  C   UNL     1     -11.953  11.942  70.141  1.00  0.00    -0.332 A  
HETATM    7  H2  UNL     1     -13.963  14.579  72.770  1.00  0.00     0.000 HD 
HETATM    8  H1  UNL     1     -14.273  12.964  73.335  1.00  0.00     0.000 HD 
HETATM    9  N   UNL     1     -12.116  13.243  69.593  1.00  0.00    -0.297 NA 
ENDROOT
BRANCH   4  10
HETATM   10  N   UNL     1     -13.251  10.806  72.122  1.00  0.00    -0.591 N  
HETATM   11  H   UNL     1     -13.430  11.056  73.094  1.00  0.00     0.000 HD 
BRANCH  10  12
HETATM   12  C   UNL     1     -13.456   9.506  71.776  1.00  0.00    -0.402 C  
HETATM   13  O   UNL     1     -14.149   9.245  70.800  1.00  0.00     0.020 OA 
BRANCH  12  14
HETATM   14  N   UNL     1     -12.992   8.589  72.669  1.00  0.00    -0.625 N  
HETATM   15  H   UNL     1     -13.470   8.449  73.560  1.00  0.00     0.000 HD 
BRANCH  14  16
HETATM   16  C   UNL     1     -11.808   7.813  72.340  1.00  0.00    -0.321 C  
BRANCH  16  17
HETATM   17  C   UNL     1     -12.125   6.607  71.446  1.00  0.00    -0.347 C  
HETATM   18  H2  UNL     1     -10.879   7.241  69.926  1.00  0.00     0.000 HD 
HETATM   19  N   UNL     1     -11.838   6.916  70.053  1.00  0.00    -0.629 NA 
HETATM   20  H1  UNL     1     -12.048   6.114  69.459  1.00  0.00     0.000 HD 
ENDBRANCH  16  17
ENDBRANCH  14  16
ENDBRANCH  12  14
ENDBRANCH  10  12
ENDBRANCH   4  10
BRANCH   9  21
HETATM   21  C   UNL     1     -11.732  13.852  68.285  1.00  0.00    -0.361 C  
BRANCH  21  22
HETATM   22  C   UNL     1     -10.667  12.947  67.193  1.00  0.00    -0.268 C  
HETATM   23  CA  UNL     1      -8.840  12.384  67.347  1.00  0.00    -0.188 C  
HETATM   24  C   UNL     1      -7.932  10.030  66.916  1.00  0.00    -0.113 C  
HETATM   25  C   UNL     1     -11.737  12.485  65.720  1.00  0.00    -0.478 C  
HETATM   26  C   UNL     1      -7.466  12.793  68.611  1.00  0.00    -0.092 C  
HETATM   27  N   UNL     1      -8.079  11.316  66.362  1.00  0.00    -0.161 N  
HETATM   28  O   UNL     1      -7.849   9.596  68.058  1.00  0.00    -0.087 OA 
HETATM   29  S   UNL     1     -10.782  11.127  64.202  1.00  0.00    -0.262 SA 
HETATM   30  C   UNL     1      -8.718  10.691  65.003  1.00  0.00    -0.176 C  
HETATM   31  O   UNL     1      -7.451  13.978  69.078  1.00  0.00    -0.119 OA 
HETATM   32  OXT UNL     1      -6.593  11.891  68.665  1.00  0.00    -0.057 OA 
HETATM   33  CA  UNL     1      -8.604   9.302  65.747  1.00  0.00    -0.152 C  
BRANCH  33  34
HETATM   34  N   UNL     1      -9.833   8.549  66.170  1.00  0.00    -0.447 N  
HETATM   35  C   UNL     1      -9.987   7.327  66.839  1.00  0.00    -0.232 C  
HETATM   36  H   UNL     1     -10.712   9.009  65.927  1.00  0.00     0.000 HD 
HETATM   37  O   UNL     1     -11.157   7.015  67.059  1.00  0.00    -0.373 OA 
BRANCH  35  38
HETATM   38  C   UNL     1      -8.831   6.357  67.347  1.00  0.00    -0.104 C  
HETATM   39  C   UNL     1      -8.272   5.327  66.501  1.00  0.00    -0.108 C  
HETATM   40  C   UNL     1      -6.796   2.995  65.062  1.00  0.00    -0.045 C  
HETATM   41  N   UNL     1      -8.820   5.573  64.977  1.00  0.00    -0.100 NA 
HETATM   42  N   UNL     1      -5.757   2.275  64.541  1.00  0.00    -0.012 NA 
HETATM   43  H   UNL     1      -6.551   3.601  67.418  1.00  0.00     0.000 HD 
HETATM   44  S   UNL     1      -8.144   3.912  63.373  1.00  0.00    -0.090 SA 
HETATM   45  H1  UNL     1      -5.171   1.876  65.275  1.00  0.00     0.000 HD 
HETATM   46  H2  UNL     1      -5.589   2.152  63.543  1.00  0.00     0.000 HD 
HETATM   47  N   UNL     1      -7.039   3.861  66.561  1.00  0.00    -0.062 NA 
BRANCH  38  48
HETATM   48  N   UNL     1      -8.181   6.478  68.452  1.00  0.00    -0.113 NA 
HETATM   49  H   UNL     1      -7.227   6.125  68.527  1.00  0.00     0.000 HD 
BRANCH  48  50
HETATM   50  O   UNL     1      -8.775   7.079  69.520  1.00  0.00    -0.133 OA 
HETATM   51  O   UNL     1      -7.344   5.362  72.267  1.00  0.00    -0.089 OA 
HETATM   52  C   UNL     1      -8.098   5.775  71.396  1.00  0.00    -0.114 C  
HETATM   53  C   UNL     1      -8.308   8.198  71.524  1.00  0.00    -0.155 C  
HETATM   54  C   UNL     1      -6.285   6.852  70.310  1.00  0.00    -0.031 C  
HETATM   55  C   UNL     1      -7.831   7.054  70.621  1.00  0.00    -0.097 C  
HETATM   56  O   UNL     1      -9.232   5.134  71.050  1.00  0.00    -0.140 OA 
ENDBRANCH  48  50
ENDBRANCH  38  48
ENDBRANCH  35  38
ENDBRANCH  33  34
ENDBRANCH  21  22
ENDBRANCH   9  21
TORSDOF 11
ENDMDL
MODEL        2
REMARK 921   NORMALIZED FREE ENERGY PREDICTED BY IDOCK:   -6.36 KCAL/MOL
REMARK 922        TOTAL FREE ENERGY PREDICTED BY IDOCK:  -14.23 KCAL/MOL
REMARK 923 INTER-LIGAND FREE ENERGY PREDICTED BY IDOCK:  -11.24 KCAL/MOL
REMARK 924 INTRA-LIGAND FREE ENERGY PREDICTED BY IDOCK:   -2.99 KCAL/MOL
REMARK 927      BINDING AFFINITY PREDICTED BY RF-SCORE:    0.00 PKD
ROOT
HETATM    1  C   UNL     1     -12.660  12.083  63.179  1.00  0.00    -0.220 C  
HETATM    2  N   UNL     1     -11.817  12.582  64.246  1.00  0.00    -0.368 NA 
HETATM    3  C   UNL     1     -12.237  13.449  65.241  1.00  0.00    -0.440 A  
HETATM    4  C   UNL     1     -11.182  14.307  65.624  1.00  0.00    -0.314 A  
HETATM    5  N   UNL     1     -13.486  13.519  65.761  1.00  0.00    -0.212 NA 
HETATM    6  C   UNL     1     -10.135  13.913  64.714  1.00  0.00    -0.215 A  
HETATM    7  H2  UNL     1     -14.181  12.874  65.386  1.00  0.00     0.000 HD 
HETATM    8  H1  UNL     1     -13.796  14.158  66.493  1.00  0.00     0.000 HD 
HETATM    9  N   UNL     1     -10.471  12.643  64.172  1.00  0.00    -0.393 NA 
ENDROOT
BRANCH   4  10
HETATM   10  N   UNL     1     -11.377  15.306  66.562  1.00  0.00    -0.235 N  
HETATM   11  H   UNL     1     -11.642  16.225  66.207  1.00  0.00     0.000 HD 
BRANCH  10  12
HETATM   12  C   UNL     1     -11.250  15.184  67.911  1.00  0.00    -0.329 C  
HETATM   13  O   UNL     1     -10.152  15.347  68.430  1.00  0.00    -0.211 OA 
BRANCH  12  14
HETATM   14  N   UNL     1     -12.355  14.718  68.557  1.00  0.00    -0.594 N  
HETATM   15  H   UNL     1     -13.234  14.596  68.054  1.00  0.00     0.000 HD 
BRANCH  14  16
HETATM   16  C   UNL     1     -12.268  14.397  69.972  1.00  0.00    -0.351 C  
BRANCH  16  17
HETATM   17  C   UNL     1     -12.795  15.526  70.866  1.00  0.00    -0.477 C  
HETATM   18  H2  UNL     1     -11.248  16.806  70.384  1.00  0.00     0.000 HD 
HETATM   19  N   UNL     1     -11.721  16.445  71.213  1.00  0.00    -0.639 NA 
HETATM   20  H1  UNL     1     -12.071  17.196  71.807  1.00  0.00     0.000 HD 
ENDBRANCH  16  17
ENDBRANCH  14  16
ENDBRANCH  12  14
ENDBRANCH  10  12
ENDBRANCH   4  10
BRANCH   9  21
HETATM   21  C   UNL     1      -9.685  11.612  63.432  1.00  0.00    -0.348 C  
BRANCH  21  22
HETATM   22  C   UNL     1      -8.691  10.464  64.349  1.00  0.00    -0.209 C  
HETATM   23  CA  UNL     1      -8.042  10.474  66.153  1.00  0.00    -0.145 C  
HETATM   24  C   UNL     1      -8.222   8.561  67.844  1.00  0.00    -0.119 C  
HETATM   25  C   UNL     1      -8.400   9.017  63.186  1.00  0.00    -0.195 C  
HETATM   26  C   UNL     1      -8.039  11.814  67.516  1.00  0.00    -0.152 C  
HETATM   27  N   UNL     1      -7.360   9.203  66.934  1.00  0.00    -0.089 N  
HETATM   28  O   UNL     1      -9.187   8.920  68.505  1.00  0.00    -0.137 OA 
HETATM   29  S   UNL     1      -7.346   7.241  64.079  1.00  0.00    -0.095 SA 
HETATM   30  C   UNL     1      -6.984   7.782  66.239  1.00  0.00    -0.063 C  
HETATM   31  O   UNL     1      -7.874  13.019  67.135  1.00  0.00    -0.151 OA 
HETATM   32  OXT UNL     1      -7.981  11.314  68.667  1.00  0.00    -0.133 OA 
HETATM   33  CA  UNL     1      -8.044   7.166  67.235  1.00  0.00    -0.115 C  
BRANCH  33  34
HETATM   34  N   UNL     1      -9.337   6.592  66.730  1.00  0.00    -0.153 N  
HETATM   35  C   UNL     1     -10.467   6.113  67.408  1.00  0.00    -0.247 C  
HETATM   36  H   UNL     1      -9.406   6.542  65.713  1.00  0.00     0.000 HD 
HETATM   37  O   UNL     1     -11.378   5.737  66.670  1.00  0.00     0.003 OA 
BRANCH  35  38
HETATM   38  C   UNL     1     -10.682   6.039  68.984  1.00  0.00    -0.324 C  
HETATM   39  C   UNL     1     -10.092   4.993  69.787  1.00  0.00    -0.267 C  
HETATM   40  C   UNL     1      -9.044   2.951  71.890  1.00  0.00    -0.091 C  
HETATM   41  N   UNL     1      -9.016   4.185  68.852  1.00  0.00    -0.103 NA 
HETATM   42  N   UNL     1      -8.388   2.486  72.995  1.00  0.00    -0.069 NA 
HETATM   43  H   UNL     1     -10.642   4.751  72.321  1.00  0.00     0.000 HD 
HETATM   44  S   UNL     1      -7.973   2.292  69.908  1.00  0.00    -0.041 SA 
HETATM   45  H1  UNL     1      -8.853   2.772  73.857  1.00  0.00     0.000 HD 
HETATM   46  H2  UNL     1      -7.538   1.923  72.963  1.00  0.00     0.000 HD 
HETATM   47  N   UNL     1     -10.078   4.327  71.585  1.00  0.00    -0.175 NA 
BRANCH  38  48
HETATM   48  N   UNL     1     -11.241   6.946  69.708  1.00  0.00    -0.427 NA 
HETATM   49  H   UNL     1     -12.145   7.332  69.438  1.00  0.00     0.000 HD 
BRANCH  48  50
HETATM   50  O   UNL     1     -10.617   7.385  70.836  1.00  0.00    -0.220 OA 
HETATM   51  O   UNL     1     -13.003   9.606  72.222  1.00  0.00    -0.395 OA 
HETATM   52  C   UNL     1     -12.028   9.117  71.666  1.00  0.00    -0.367 C  
HETATM   53  C   UNL     1     -10.880   7.571  73.156  1.00  0.00    -0.448 C  
HETATM   54  C   UNL     1     -13.073   6.988  71.665  1.00  0.00    -0.384 C  
HETATM   55  C   UNL     1     -11.641   7.657  71.828  1.00  0.00    -0.270 C  
HETATM   56  O   UNL     1     -11.212   9.830  70.864  1.00  0.00    -0.304 OA 
ENDBRANCH  48  50
ENDBRANCH  38  48
ENDBRANCH  35  38
ENDBRANCH  33  34
ENDBRANCH  21  22
ENDBRANCH   9  21
TORSDOF 11
ENDMDL
MODEL        3
REMARK 921   NORMALIZED FREE ENERGY PREDICTED BY IDOCK:   -6.10 KCAL/MOL
REMARK 922        TOTAL FREE ENERGY PREDICTED BY IDOCK:  -13.81 KCAL/MOL
REMARK 923 INTER-LIGAND FREE ENERGY PREDICTED BY IDOCK:  -11.26 KCAL/MOL
REMARK 924 INTRA-LIGAND FREE ENERGY PREDICTED BY IDOCK:   -2.55 KCAL/MOL
REMARK 927      BINDING AFFINITY PREDICTED BY RF-SCORE:    0.00 PKD
ROOT
HETATM    1  C   UNL     1      -7.625   5.664  71.442  1.00  0.00    -0.104 C  
HETATM    2  N   UNL     1      -8.385   6.734  72.057  1.00  0.00    -0.112 NA 
HETATM    3  C   UNL     1      -9.639   6.582  72.624  1.00  0.00    -0.150 A  
HETATM    4  C   UNL     1     -10.406   7.755  72.445  1.00  0.00    -0.253 A  
HETATM    5  N   UNL     1     -10.109   5.466  73.233  1.00  0.00    -0.170 NA 
HETATM    6  C   UNL     1      -9.515   8.573  71.659  1.00  0.00    -0.246 A  
HETATM    7  H2  UNL     1      -9.481   4.664  73.277  1.00  0.00     0.000 HD 
HETATM    8  H1  UNL     1     -11.032   5.355  73.651  1.00  0.00     0.000 HD 
HETATM    9  N   UNL     1      -8.203   8.040  71.775  1.00  0.00    -0.113 NA 
ENDROOT
BRANCH   4  10
HETATM   10  N   UNL     1     -11.720   7.824  72.873  1.00  0.00    -0.616 N  
HETATM   11  H   UNL     1     -11.883   7.707  73.873  1.00  0.00     0.000 HD 
BRANCH  10  12
HETATM   12  C   UNL     1     -12.815   8.033  72.093  1.00  0.00    -0.241 C  
HETATM   13  O   UNL     1     -13.086   7.229  71.209  1.00  0.00    -0.369 OA 
BRANCH  12  14
HETATM   14  N   UNL     1     -13.430   9.235  72.269  1.00  0.00    -0.461 N  
HETATM   15  H   UNL     1     -14.331   9.289  72.745  1.00  0.00     0.000 HD 
BRANCH  14  16
HETATM   16  C   UNL     1     -12.789  10.440  71.770  1.00  0.00    -0.456 C  
BRANCH  16  17
HETATM   17  C   UNL     1     -12.212  10.260  70.360  1.00  0.00    -0.261 C  
HETATM   18  H2  UNL     1     -10.513  11.357  70.774  1.00  0.00     0.000 HD 
HETATM   19  N   UNL     1     -11.247  11.309  70.068  1.00  0.00    -0.470 NA 
HETATM   20  H1  UNL     1     -10.862  11.190  69.130  1.00  0.00     0.000 HD 
ENDBRANCH  16  17
ENDBRANCH  14  16
ENDBRANCH  12  14
ENDBRANCH  10  12
ENDBRANCH   4  10
BRANCH   9  21
HETATM   21  C   UNL     1      -6.850   8.585  71.453  1.00  0.00    -0.076 C  
BRANCH  21  22
HETATM   22  C   UNL     1      -6.673   9.694  70.080  1.00  0.00    -0.079 C  
HETATM   23  CA  UNL     1      -7.069   9.509  68.212  1.00  0.00    -0.075 C  
HETATM   24  C   UNL     1      -8.399  11.152  66.770  1.00  0.00    -0.152 C  
HETATM   25  C   UNL     1      -6.047  11.305  70.816  1.00  0.00     0.115 C  
HETATM   26  C   UNL     1      -7.570   8.006  67.143  1.00  0.00    -0.097 C  
HETATM   27  N   UNL     1      -7.102  10.726  67.113  1.00  0.00    -0.094 N  
HETATM   28  O   UNL     1      -9.498  10.614  66.750  1.00  0.00    -0.159 OA 
HETATM   29  S   UNL     1      -5.904  13.042  69.395  1.00  0.00    -0.103 SA 
HETATM   30  C   UNL     1      -6.644  12.258  67.413  1.00  0.00    -0.154 C  
HETATM   31  O   UNL     1      -7.045   6.885  67.447  1.00  0.00    -0.079 OA 
HETATM   32  OXT UNL     1      -8.199   8.352  66.111  1.00  0.00    -0.104 OA 
HETATM   33  CA  UNL     1      -8.149  12.627  67.104  1.00  0.00    -0.141 C  
BRANCH  33  34
HETATM   34  N   UNL     1      -9.059  13.131  68.188  1.00  0.00    -0.198 N  
HETATM   35  C   UNL     1     -10.005  14.166  68.197  1.00  0.00    -0.232 C  
HETATM   36  H   UNL     1      -8.973  12.632  69.074  1.00  0.00     0.000 HD 
HETATM   37  O   UNL     1     -10.608  14.289  69.263  1.00  0.00    -0.223 OA 
BRANCH  35  38
HETATM   38  C   UNL     1     -10.376  15.140  66.994  1.00  0.00    -0.271 C  
HETATM   39  C   UNL     1     -10.137  16.563  67.061  1.00  0.00    -0.279 C  
HETATM   40  C   UNL     1      -9.820  19.645  66.766  1.00  0.00    -0.392 C  
HETATM   41  N   UNL     1      -9.210  16.857  68.380  1.00  0.00    -0.245 NA 
HETATM   42  N   UNL     1      -9.402  20.837  66.243  1.00  0.00    -0.418 NA 
HETATM   43  H   UNL     1     -10.961  18.170  65.184  1.00  0.00     0.000 HD 
HETATM   44  S   UNL     1      -8.764  19.181  68.811  1.00  0.00    -0.286 SA 
HETATM   45  H1  UNL     1      -9.861  21.039  65.355  1.00  0.00     0.000 HD 
HETATM   46  H2  UNL     1      -8.717  21.449  66.687  1.00  0.00     0.000 HD 
HETATM   47  N   UNL     1     -10.453  18.172  66.068  1.00  0.00    -0.505 NA 
BRANCH  38  48
HETATM   48  N   UNL     1     -10.760  14.770  65.821  1.00  0.00    -0.310 NA 
HETATM   49  H   UNL     1     -11.334  15.391  65.251  1.00  0.00     0.000 HD 
BRANCH  48  50
HETATM   50  O   UNL     1     -10.394  13.547  65.348  1.00  0.00    -0.299 OA 
HETATM   51  O   UNL     1     -13.501  12.119  64.421  1.00  0.00    -0.675 OA 
HETATM   52  C   UNL     1     -12.454  12.403  64.989  1.00  0.00    -0.316 C  
HETATM   53  C   UNL     1     -10.563  12.149  63.476  1.00  0.00    -0.501 C  
HETATM   54  C   UNL     1     -12.200  14.312  63.606  1.00  0.00     0.043 C  
HETATM   55  C   UNL     1     -11.338  13.177  64.309  1.00  0.00    -0.388 C  
HETATM   56  O   UNL     1     -12.199  12.052  66.265  1.00  0.00    -0.548 OA 
ENDBRANCH  48  50
ENDBRANCH  38  48
ENDBRANCH  35  38
ENDBRANCH  33  34
ENDBRANCH  21  22
ENDBRANCH   9  21
TORSDOF 11
ENDMDL
MODEL        4
REMARK 921   NORMALIZED FREE ENERGY PREDICTED BY IDOCK:   -5.95 KCAL/MOL
REMARK 922        TOTAL FREE ENERGY PREDICTED BY IDOCK:  -13.56 KCAL/MOL
REMARK 923 INTER-LIGAND FREE ENERGY PREDICTED BY IDOCK:  -10.36 KCAL/MOL
REMARK 924 INTRA-LIGAND FREE ENERGY PREDICTED BY IDOCK:   -3.21 KCAL/MOL
REMARK 927      BINDING AFFINITY PREDICTED BY RF-SCORE:    0.00 PKD
ROOT
HETATM    1  C   UNL     1     -12.121  14.176  67.914  1.00  0.00    -0.274 C  
HETATM    2  N   UNL     1     -11.135  14.901  67.139  1.00  0.00    -0.324 NA 
HETATM    3  C   UNL     1     -10.561  16.101  67.523  1.00  0.00    -0.314 A  
HETATM    4  C   UNL     1     -10.287  16.900  66.390  1.00  0.00    -0.300 A  
HETATM    5  N   UNL     1     -10.323  16.500  68.796  1.00  0.00    -0.266 NA 
HETATM    6  C   UNL     1     -10.821  16.091  65.322  1.00  0.00    -0.362 A  
HETATM    7  H2  UNL     1     -10.592  15.857  69.540  1.00  0.00     0.000 HD 
HETATM    8  H1  UNL     1      -9.901  17.384  69.078  1.00  0.00     0.000 HD 
HETATM    9  N   UNL     1     -10.982  14.765  65.806  1.00  0.00    -0.324 NA 
ENDROOT
BRANCH   4  10
HETATM   10  N   UNL     1      -9.767  18.176  66.523  1.00  0.00    -0.331 N  
HETATM   11  H   UNL     1     -10.421  18.914  66.781  1.00  0.00     0.000 HD 
BRANCH  10  12
HETATM   12  C   UNL     1      -8.469  18.542  66.341  1.00  0.00    -0.258 C  
HETATM   13  O   UNL     1      -7.742  17.852  65.637  1.00  0.00    -0.541 OA 
BRANCH  12  14
HETATM   14  N   UNL     1      -8.048  19.581  67.114  1.00  0.00    -0.264 N  
HETATM   15  H   UNL     1      -7.770  20.464  66.685  1.00  0.00     0.000 HD 
BRANCH  14  16
HETATM   16  C   UNL     1      -7.998  19.419  68.558  1.00  0.00    -0.360 C  
BRANCH  16  17
HETATM   17  C   UNL     1      -6.907  18.438  69.003  1.00  0.00    -0.265 C  
HETATM   18  H2  UNL     1      -7.662  16.881  67.876  1.00  0.00     0.000 HD 
HETATM   19  N   UNL     1      -7.355  17.064  68.832  1.00  0.00    -0.240 NA 
HETATM   20  H1  UNL     1      -6.629  16.412  69.128  1.00  0.00     0.000 HD 
ENDBRANCH  16  17
ENDBRANCH  14  16
ENDBRANCH  12  14
ENDBRANCH  10  12
ENDBRANCH   4  10
BRANCH   9  21
HETATM   21  C   UNL     1     -11.202  13.453  65.127  1.00  0.00    -0.305 C  
BRANCH  21  22
HETATM   22  C   UNL     1      -9.917  12.231  65.178  1.00  0.00    -0.236 C  
HETATM   23  CA  UNL     1      -8.566  11.833  66.480  1.00  0.00    -0.148 C  
HETATM   24  C   UNL     1      -8.021   9.527  67.448  1.00  0.00    -0.106 C  
HETATM   25  C   UNL     1     -10.148  11.199  63.625  1.00  0.00    -0.432 C  
HETATM   26  C   UNL     1      -7.984  12.745  68.055  1.00  0.00    -0.160 C  
HETATM   27  N   UNL     1      -7.622  10.492  66.503  1.00  0.00    -0.121 N  
HETATM   28  O   UNL     1      -8.615   9.573  68.517  1.00  0.00    -0.118 OA 
HETATM   29  S   UNL     1      -8.822   9.392  63.444  1.00  0.00    -0.107 SA 
HETATM   30  C   UNL     1      -7.580   9.368  65.327  1.00  0.00    -0.107 C  
HETATM   31  O   UNL     1      -7.991  14.018  68.016  1.00  0.00    -0.127 OA 
HETATM   32  OXT UNL     1      -7.446  11.963  68.879  1.00  0.00    -0.113 OA 
HETATM   33  CA  UNL     1      -8.121   8.381  66.435  1.00  0.00    -0.104 C  
BRANCH  33  34
HETATM   34  N   UNL     1      -9.509   7.811  66.351  1.00  0.00    -0.296 N  
HETATM   35  C   UNL     1     -10.228   6.988  67.229  1.00  0.00    -0.234 C  
HETATM   36  H   UNL     1     -10.018   8.068  65.504  1.00  0.00     0.000 HD 
HETATM   37  O   UNL     1     -11.373   6.731  66.857  1.00  0.00    -0.318 OA 
BRANCH  35  38
HETATM   38  C   UNL     1      -9.729   6.401  68.623  1.00  0.00    -0.123 C  
HETATM   39  C   UNL     1      -8.959   5.182  68.706  1.00  0.00    -0.101 C  
HETATM   40  C   UNL     1      -7.311   2.624  69.364  1.00  0.00    -0.044 C  
HETATM   41  N   UNL     1      -8.501   4.769  67.188  1.00  0.00    -0.106 NA 
HETATM   42  N   UNL     1      -6.287   1.860  69.849  1.00  0.00    -0.024 NA 
HETATM   43  H   UNL     1      -8.351   4.113  71.002  1.00  0.00     0.000 HD 
HETATM   44  S   UNL     1      -7.306   2.689  67.017  1.00  0.00    -0.062 SA 
HETATM   45  H1  UNL     1      -6.289   1.832  70.868  1.00  0.00     0.000 HD 
HETATM   46  H2  UNL     1      -5.605   1.378  69.263  1.00  0.00     0.000 HD 
HETATM   47  N   UNL     1      -8.221   3.975  70.000  1.00  0.00    -0.057 NA 
BRANCH  38  48
HETATM   48  N   UNL     1      -9.809   7.000  69.760  1.00  0.00    -0.168 NA 
HETATM   49  H   UNL     1      -9.067   6.888  70.451  1.00  0.00     0.000 HD 
BRANCH  48  50
HETATM   50  O   UNL     1     -10.889   7.783  70.035  1.00  0.00    -0.247 OA 
HETATM   51  O   UNL     1     -11.100   7.596  73.566  1.00  0.00    -0.315 OA 
HETATM   52  C   UNL     1     -11.285   7.463  72.363  1.00  0.00    -0.293 C  
HETATM   53  C   UNL     1     -11.574   9.633  71.297  1.00  0.00    -0.466 C  
HETATM   54  C   UNL     1      -9.192   8.481  71.909  1.00  0.00    -0.326 C  
HETATM   55  C   UNL     1     -10.670   8.394  71.332  1.00  0.00    -0.237 C  
HETATM   56  O   UNL     1     -12.052   6.481  71.848  1.00  0.00    -0.334 OA 
ENDBRANCH  48  50
ENDBRANCH  38  48
ENDBRANCH  35  38
ENDBRANCH  33  34
ENDBRANCH  21  22
ENDBRANCH   9  21
TORSDOF 11
ENDMDL
MODEL        5
REMARK 921   NORMALIZED FREE ENERGY PREDICTED BY IDOCK:   -5.91 KCAL/MOL
REMARK 922        TOTAL FREE ENERGY PREDICTED BY IDOCK:  -13.49 KCAL/MOL
REMARK 923 INTER-LIGAND FREE ENERGY PREDICTED BY IDOCK:  -11.41 KCAL/MOL
REMARK 924 INTRA-LIGAND FREE ENERGY PREDICTED BY IDOCK:   -2.08 KCAL/MOL
REMARK 927      BINDING AFFINITY PREDICTED BY RF-SCORE:    0.00 PKD
ROOT
HETATM    1  C   UNL     1     -12.316  13.653  63.739  1.00  0.00    -0.296 C  
HETATM    2  N   UNL     1     -11.770  14.375  64.870  1.00  0.00    -0.388 NA 
HETATM    3  C   UNL     1     -11.221  15.645  64.802  1.00  0.00    -0.382 A  
HETATM    4  C   UNL     1     -10.170  15.778  65.737  1.00  0.00    -0.370 A  
HETATM    5  N   UNL     1     -11.589  16.626  63.944  1.00  0.00    -1.431 NA 
HETATM    6  C   UNL     1     -10.107  14.452  66.301  1.00  0.00    -0.297 A  
HETATM    7  H2  UNL     1     -12.338  16.410  63.286  1.00  0.00     0.000 HD 
HETATM    8  H1  UNL     1     -11.185  17.561  63.893  1.00  0.00     0.000 HD 
HETATM    9  N   UNL     1     -11.320  13.779  65.994  1.00  0.00    -0.309 NA 
ENDROOT
BRANCH   4  10
HETATM   10  N   UNL     1      -9.425  16.941  65.815  1.00  0.00    -0.093 N  
HETATM   11  H   UNL     1      -8.501  16.925  65.384  1.00  0.00     0.000 HD 
BRANCH  10  12
HETATM   12  C   UNL     1      -9.803  18.104  66.411  1.00  0.00    -0.353 C  
HETATM   13  O   UNL     1     -10.383  18.958  65.751  1.00  0.00    -0.549 OA 
BRANCH  12  14
HETATM   14  N   UNL     1      -9.342  18.282  67.680  1.00  0.00    -0.265 N  
HETATM   15  H   UNL     1      -8.389  18.607  67.842  1.00  0.00     0.000 HD 
BRANCH  14  16
HETATM   16  C   UNL     1     -10.223  18.002  68.801  1.00  0.00    -0.354 C  
BRANCH  16  17
HETATM   17  C   UNL     1     -10.280  16.509  69.148  1.00  0.00    -0.298 C  
HETATM   18  H2  UNL     1     -11.802  16.122  67.807  1.00  0.00     0.000 HD 
HETATM   19  N   UNL     1     -11.575  15.951  68.787  1.00  0.00    -0.390 NA 
HETATM   20  H1  UNL     1     -11.613  14.958  69.017  1.00  0.00     0.000 HD 
ENDBRANCH  16  17
ENDBRANCH  14  16
ENDBRANCH  12  14
ENDBRANCH  10  12
ENDBRANCH   4  10
BRANCH   9  21
HETATM   21  C   UNL     1     -11.960  12.539  66.526  1.00  0.00    -0.296 C  
BRANCH  21  22
HETATM   22  C   UNL     1     -11.165  11.658  67.845  1.00  0.00    -0.334 C  
HETATM   23  CA  UNL     1     -11.544  11.529  69.721  1.00  0.00    -0.326 C  
HETATM   24  C   UNL     1     -11.716   9.375  71.091  1.00  0.00    -0.345 C  
HETATM   25  C   UNL     1      -9.782  10.682  67.032  1.00  0.00    -0.207 C  
HETATM   26  C   UNL     1     -12.753  12.472  70.861  1.00  0.00    -0.182 C  
HETATM   27  N   UNL     1     -10.874  10.453  70.762  1.00  0.00    -0.069 N  
HETATM   28  O   UNL     1     -12.930   9.222  71.140  1.00  0.00    -0.291 OA 
HETATM   29  S   UNL     1      -8.671   9.256  68.370  1.00  0.00    -0.129 SA 
HETATM   30  C   UNL     1      -9.662   9.434  70.389  1.00  0.00    -0.261 C  
HETATM   31  O   UNL     1     -12.936  13.707  70.607  1.00  0.00    -0.197 OA 
HETATM   32  OXT UNL     1     -13.061  11.801  71.878  1.00  0.00    -0.468 OA 
HETATM   33  CA  UNL     1     -10.710   8.291  70.687  1.00  0.00    -0.220 C  
BRANCH  33  34
HETATM   34  N   UNL     1     -11.228   7.411  69.585  1.00  0.00    -0.456 N  
HETATM   35  C   UNL     1     -10.692   6.260  68.989  1.00  0.00    -0.302 C  
HETATM   36  H   UNL     1     -12.128   7.701  69.203  1.00  0.00     0.000 HD 
HETATM   37  O   UNL     1     -11.407   5.762  68.120  1.00  0.00     0.109 OA 
BRANCH  35  38
HETATM   38  C   UNL     1      -9.310   5.550  69.339  1.00  0.00    -0.118 C  
HETATM   39  C   UNL     1      -9.021   5.052  70.664  1.00  0.00    -0.131 C  
HETATM   40  C   UNL     1      -7.970   3.853  73.337  1.00  0.00    -0.088 C  
HETATM   41  N   UNL     1     -10.409   5.097  71.533  1.00  0.00    -0.216 NA 
HETATM   42  N   UNL     1      -7.488   2.918  74.210  1.00  0.00    -0.046 NA 
HETATM   43  H   UNL     1      -6.674   4.106  71.279  1.00  0.00     0.000 HD 
HETATM   44  S   UNL     1     -10.187   4.441  73.837  1.00  0.00    -0.209 SA 
HETATM   45  H1  UNL     1      -6.525   2.663  73.993  1.00  0.00     0.000 HD 
HETATM   46  H2  UNL     1      -8.025   2.525  74.982  1.00  0.00     0.000 HD 
HETATM   47  N   UNL     1      -7.597   4.270  71.681  1.00  0.00    -0.071 NA 
BRANCH  38  48
HETATM   48  N   UNL     1      -8.405   5.209  68.488  1.00  0.00    -0.089 NA 
HETATM   49  H   UNL     1      -7.685   5.876  68.211  1.00  0.00     0.000 HD 
BRANCH  48  50
HETATM   50  O   UNL     1      -8.416   3.954  67.961  1.00  0.00    -0.091 OA 
HETATM   51  O   UNL     1      -8.133   4.574  64.485  1.00  0.00    -0.095 OA 
HETATM   52  C   UNL     1      -8.539   4.293  65.605  1.00  0.00    -0.118 C  
HETATM   53  C   UNL     1      -7.202   2.505  66.577  1.00  0.00    -0.064 C  
HETATM   54  C   UNL     1      -6.541   5.139  66.562  1.00  0.00    -0.049 C  
HETATM   55  C   UNL     1      -7.604   3.974  66.759  1.00  0.00    -0.088 C  
HETATM   56  O   UNL     1      -9.850   4.241  65.912  1.00  0.00    -0.192 OA 
ENDBRANCH  48  50
ENDBRANCH  38  48
ENDBRANCH  35  38
ENDBRANCH  33  34
ENDBRANCH  21  22
ENDBRANCH   9  21
TORSDOF 11
ENDMDL
MODEL        6
REMARK 921   NORMALIZED FREE ENERGY PREDICTED BY IDOCK:   -5.91 KCAL/MOL
REMARK 922        TOTAL FREE ENERGY PREDICTED BY IDOCK:  -13.49 KCAL/MOL
REMARK 923 INTER-LIGAND FREE ENERGY PREDICTED BY IDOCK:  -10.93 KCAL/MOL
REMARK 924 INTRA-LIGAND FREE ENERGY PREDICTED BY IDOCK:   -2.56 KCAL/MOL
REMARK 927      BINDING AFFINITY PREDICTED BY RF-SCORE:    0.00 PKD
ROOT
HETATM    1  C   UNL     1     -11.920  15.606  70.659  1.00  0.00    -0.402 C  
HETATM    2  N   UNL     1     -12.499  14.289  70.493  1.00  0.00    -0.342 NA 
HETATM    3  C   UNL     1     -13.077  13.550  71.512  1.00  0.00    -0.344 A  
HETATM    4  C   UNL     1     -12.858  12.169  71.304  1.00  0.00    -0.250 A  
HETATM    5  N   UNL     1     -13.727  14.051  72.590  1.00  0.00    -0.683 NA 
HETATM    6  C   UNL     1     -12.040  12.175  70.116  1.00  0.00    -0.290 A  
HETATM    7  H2  UNL     1     -13.797  15.066  72.658  1.00  0.00     0.000 HD 
HETATM    8  H1  UNL     1     -14.152  13.507  73.341  1.00  0.00     0.000 HD 
HETATM    9  N   UNL     1     -12.170  13.446  69.493  1.00  0.00    -0.255 NA 
ENDROOT
BRANCH   4  10
HETATM   10  N   UNL     1     -13.290  11.230  72.224  1.00  0.00    -0.538 N  
HETATM   11  H   UNL     1     -13.677  11.586  73.097  1.00  0.00     0.000 HD 
BRANCH  10  12
HETATM   12  C   UNL     1     -13.248   9.878  72.078  1.00  0.00    -0.456 C  
HETATM   13  O   UNL     1     -14.196   9.202  72.461  1.00  0.00    -0.512 OA 
BRANCH  12  14
HETATM   14  N   UNL     1     -12.054   9.377  71.659  1.00  0.00    -0.365 N  
HETATM   15  H   UNL     1     -11.447   9.929  71.052  1.00  0.00     0.000 HD 
BRANCH  14  16
HETATM   16  C   UNL     1     -11.653   8.046  72.084  1.00  0.00    -0.342 C  
BRANCH  16  17
HETATM   17  C   UNL     1     -12.326   6.938  71.265  1.00  0.00    -0.375 C  
HETATM   18  H2  UNL     1     -10.719   6.726  69.986  1.00  0.00     0.000 HD 
HETATM   19  N   UNL     1     -11.731   6.850  69.940  1.00  0.00    -0.605 NA 
HETATM   20  H1  UNL     1     -12.178   6.113  69.395  1.00  0.00     0.000 HD 
ENDBRANCH  16  17
ENDBRANCH  14  16
ENDBRANCH  12  14
ENDBRANCH  10  12
ENDBRANCH   4  10
BRANCH   9  21
HETATM   21  C   UNL     1     -11.823  13.952  68.132  1.00  0.00    -0.372 C  
BRANCH  21  22
HETATM   22  C   UNL     1     -10.690  13.025  67.131  1.00  0.00    -0.266 C  
HETATM   23  CA  UNL     1      -8.871  12.482  67.406  1.00  0.00    -0.187 C  
HETATM   24  C   UNL     1      -7.924  10.125  67.099  1.00  0.00    -0.109 C  
HETATM   25  C   UNL     1     -11.670  12.511  65.613  1.00  0.00    -0.473 C  
HETATM   26  C   UNL     1      -7.576  12.939  68.735  1.00  0.00    -0.025 C  
HETATM   27  N   UNL     1      -8.047  11.393  66.499  1.00  0.00    -0.162 N  
HETATM   28  O   UNL     1      -7.905   9.725  68.255  1.00  0.00    -0.088 OA 
HETATM   29  S   UNL     1     -10.618  11.118  64.193  1.00  0.00    -0.326 SA 
HETATM   30  C   UNL     1      -8.602  10.723  65.124  1.00  0.00    -0.128 C  
HETATM   31  O   UNL     1      -7.596  14.138  69.168  1.00  0.00    -0.097 OA 
HETATM   32  OXT UNL     1      -6.701  12.047  68.866  1.00  0.00    -0.081 OA 
HETATM   33  CA  UNL     1      -8.522   9.357  65.914  1.00  0.00    -0.126 C  
BRANCH  33  34
HETATM   34  N   UNL     1      -9.768   8.607  66.287  1.00  0.00    -0.315 N  
HETATM   35  C   UNL     1      -9.976   7.259  66.616  1.00  0.00    -0.176 C  
HETATM   36  H   UNL     1     -10.614   9.178  66.305  1.00  0.00     0.000 HD 
HETATM   37  O   UNL     1     -11.140   6.984  66.906  1.00  0.00    -0.359 OA 
BRANCH  35  38
HETATM   38  C   UNL     1      -8.881   6.104  66.673  1.00  0.00    -0.127 C  
HETATM   39  C   UNL     1      -8.132   5.821  67.875  1.00  0.00    -0.098 C  
HETATM   40  C   UNL     1      -6.296   4.872  70.203  1.00  0.00    -0.026 C  
HETATM   41  N   UNL     1      -8.820   6.654  69.107  1.00  0.00    -0.129 NA 
HETATM   42  N   UNL     1      -5.742   4.027  71.123  1.00  0.00    -0.012 NA 
HETATM   43  H   UNL     1      -6.187   4.089  67.889  1.00  0.00     0.000 HD 
HETATM   44  S   UNL     1      -7.686   6.467  71.220  1.00  0.00    -0.095 SA 
HETATM   45  H1  UNL     1      -5.138   3.334  70.682  1.00  0.00     0.000 HD 
HETATM   46  H2  UNL     1      -5.912   4.083  72.127  1.00  0.00     0.000 HD 
HETATM   47  N   UNL     1      -6.693   4.723  68.507  1.00  0.00    -0.049 NA 
BRANCH  38  48
HETATM   48  N   UNL     1      -8.666   5.229  65.753  1.00  0.00    -0.138 NA 
HETATM   49  H   UNL     1      -8.080   5.462  64.951  1.00  0.00     0.000 HD 
BRANCH  48  50
HETATM   50  O   UNL     1      -9.224   3.991  65.858  1.00  0.00    -0.135 OA 
HETATM   51  O   UNL     1     -10.575   3.478  62.624  1.00  0.00    -0.177 OA 
HETATM   52  C   UNL     1     -10.421   3.699  63.819  1.00  0.00    -0.266 C  
HETATM   53  C   UNL     1      -9.227   1.862  64.881  1.00  0.00    -0.114 C  
HETATM   54  C   UNL     1      -8.080   3.900  63.499  1.00  0.00    -0.089 C  
HETATM   55  C   UNL     1      -9.137   3.358  64.555  1.00  0.00    -0.130 C  
HETATM   56  O   UNL     1     -11.377   4.260  64.585  1.00  0.00    -0.298 OA 
ENDBRANCH  48  50
ENDBRANCH  38  48
ENDBRANCH  35  38
ENDBRANCH  33  34
ENDBRANCH  21  22
ENDBRANCH   9  21
TORSDOF 11
ENDMDL
MODEL        7
REMARK 921   NORMALIZED FREE ENERGY PREDICTED BY IDOCK:   -5.90 KCAL/MOL
REMARK 922        TOTAL FREE ENERGY PREDICTED BY IDOCK:  -13.48 KCAL/MOL
REMARK 923 INTER-LIGAND FREE ENERGY PREDICTED BY IDOCK:  -11.63 KCAL/MOL
REMARK 924 INTRA-LIGAND FREE ENERGY PREDICTED BY IDOCK:   -1.86 KCAL/MOL
REMARK 927      BINDING AFFINITY PREDICTED BY RF-SCORE:    0.00 PKD
ROOT
HETATM    1  C   UNL     1      -8.218   2.342  69.295  1.00  0.00    -0.051 C  
HETATM    2  N   UNL     1      -8.454   3.471  70.171  1.00  0.00    -0.058 NA 
HETATM    3  C   UNL     1      -9.236   3.430  71.314  1.00  0.00    -0.120 A  
HETATM    4  C   UNL     1      -9.884   4.671  71.512  1.00  0.00    -0.190 A  
HETATM    5  N   UNL     1      -9.410   2.357  72.122  1.00  0.00    -0.090 NA 
HETATM    6  C   UNL     1      -9.469   5.410  70.346  1.00  0.00    -0.164 A  
HETATM    7  H2  UNL     1      -8.921   1.500  71.866  1.00  0.00     0.000 HD 
HETATM    8  H1  UNL     1      -9.986   2.326  72.963  1.00  0.00     0.000 HD 
HETATM    9  N   UNL     1      -8.338   4.758  69.784  1.00  0.00    -0.074 NA 
ENDROOT
BRANCH   4  10
HETATM   10  N   UNL     1     -10.770   4.856  72.558  1.00  0.00    -0.211 N  
HETATM   11  H   UNL     1     -11.096   4.017  73.039  1.00  0.00     0.000 HD 
BRANCH  10  12
HETATM   12  C   UNL     1     -11.251   6.046  73.010  1.00  0.00    -0.197 C  
HETATM   13  O   UNL     1     -10.780   6.538  74.028  1.00  0.00    -0.247 OA 
BRANCH  12  14
HETATM   14  N   UNL     1     -12.354   6.509  72.359  1.00  0.00    -0.534 N  
HETATM   15  H   UNL     1     -13.164   5.905  72.222  1.00  0.00     0.000 HD 
BRANCH  14  16
HETATM   16  C   UNL     1     -12.363   7.874  71.860  1.00  0.00    -0.315 C  
BRANCH  16  17
HETATM   17  C   UNL     1     -13.781   8.442  71.723  1.00  0.00    -0.393 C  
HETATM   18  H2  UNL     1     -13.529   9.795  73.262  1.00  0.00     0.000 HD 
HETATM   19  N   UNL     1     -14.195   9.083  72.962  1.00  0.00    -1.154 NA 
HETATM   20  H1  UNL     1     -15.138   9.461  72.871  1.00  0.00     0.000 HD 
ENDBRANCH  16  17
ENDBRANCH  14  16
ENDBRANCH  12  14
ENDBRANCH  10  12
ENDBRANCH   4  10
BRANCH   9  21
HETATM   21  C   UNL     1      -7.313   5.180  68.784  1.00  0.00    -0.062 C  
BRANCH  21  22
HETATM   22  C   UNL     1      -7.216   6.888  68.317  1.00  0.00    -0.091 C  
HETATM   23  CA  UNL     1      -7.387   7.775  66.625  1.00  0.00    -0.088 C  
HETATM   24  C   UNL     1      -8.857   9.807  66.115  1.00  0.00    -0.141 C  
HETATM   25  C   UNL     1      -6.979   7.832  69.924  1.00  0.00    -0.050 C  
HETATM   26  C   UNL     1      -7.489   7.123  64.831  1.00  0.00    -0.095 C  
HETATM   27  N   UNL     1      -7.542   9.392  66.401  1.00  0.00    -0.096 N  
HETATM   28  O   UNL     1      -9.828   9.272  65.595  1.00  0.00    -0.289 OA 
HETATM   29  S   UNL     1      -7.030  10.075  69.759  1.00  0.00    -0.125 SA 
HETATM   30  C   UNL     1      -7.413  10.507  67.578  1.00  0.00    -0.093 C  
HETATM   31  O   UNL     1      -6.794   6.091  64.556  1.00  0.00    -0.044 OA 
HETATM   32  OXT UNL     1      -8.069   7.935  64.068  1.00  0.00    -0.138 OA 
HETATM   33  CA  UNL     1      -8.924  10.835  67.250  1.00  0.00    -0.140 C  
BRANCH  33  34
HETATM   34  N   UNL     1     -10.013  10.528  68.238  1.00  0.00    -0.155 N  
HETATM   35  C   UNL     1     -10.980  11.349  68.836  1.00  0.00    -0.226 C  
HETATM   36  H   UNL     1     -10.057   9.550  68.525  1.00  0.00     0.000 HD 
HETATM   37  O   UNL     1     -11.752  10.755  69.588  1.00  0.00    -0.274 OA 
BRANCH  35  38
HETATM   38  C   UNL     1     -11.182  12.913  68.617  1.00  0.00    -0.281 C  
HETATM   39  C   UNL     1     -11.272  13.495  67.298  1.00  0.00    -0.298 C  
HETATM   40  C   UNL     1     -11.507  15.171  64.685  1.00  0.00    -0.362 C  
HETATM   41  N   UNL     1     -11.423  12.273  66.217  1.00  0.00    -0.362 NA 
HETATM   42  N   UNL     1     -12.053  16.016  63.761  1.00  0.00    -1.255 NA 
HETATM   43  H   UNL     1     -11.368  16.074  66.953  1.00  0.00     0.000 HD 
HETATM   44  S   UNL     1     -11.463  12.955  63.911  1.00  0.00    -0.461 SA 
HETATM   45  H1  UNL     1     -12.072  16.979  64.097  1.00  0.00     0.000 HD 
HETATM   46  H2  UNL     1     -12.398  15.721  62.848  1.00  0.00     0.000 HD 
HETATM   47  N   UNL     1     -11.382  15.200  66.429  1.00  0.00    -0.281 NA 
BRANCH  38  48
HETATM   48  N   UNL     1     -11.438  13.773  69.542  1.00  0.00    -0.327 NA 
HETATM   49  H   UNL     1     -10.677  14.266  70.008  1.00  0.00     0.000 HD 
BRANCH  48  50
HETATM   50  O   UNL     1     -12.731  14.019  69.892  1.00  0.00    -0.241 OA 
HETATM   51  O   UNL     1     -12.573  14.075  73.430  1.00  0.00    -0.243 OA 
HETATM   52  C   UNL     1     -12.768  13.767  72.261  1.00  0.00    -0.172 C  
HETATM   53  C   UNL     1     -14.077  15.481  71.131  1.00  0.00    -0.222 C  
HETATM   54  C   UNL     1     -11.394  15.560  71.540  1.00  0.00    -0.466 C  
HETATM   55  C   UNL     1     -12.715  14.778  71.129  1.00  0.00    -0.334 C  
HETATM   56  O   UNL     1     -13.049  12.506  71.878  1.00  0.00    -0.417 OA 
ENDBRANCH  48  50
ENDBRANCH  38  48
ENDBRANCH  35  38
ENDBRANCH  33  34
ENDBRANCH  21  22
ENDBRANCH   9  21
TORSDOF 11
ENDMDL
MODEL        8
REMARK 921   NORMALIZED FREE ENERGY PREDICTED BY IDOCK:   -5.76 KCAL/MOL
REMARK 922        TOTAL FREE ENERGY PREDICTED BY IDOCK:  -13.25 KCAL/MOL
REMARK 923 INTER-LIGAND FREE ENERGY PREDICTED BY IDOCK:  -10.79 KCAL/MOL
REMARK 924 INTRA-LIGAND FREE ENERGY PREDICTED BY IDOCK:   -2.46 KCAL/MOL
REMARK 927      BINDING AFFINITY PREDICTED BY RF-SCORE:    0.00 PKD
ROOT
HETATM    1  C   UNL     1     -10.597  19.194  67.026  1.00  0.00    -0.457 C  
HETATM    2  N   UNL     1      -9.738  18.455  67.929  1.00  0.00    -0.297 NA 
HETATM    3  C   UNL     1      -8.420  18.781  68.204  1.00  0.00    -0.306 A  
HETATM    4  C   UNL     1      -7.662  17.612  68.439  1.00  0.00    -0.269 A  
HETATM    5  N   UNL     1      -7.893  20.029  68.210  1.00  0.00    -0.251 NA 
HETATM    6  C   UNL     1      -8.638  16.576  68.204  1.00  0.00    -0.193 A  
HETATM    7  H2  UNL     1      -8.524  20.800  67.992  1.00  0.00     0.000 HD 
HETATM    8  H1  UNL     1      -6.923  20.270  68.411  1.00  0.00     0.000 HD 
HETATM    9  N   UNL     1      -9.932  17.161  68.258  1.00  0.00    -0.283 NA 
ENDROOT
BRANCH   4  10
HETATM   10  N   UNL     1      -6.301  17.677  68.675  1.00  0.00    -0.184 N  
HETATM   11  H   UNL     1      -5.705  17.883  67.873  1.00  0.00     0.000 HD 
BRANCH  10  12
HETATM   12  C   UNL     1      -5.678  17.494  69.871  1.00  0.00    -0.250 C  
HETATM   13  O   UNL     1      -5.510  18.453  70.615  1.00  0.00    -0.245 OA 
BRANCH  12  14
HETATM   14  N   UNL     1      -5.140  16.258  70.060  1.00  0.00    -0.133 N  
HETATM   15  H   UNL     1      -4.731  15.748  69.277  1.00  0.00     0.000 HD 
BRANCH  14  16
HETATM   16  C   UNL     1      -5.155  15.673  71.391  1.00  0.00    -0.118 C  
BRANCH  16  17
HETATM   17  C   UNL     1      -6.013  14.404  71.466  1.00  0.00    -0.004 C  
HETATM   18  H2  UNL     1      -5.486  13.777  69.570  1.00  0.00     0.000 HD 
HETATM   19  N   UNL     1      -6.327  13.921  70.130  1.00  0.00    -0.307 NA 
HETATM   20  H1  UNL     1      -6.898  13.077  70.179  1.00  0.00     0.000 HD 
ENDBRANCH  16  17
ENDBRANCH  14  16
ENDBRANCH  12  14
ENDBRANCH  10  12
ENDBRANCH   4  10
BRANCH   9  21
HETATM   21  C   UNL     1     -11.304  16.587  68.384  1.00  0.00    -0.209 C  
BRANCH  21  22
HETATM   22  C   UNL     1     -11.549  14.861  68.059  1.00  0.00    -0.363 C  
HETATM   23  CA  UNL     1     -11.531  13.839  66.436  1.00  0.00    -0.336 C  
HETATM   24  C   UNL     1     -10.242  11.667  66.022  1.00  0.00    -0.232 C  
HETATM   25  C   UNL     1     -11.772  14.062  69.744  1.00  0.00    -0.375 C  
HETATM   26  C   UNL     1     -11.474  14.344  64.594  1.00  0.00    -0.387 C  
HETATM   27  N   UNL     1     -11.506  12.202  66.334  1.00  0.00    -0.363 N  
HETATM   28  O   UNL     1      -9.262  12.085  65.418  1.00  0.00    -0.068 OA 
HETATM   29  S   UNL     1     -11.894  11.816  69.755  1.00  0.00    -0.338 SA 
HETATM   30  C   UNL     1     -11.656  11.192  67.601  1.00  0.00    -0.183 C  
HETATM   31  O   UNL     1     -12.104  15.402  64.269  1.00  0.00    -0.502 OA 
HETATM   32  OXT UNL     1     -10.994  13.434  63.872  1.00  0.00    -0.298 OA 
HETATM   33  CA  UNL     1     -10.192  10.726  67.231  1.00  0.00    -0.205 C  
BRANCH  33  34
HETATM   34  N   UNL     1      -9.034  11.021  68.141  1.00  0.00    -0.145 N  
HETATM   35  C   UNL     1      -8.456  10.274  69.177  1.00  0.00    -0.162 C  
HETATM   36  H   UNL     1      -8.590  11.925  67.976  1.00  0.00     0.000 HD 
HETATM   37  O   UNL     1      -7.482  10.812  69.704  1.00  0.00    -0.141 OA 
BRANCH  35  38
HETATM   38  C   UNL     1      -8.908   8.838  69.696  1.00  0.00    -0.141 C  
HETATM   39  C   UNL     1      -8.435   7.620  69.079  1.00  0.00    -0.132 C  
HETATM   40  C   UNL     1      -7.698   4.769  68.072  1.00  0.00    -0.082 C  
HETATM   41  N   UNL     1      -7.221   8.013  68.051  1.00  0.00    -0.092 NA 
HETATM   42  N   UNL     1      -7.213   3.492  68.110  1.00  0.00    -0.051 NA 
HETATM   43  H   UNL     1      -9.362   5.291  69.786  1.00  0.00     0.000 HD 
HETATM   44  S   UNL     1      -6.330   6.175  66.781  1.00  0.00    -0.046 SA 
HETATM   45  H1  UNL     1      -7.807   2.881  68.671  1.00  0.00     0.000 HD 
HETATM   46  H2  UNL     1      -6.362   3.187  67.637  1.00  0.00     0.000 HD 
HETATM   47  N   UNL     1      -8.688   5.721  69.153  1.00  0.00    -0.112 NA 
BRANCH  38  48
HETATM   48  N   UNL     1      -9.580   8.606  70.770  1.00  0.00    -0.176 NA 
HETATM   49  H   UNL     1      -9.098   8.342  71.629  1.00  0.00     0.000 HD 
BRANCH  48  50
HETATM   50  O   UNL     1     -10.937   8.714  70.751  1.00  0.00    -0.231 OA 
HETATM   51  O   UNL     1     -11.967   5.803  72.486  1.00  0.00    -0.275 OA 
HETATM   52  C   UNL     1     -11.716   6.641  71.629  1.00  0.00    -0.316 C  
HETATM   53  C   UNL     1     -12.821   8.749  72.143  1.00  0.00    -0.456 C  
HETATM   54  C   UNL     1     -10.467   7.902  73.201  1.00  0.00    -0.348 C  
HETATM   55  C   UNL     1     -11.444   8.097  71.962  1.00  0.00    -0.320 C  
HETATM   56  O   UNL     1     -11.662   6.344  70.315  1.00  0.00    -0.411 OA 
ENDBRANCH  48  50
ENDBRANCH  38  48
ENDBRANCH  35  38
ENDBRANCH  33  34
ENDBRANCH  21  22
ENDBRANCH   9  21
TORSDOF 11
ENDMDL
MODEL        9
REMARK 921   NORMALIZED FREE ENERGY PREDICTED BY IDOCK:   -5.59 KCAL/MOL
REMARK 922        TOTAL FREE ENERGY PREDICTED BY IDOCK:  -12.97 KCAL/MOL
REMARK 923 INTER-LIGAND FREE ENERGY PREDICTED BY IDOCK:  -10.29 KCAL/MOL
REMARK 924 INTRA-LIGAND FREE ENERGY PREDICTED BY IDOCK:   -2.68 KCAL/MOL
REMARK 927      BINDING AFFINITY PREDICTED BY RF-SCORE:    0.00 PKD
ROOT
HETATM    1  C   UNL     1     -10.617   7.970  69.542  1.00  0.00    -0.214 C  
HETATM    2  N   UNL     1      -9.823   6.864  69.046  1.00  0.00    -0.150 NA 
HETATM    3  C   UNL     1     -10.300   5.865  68.213  1.00  0.00    -0.214 A  
HETATM    4  C   UNL     1      -9.655   4.640  68.495  1.00  0.00    -0.158 A  
HETATM    5  N   UNL     1     -11.275   6.002  67.282  1.00  0.00    -0.488 NA 
HETATM    6  C   UNL     1      -8.817   4.997  69.613  1.00  0.00    -0.094 A  
HETATM    7  H2  UNL     1     -11.697   6.925  67.186  1.00  0.00     0.000 HD 
HETATM    8  H1  UNL     1     -11.627   5.267  66.670  1.00  0.00     0.000 HD 
HETATM    9  N   UNL     1      -8.705   6.414  69.650  1.00  0.00    -0.137 NA 
ENDROOT
BRANCH   4  10
HETATM   10  N   UNL     1     -10.008   3.477  67.833  1.00  0.00    -0.016 N  
HETATM   11  H   UNL     1     -11.005   3.289  67.734  1.00  0.00     0.000 HD 
BRANCH  10  12
HETATM   12  C   UNL     1      -9.155   2.560  67.301  1.00  0.00    -0.157 C  
HETATM   13  O   UNL     1      -8.521   1.824  68.048  1.00  0.00    -0.062 OA 
BRANCH  12  14
HETATM   14  N   UNL     1      -8.961   2.660  65.957  1.00  0.00    -0.139 N  
HETATM   15  H   UNL     1      -8.689   1.842  65.412  1.00  0.00     0.000 HD 
BRANCH  14  16
HETATM   16  C   UNL     1      -9.145   3.948  65.308  1.00  0.00    -0.142 C  
BRANCH  16  17
HETATM   17  C   UNL     1     -10.234   3.913  64.228  1.00  0.00    -0.226 C  
HETATM   18  H2  UNL     1     -11.369   5.376  65.141  1.00  0.00     0.000 HD 
HETATM   19  N   UNL     1     -11.486   4.441  64.750  1.00  0.00    -1.021 NA 
HETATM   20  H1  UNL     1     -12.210   4.418  64.032  1.00  0.00     0.000 HD 
ENDBRANCH  16  17
ENDBRANCH  14  16
ENDBRANCH  12  14
ENDBRANCH  10  12
ENDBRANCH   4  10
BRANCH   9  21
HETATM   21  C   UNL     1      -7.775   7.343  70.359  1.00  0.00    -0.093 C  
BRANCH  21  22
HETATM   22  C   UNL     1      -7.136   8.750  69.490  1.00  0.00    -0.055 C  
HETATM   23  CA  UNL     1      -6.996   9.159  67.622  1.00  0.00    -0.078 C  
HETATM   24  C   UNL     1      -7.739  11.325  66.480  1.00  0.00    -0.125 C  
HETATM   25  C   UNL     1      -6.629   9.973  70.824  1.00  0.00    -0.040 C  
HETATM   26  C   UNL     1      -7.280   8.113  66.048  1.00  0.00    -0.069 C  
HETATM   27  N   UNL     1      -6.627  10.625  66.985  1.00  0.00    -0.076 N  
HETATM   28  O   UNL     1      -8.823  10.992  66.021  1.00  0.00    -0.182 OA 
HETATM   29  S   UNL     1      -5.963  11.995  70.097  1.00  0.00    -0.133 SA 
HETATM   30  C   UNL     1      -6.164  11.921  67.852  1.00  0.00    -0.061 C  
HETATM   31  O   UNL     1      -6.946   6.884  66.108  1.00  0.00    -0.065 OA 
HETATM   32  OXT UNL     1      -7.563   8.826  65.053  1.00  0.00    -0.094 OA 
HETATM   33  CA  UNL     1      -7.488  12.590  67.309  1.00  0.00    -0.125 C  
BRANCH  33  34
HETATM   34  N   UNL     1      -8.630  12.905  68.233  1.00  0.00    -0.213 N  
HETATM   35  C   UNL     1      -9.675  13.834  68.132  1.00  0.00    -0.227 C  
HETATM   36  H   UNL     1      -8.647  12.345  69.086  1.00  0.00     0.000 HD 
HETATM   37  O   UNL     1     -10.470  13.805  69.071  1.00  0.00    -0.199 OA 
BRANCH  35  38
HETATM   38  C   UNL     1      -9.936  14.863  66.945  1.00  0.00    -0.242 C  
HETATM   39  C   UNL     1      -9.398  16.204  66.965  1.00  0.00    -0.218 C  
HETATM   40  C   UNL     1      -8.466  19.150  66.586  1.00  0.00    -0.310 C  
HETATM   41  N   UNL     1      -8.320  16.297  68.196  1.00  0.00    -0.169 NA 
HETATM   42  N   UNL     1      -7.854  20.226  66.007  1.00  0.00    -0.527 NA 
HETATM   43  H   UNL     1     -10.023  17.947  65.134  1.00  0.00     0.000 HD 
HETATM   44  S   UNL     1      -7.361  18.475  68.544  1.00  0.00    -0.301 SA 
HETATM   45  H1  UNL     1      -8.334  20.520  65.157  1.00  0.00     0.000 HD 
HETATM   46  H2  UNL     1      -7.021  20.680  66.381  1.00  0.00     0.000 HD 
HETATM   47  N   UNL     1      -9.452  17.843  65.972  1.00  0.00    -0.525 NA 
BRANCH  38  48
HETATM   48  N   UNL     1     -10.488  14.582  65.816  1.00  0.00    -0.306 NA 
HETATM   49  H   UNL     1     -11.107  15.256  65.366  1.00  0.00     0.000 HD 
BRANCH  48  50
HETATM   50  O   UNL     1     -10.239  13.380  65.226  1.00  0.00    -0.309 OA 
HETATM   51  O   UNL     1     -13.497  12.174  64.532  1.00  0.00    -0.614 OA 
HETATM   52  C   UNL     1     -12.385  12.366  65.006  1.00  0.00    -0.369 C  
HETATM   53  C   UNL     1     -10.671  12.131  63.292  1.00  0.00    -0.373 C  
HETATM   54  C   UNL     1     -12.164  14.356  63.735  1.00  0.00    -0.034 C  
HETATM   55  C   UNL     1     -11.301  13.132  64.268  1.00  0.00    -0.388 C  
HETATM   56  O   UNL     1     -12.024  11.912  66.223  1.00  0.00    -0.554 OA 
ENDBRANCH  48  50
ENDBRANCH  38  48
ENDBRANCH  35  38
ENDBRANCH  33  34
ENDBRANCH  21  22
ENDBRANCH   9  21
TORSDOF 11
ENDMDL
MODEL       10
REMARK 921   NORMALIZED FREE ENERGY PREDICTED BY IDOCK:   -5.47 KCAL/MOL
REMARK 922        TOTAL FREE ENERGY PREDICTED BY IDOCK:  -12.78 KCAL/MOL
REMARK 923 INTER-LIGAND FREE ENERGY PREDICTED BY IDOCK:  -10.55 KCAL/MOL
REMARK 924 INTRA-LIGAND FREE ENERGY PREDICTED BY IDOCK:   -2.22 KCAL/MOL
REMARK 927      BINDING AFFINITY PREDICTED BY RF-SCORE:    0.00 PKD
ROOT
HETATM    1  C   UNL     1     -10.894   5.673  67.053  1.00  0.00    -0.176 C  
HETATM    2  N   UNL     1      -9.870   4.689  66.770  1.00  0.00    -0.200 NA 
HETATM    3  C   UNL     1      -9.657   4.111  65.529  1.00  0.00    -0.188 A  
HETATM    4  C   UNL     1      -9.210   2.779  65.677  1.00  0.00    -0.103 A  
HETATM    5  N   UNL     1      -9.878   4.698  64.328  1.00  0.00    -0.359 NA 
HETATM    6  C   UNL     1      -9.253   2.609  67.109  1.00  0.00    -0.131 A  
HETATM    7  H2  UNL     1     -10.234   5.653  64.338  1.00  0.00     0.000 HD 
HETATM    8  H1  UNL     1      -9.721   4.272  63.415  1.00  0.00     0.000 HD 
HETATM    9  N   UNL     1      -9.311   3.897  67.708  1.00  0.00    -0.170 NA 
ENDROOT
BRANCH   4  10
HETATM   10  N   UNL     1      -8.987   1.972  64.575  1.00  0.00    -0.109 N  
HETATM   11  H   UNL     1      -8.310   1.217  64.687  1.00  0.00     0.000 HD 
BRANCH  10  12
HETATM   12  C   UNL     1      -9.580   2.087  63.356  1.00  0.00    -0.101 C  
HETATM   13  O   UNL     1     -10.715   1.654  63.196  1.00  0.00    -0.135 OA 
BRANCH  12  14
HETATM   14  N   UNL     1      -8.770   2.538  62.358  1.00  0.00    -0.074 N  
HETATM   15  H   UNL     1      -9.165   2.819  61.461  1.00  0.00     0.000 HD 
BRANCH  14  16
HETATM   16  C   UNL     1      -7.337   2.615  62.587  1.00  0.00    -0.044 C  
BRANCH  16  17
HETATM   17  C   UNL     1      -6.827   4.060  62.654  1.00  0.00    -0.035 C  
HETATM   18  H2  UNL     1      -5.724   3.729  64.368  1.00  0.00     0.000 HD 
HETATM   19  N   UNL     1      -6.413   4.391  64.010  1.00  0.00    -0.037 NA 
HETATM   20  H1  UNL     1      -6.074   5.352  64.055  1.00  0.00     0.000 HD 
ENDBRANCH  16  17
ENDBRANCH  14  16
ENDBRANCH  12  14
ENDBRANCH  10  12
ENDBRANCH   4  10
BRANCH   9  21
HETATM   21  C   UNL     1      -9.085   4.382  69.102  1.00  0.00    -0.125 C  
BRANCH  21  22
HETATM   22  C   UNL     1      -8.591   6.066  69.358  1.00  0.00    -0.122 C  
HETATM   23  CA  UNL     1      -7.716   7.341  68.223  1.00  0.00    -0.120 C  
HETATM   24  C   UNL     1      -8.466   9.747  67.779  1.00  0.00    -0.121 C  
HETATM   25  C   UNL     1      -9.195   6.507  71.081  1.00  0.00    -0.156 C  
HETATM   26  C   UNL     1      -6.869   7.182  66.517  1.00  0.00    -0.065 C  
HETATM   27  N   UNL     1      -7.573   8.948  68.518  1.00  0.00    -0.096 N  
HETATM   28  O   UNL     1      -9.032   9.623  66.701  1.00  0.00    -0.142 OA 
HETATM   29  S   UNL     1      -8.941   8.658  71.687  1.00  0.00    -0.233 SA 
HETATM   30  C   UNL     1      -8.014   9.679  69.902  1.00  0.00    -0.167 C  
HETATM   31  O   UNL     1      -6.236   6.100  66.290  1.00  0.00    -0.034 OA 
HETATM   32  OXT UNL     1      -6.854   8.274  65.896  1.00  0.00    -0.062 OA 
HETATM   33  CA  UNL     1      -9.054  10.458  69.003  1.00  0.00    -0.187 C  
BRANCH  33  34
HETATM   34  N   UNL     1     -10.530  10.222  69.149  1.00  0.00    -0.209 N  
HETATM   35  C   UNL     1     -11.617  11.108  69.128  1.00  0.00    -0.324 C  
HETATM   36  H   UNL     1     -10.788   9.244  69.288  1.00  0.00     0.000 HD 
HETATM   37  O   UNL     1     -12.715  10.563  69.247  1.00  0.00    -0.128 OA 
BRANCH  35  38
HETATM   38  C   UNL     1     -11.566  12.688  68.942  1.00  0.00    -0.317 C  
HETATM   39  C   UNL     1     -11.458  13.301  67.638  1.00  0.00    -0.321 C  
HETATM   40  C   UNL     1     -11.221  15.040  65.067  1.00  0.00    -0.409 C  
HETATM   41  N   UNL     1     -11.696  12.135  66.511  1.00  0.00    -0.564 NA 
HETATM   42  N   UNL     1     -11.556  15.975  64.128  1.00  0.00    -1.110 NA 
HETATM   43  H   UNL     1     -11.141  15.871  67.365  1.00  0.00     0.000 HD 
HETATM   44  S   UNL     1     -11.440  12.857  64.231  1.00  0.00    -0.405 SA 
HETATM   45  H1  UNL     1     -11.461  16.923  64.491  1.00  0.00     0.000 HD 
HETATM   46  H2  UNL     1     -11.863  15.751  63.181  1.00  0.00     0.000 HD 
HETATM   47  N   UNL     1     -11.240  15.019  66.815  1.00  0.00    -0.339 NA 
BRANCH  38  48
HETATM   48  N   UNL     1     -11.770  13.560  69.868  1.00  0.00    -0.420 NA 
HETATM   49  H   UNL     1     -10.980  14.003  70.337  1.00  0.00     0.000 HD 
BRANCH  48  50
HETATM   50  O   UNL     1     -13.045  13.886  70.217  1.00  0.00    -0.085 OA 
HETATM   51  O   UNL     1     -12.767  14.466  73.700  1.00  0.00    -0.418 OA 
HETATM   52  C   UNL     1     -13.007  13.992  72.597  1.00  0.00    -0.387 C  
HETATM   53  C   UNL     1     -14.321  15.548  71.263  1.00  0.00    -0.257 C  
HETATM   54  C   UNL     1     -11.624  15.624  71.573  1.00  0.00    -0.507 C  
HETATM   55  C   UNL     1     -12.973  14.820  71.325  1.00  0.00    -0.346 C  
HETATM   56  O   UNL     1     -13.324  12.694  72.416  1.00  0.00    -0.514 OA 
ENDBRANCH  48  50
ENDBRANCH  38  48
ENDBRANCH  35  38
ENDBRANCH  33  34
ENDBRANCH  21  22
ENDBRANCH   9  21
TORSDOF 11
ENDMDL
MODEL       11
REMARK 921   NORMALIZED FREE ENERGY PREDICTED BY IDOCK:   -5.47 KCAL/MOL
REMARK 922        TOTAL FREE ENERGY PREDICTED BY IDOCK:  -12.77 KCAL/MOL
REMARK 923 INTER-LIGAND FREE ENERGY PREDICTED BY IDOCK:  -10.98 KCAL/MOL
REMARK 924 INTRA-LIGAND FREE ENERGY PREDICTED BY IDOCK:   -1.79 KCAL/MOL
REMARK 927      BINDING AFFINITY PREDICTED BY RF-SCORE:    0.00 PKD
ROOT
HETATM    1  C   UNL     1     -10.185  17.053  66.713  1.00  0.00    -0.298 C  
HETATM    2  N   UNL     1     -10.243  15.824  65.947  1.00  0.00    -0.330 NA 
HETATM    3  C   UNL     1     -11.054  15.624  64.842  1.00  0.00    -0.402 A  
HETATM    4  C   UNL     1     -11.477  14.277  64.779  1.00  0.00    -0.393 A  
HETATM    5  N   UNL     1     -11.439  16.573  63.955  1.00  0.00    -1.599 NA 
HETATM    6  C   UNL     1     -10.904  13.731  65.984  1.00  0.00    -0.282 A  
HETATM    7  H2  UNL     1     -11.102  17.522  64.115  1.00  0.00     0.000 HD 
HETATM    8  H1  UNL     1     -12.036  16.426  63.141  1.00  0.00     0.000 HD 
HETATM    9  N   UNL     1      -9.890  14.618  66.437  1.00  0.00    -0.272 NA 
ENDROOT
BRANCH   4  10
HETATM   10  N   UNL     1     -12.348  13.846  63.794  1.00  0.00    -0.903 N  
HETATM   11  H   UNL     1     -13.032  14.523  63.456  1.00  0.00     0.000 HD 
BRANCH  10  12
HETATM   12  C   UNL     1     -12.382  12.609  63.230  1.00  0.00    -0.354 C  
HETATM   13  O   UNL     1     -13.389  11.921  63.348  1.00  0.00    -0.569 OA 
BRANCH  12  14
HETATM   14  N   UNL     1     -11.199  12.175  62.713  1.00  0.00    -0.224 N  
HETATM   15  H   UNL     1     -10.888  12.496  61.797  1.00  0.00     0.000 HD 
BRANCH  14  16
HETATM   16  C   UNL     1     -10.385  11.249  63.483  1.00  0.00    -0.408 C  
BRANCH  16  17
HETATM   17  C   UNL     1      -9.306  10.566  62.634  1.00  0.00    -0.312 C  
HETATM   18  H2  UNL     1      -7.793  11.778  63.345  1.00  0.00     0.000 HD 
HETATM   19  N   UNL     1      -8.164  11.450  62.453  1.00  0.00    -0.610 NA 
HETATM   20  H1  UNL     1      -7.446  10.996  61.888  1.00  0.00     0.000 HD 
ENDBRANCH  16  17
ENDBRANCH  14  16
ENDBRANCH  12  14
ENDBRANCH  10  12
ENDBRANCH   4  10
BRANCH   9  21
HETATM   21  C   UNL     1      -8.776  14.474  67.421  1.00  0.00    -0.199 C  
BRANCH  21  22
HETATM   22  C   UNL     1      -8.613  12.954  68.320  1.00  0.00    -0.170 C  
HETATM   23  CA  UNL     1      -9.900  11.667  68.923  1.00  0.00    -0.040 C  
HETATM   24  C   UNL     1      -9.790   9.133  68.586  1.00  0.00    -0.164 C  
HETATM   25  C   UNL     1      -6.765  12.708  68.552  1.00  0.00    -0.089 C  
HETATM   26  C   UNL     1     -11.810  11.679  68.974  1.00  0.00    -0.328 C  
HETATM   27  N   UNL     1      -9.561  10.172  69.507  1.00  0.00    -0.224 N  
HETATM   28  O   UNL     1     -10.538   8.989  67.628  1.00  0.00    -0.257 OA 
HETATM   29  S   UNL     1      -6.145  10.751  69.473  1.00  0.00    -0.067 SA 
HETATM   30  C   UNL     1      -8.064   9.614  69.813  1.00  0.00    -0.155 C  
HETATM   31  O   UNL     1     -12.370  12.797  69.222  1.00  0.00    -0.117 OA 
HETATM   32  OXT UNL     1     -12.289  10.517  68.973  1.00  0.00    -0.259 OA 
HETATM   33  CA  UNL     1      -8.378   8.545  68.693  1.00  0.00    -0.123 C  
BRANCH  33  34
HETATM   34  N   UNL     1      -7.647   8.565  67.380  1.00  0.00    -0.096 N  
HETATM   35  C   UNL     1      -7.443   7.565  66.418  1.00  0.00    -0.084 C  
HETATM   36  H   UNL     1      -7.225   9.464  67.147  1.00  0.00     0.000 HD 
HETATM   37  O   UNL     1      -6.815   7.938  65.428  1.00  0.00    -0.057 OA 
BRANCH  35  38
HETATM   38  C   UNL     1      -7.954   6.058  66.474  1.00  0.00    -0.105 C  
HETATM   39  C   UNL     1      -7.425   5.107  67.424  1.00  0.00    -0.083 C  
HETATM   40  C   UNL     1      -6.583   2.740  69.261  1.00  0.00    -0.033 C  
HETATM   41  N   UNL     1      -6.517   5.931  68.510  1.00  0.00    -0.044 NA 
HETATM   42  N   UNL     1      -6.708   1.731  70.175  1.00  0.00    -0.028 NA 
HETATM   43  H   UNL     1      -8.100   2.593  67.350  1.00  0.00     0.000 HD 
HETATM   44  S   UNL     1      -5.399   4.565  70.145  1.00  0.00    -0.008 SA 
HETATM   45  H1  UNL     1      -7.222   0.938  69.792  1.00  0.00     0.000 HD 
HETATM   46  H2  UNL     1      -6.334   1.767  71.123  1.00  0.00     0.000 HD 
HETATM   47  N   UNL     1      -7.528   3.248  67.881  1.00  0.00    -0.054 NA 
BRANCH  38  48
HETATM   48  N   UNL     1      -8.960   5.583  65.825  1.00  0.00    -0.155 NA 
HETATM   49  H   UNL     1      -9.679   6.209  65.463  1.00  0.00     0.000 HD 
BRANCH  48  50
HETATM   50  O   UNL     1      -9.056   4.239  65.623  1.00  0.00    -0.124 OA 
HETATM   51  O   UNL     1     -10.753   4.045  62.520  1.00  0.00    -0.209 OA 
HETATM   52  C   UNL     1     -10.456   4.019  63.708  1.00  0.00    -0.135 C  
HETATM   53  C   UNL     1      -8.554   2.547  64.083  1.00  0.00    -0.087 C  
HETATM   54  C   UNL     1      -8.411   5.125  63.240  1.00  0.00    -0.114 C  
HETATM   55  C   UNL     1      -9.017   4.005  64.192  1.00  0.00    -0.135 C  
HETATM   56  O   UNL     1     -11.381   4.000  64.688  1.00  0.00    -0.281 OA 
ENDBRANCH  48  50
ENDBRANCH  38  48
ENDBRANCH  35  38
ENDBRANCH  33  34
ENDBRANCH  21  22
ENDBRANCH   9  21
TORSDOF 11
ENDMDL
MODEL       12
REMARK 921   NORMALIZED FREE ENERGY PREDICTED BY IDOCK:   -5.44 KCAL/MOL
REMARK 922        TOTAL FREE ENERGY PREDICTED BY IDOCK:  -12.72 KCAL/MOL
REMARK 923 INTER-LIGAND FREE ENERGY PREDICTED BY IDOCK:   -9.75 KCAL/MOL
REMARK 924 INTRA-LIGAND FREE ENERGY PREDICTED BY IDOCK:   -2.97 KCAL/MOL
REMARK 927      BINDING AFFINITY PREDICTED BY RF-SCORE:    0.00 PKD
ROOT
HETATM    1  C   UNL     1     -10.746  19.190  67.273  1.00  0.00    -0.488 C  
HETATM    2  N   UNL     1      -9.871  18.308  68.018  1.00  0.00    -0.313 NA 
HETATM    3  C   UNL     1      -8.530  18.556  68.265  1.00  0.00    -0.318 A  
HETATM    4  C   UNL     1      -7.803  17.345  68.295  1.00  0.00    -0.247 A  
HETATM    5  N   UNL     1      -7.961  19.776  68.417  1.00  0.00    -0.312 NA 
HETATM    6  C   UNL     1      -8.824  16.379  67.970  1.00  0.00    -0.184 A  
HETATM    7  H2  UNL     1      -8.575  20.586  68.342  1.00  0.00     0.000 HD 
HETATM    8  H1  UNL     1      -6.974  19.958  68.598  1.00  0.00     0.000 HD 
HETATM    9  N   UNL     1     -10.092  16.987  68.173  1.00  0.00    -0.292 NA 
ENDROOT
BRANCH   4  10
HETATM   10  N   UNL     1      -6.430  17.339  68.465  1.00  0.00    -0.164 N  
HETATM   11  H   UNL     1      -5.887  17.937  67.843  1.00  0.00     0.000 HD 
BRANCH  10  12
HETATM   12  C   UNL     1      -5.732  16.613  69.380  1.00  0.00    -0.162 C  
HETATM   13  O   UNL     1      -5.506  17.095  70.484  1.00  0.00    -0.229 OA 
BRANCH  12  14
HETATM   14  N   UNL     1      -5.196  15.453  68.912  1.00  0.00    -0.098 N  
HETATM   15  H   UNL     1      -4.212  15.409  68.646  1.00  0.00     0.000 HD 
BRANCH  14  16
HETATM   16  C   UNL     1      -6.042  14.276  68.794  1.00  0.00    -0.085 C  
BRANCH  16  17
HETATM   17  C   UNL     1      -5.379  13.152  67.988  1.00  0.00    -0.106 C  
HETATM   18  H2  UNL     1      -6.899  13.081  66.592  1.00  0.00     0.000 HD 
HETATM   19  N   UNL     1      -6.371  12.446  67.190  1.00  0.00    -0.293 NA 
HETATM   20  H1  UNL     1      -5.931  11.698  66.653  1.00  0.00     0.000 HD 
ENDBRANCH  16  17
ENDBRANCH  14  16
ENDBRANCH  12  14
ENDBRANCH  10  12
ENDBRANCH   4  10
BRANCH   9  21
HETATM   21  C   UNL     1     -11.476  16.439  68.290  1.00  0.00    -0.143 C  
BRANCH  21  22
HETATM   22  C   UNL     1     -11.719  14.684  68.199  1.00  0.00    -0.360 C  
HETATM   23  CA  UNL     1     -11.823  13.472  66.717  1.00  0.00    -0.406 C  
HETATM   24  C   UNL     1     -10.537  11.275  66.456  1.00  0.00    -0.266 C  
HETATM   25  C   UNL     1     -11.780  14.095  69.982  1.00  0.00    -0.358 C  
HETATM   26  C   UNL     1     -11.935  13.748  64.829  1.00  0.00    -0.404 C  
HETATM   27  N   UNL     1     -11.779  11.835  66.812  1.00  0.00    -0.222 N  
HETATM   28  O   UNL     1      -9.621  11.622  65.723  1.00  0.00    -0.226 OA 
HETATM   29  S   UNL     1     -11.862  11.867  70.275  1.00  0.00    -0.201 SA 
HETATM   30  C   UNL     1     -11.801  10.986  68.199  1.00  0.00    -0.118 C  
HETATM   31  O   UNL     1     -12.609  14.755  64.436  1.00  0.00    -0.626 OA 
HETATM   32  OXT UNL     1     -11.504  12.760  64.183  1.00  0.00    -0.343 OA 
HETATM   33  CA  UNL     1     -10.367  10.488  67.761  1.00  0.00    -0.212 C  
BRANCH  33  34
HETATM   34  N   UNL     1      -9.140  10.900  68.523  1.00  0.00    -0.167 N  
HETATM   35  C   UNL     1      -8.164  10.143  69.188  1.00  0.00    -0.145 C  
HETATM   36  H   UNL     1      -8.989  11.908  68.564  1.00  0.00     0.000 HD 
HETATM   37  O   UNL     1      -7.261  10.813  69.690  1.00  0.00    -0.141 OA 
BRANCH  35  38
HETATM   38  C   UNL     1      -8.105   8.558  69.326  1.00  0.00    -0.113 C  
HETATM   39  C   UNL     1      -8.864   7.849  70.329  1.00  0.00    -0.140 C  
HETATM   40  C   UNL     1     -10.294   5.924  72.314  1.00  0.00    -0.198 C  
HETATM   41  N   UNL     1      -9.921   8.906  71.003  1.00  0.00    -0.232 NA 
HETATM   42  N   UNL     1     -11.091   4.900  72.742  1.00  0.00    -0.230 NA 
HETATM   43  H   UNL     1      -8.579   5.286  70.692  1.00  0.00     0.000 HD 
HETATM   44  S   UNL     1     -11.233   8.017  72.812  1.00  0.00    -0.310 SA 
HETATM   45  H1  UNL     1     -10.683   3.991  72.526  1.00  0.00     0.000 HD 
HETATM   46  H2  UNL     1     -11.984   5.029  73.218  1.00  0.00     0.000 HD 
HETATM   47  N   UNL     1      -9.109   6.085  71.039  1.00  0.00    -0.143 NA 
BRANCH  38  48
HETATM   48  N   UNL     1      -7.532   7.755  68.498  1.00  0.00    -0.101 NA 
HETATM   49  H   UNL     1      -6.516   7.744  68.413  1.00  0.00     0.000 HD 
BRANCH  48  50
HETATM   50  O   UNL     1      -8.292   6.919  67.736  1.00  0.00    -0.119 OA 
HETATM   51  O   UNL     1      -7.122   7.584  64.460  1.00  0.00    -0.059 OA 
HETATM   52  C   UNL     1      -7.783   7.526  65.489  1.00  0.00    -0.103 C  
HETATM   53  C   UNL     1      -8.150   5.210  66.141  1.00  0.00    -0.108 C  
HETATM   54  C   UNL     1      -5.913   6.659  66.663  1.00  0.00    -0.025 C  
HETATM   55  C   UNL     1      -7.495   6.521  66.591  1.00  0.00    -0.079 C  
HETATM   56  O   UNL     1      -8.823   8.347  65.734  1.00  0.00    -0.161 OA 
ENDBRANCH  48  50
ENDBRANCH  38  48
ENDBRANCH  35  38
ENDBRANCH  33  34
ENDBRANCH  21  22
ENDBRANCH   9  21
TORSDOF 11
ENDMDL
MODEL       13
REMARK 921   NORMALIZED FREE ENERGY PREDICTED BY IDOCK:   -5.35 KCAL/MOL
REMARK 922        TOTAL FREE ENERGY PREDICTED BY IDOCK:  -12.58 KCAL/MOL
REMARK 923 INTER-LIGAND FREE ENERGY PREDICTED BY IDOCK:   -9.66 KCAL/MOL
REMARK 924 INTRA-LIGAND FREE ENERGY PREDICTED BY IDOCK:   -2.92 KCAL/MOL
REMARK 927      BINDING AFFINITY PREDICTED BY RF-SCORE:    0.00 PKD
ROOT
HETATM    1  C   UNL     1     -12.111  13.707  67.447  1.00  0.00    -0.337 C  
HETATM    2  N   UNL     1     -11.132  14.459  66.688  1.00  0.00    -0.318 NA 
HETATM    3  C   UNL     1     -10.657  15.711  67.040  1.00  0.00    -0.311 A  
HETATM    4  C   UNL     1     -10.374  16.474  65.885  1.00  0.00    -0.350 A  
HETATM    5  N   UNL     1     -10.514  16.183  68.302  1.00  0.00    -0.265 NA 
HETATM    6  C   UNL     1     -10.797  15.583  64.832  1.00  0.00    -0.427 A  
HETATM    7  H2  UNL     1     -10.782  15.558  69.063  1.00  0.00     0.000 HD 
HETATM    8  H1  UNL     1     -10.165  17.105  68.562  1.00  0.00     0.000 HD 
HETATM    9  N   UNL     1     -10.899  14.272  65.372  1.00  0.00    -0.323 NA 
ENDROOT
BRANCH   4  10
HETATM   10  N   UNL     1      -9.944  17.785  65.981  1.00  0.00    -0.257 N  
HETATM   11  H   UNL     1      -8.935  17.939  65.978  1.00  0.00     0.000 HD 
BRANCH  10  12
HETATM   12  C   UNL     1     -10.732  18.890  66.079  1.00  0.00    -0.301 C  
HETATM   13  O   UNL     1     -11.155  19.419  65.058  1.00  0.00    -0.310 OA 
BRANCH  12  14
HETATM   14  N   UNL     1     -10.844  19.412  67.331  1.00  0.00    -0.490 N  
HETATM   15  H   UNL     1     -11.699  19.277  67.871  1.00  0.00     0.000 HD 
BRANCH  14  16
HETATM   16  C   UNL     1      -9.732  20.163  67.890  1.00  0.00    -0.366 C  
BRANCH  16  17
HETATM   17  C   UNL     1      -9.042  19.424  69.042  1.00  0.00    -0.248 C  
HETATM   18  H2  UNL     1      -7.614  18.575  67.816  1.00  0.00     0.000 HD 
HETATM   19  N   UNL     1      -8.278  18.293  68.537  1.00  0.00    -0.312 NA 
HETATM   20  H1  UNL     1      -7.818  17.801  69.304  1.00  0.00     0.000 HD 
ENDBRANCH  16  17
ENDBRANCH  14  16
ENDBRANCH  12  14
ENDBRANCH  10  12
ENDBRANCH   4  10
BRANCH   9  21
HETATM   21  C   UNL     1     -10.998  12.919  64.749  1.00  0.00    -0.318 C  
BRANCH  21  22
HETATM   22  C   UNL     1      -9.752  11.710  65.111  1.00  0.00    -0.245 C  
HETATM   23  CA  UNL     1      -8.739  11.336  66.696  1.00  0.00    -0.174 C  
HETATM   24  C   UNL     1      -8.417   9.044  67.788  1.00  0.00    -0.117 C  
HETATM   25  C   UNL     1      -9.605  10.664  63.558  1.00  0.00    -0.366 C  
HETATM   26  C   UNL     1      -8.549  12.266  68.355  1.00  0.00    -0.136 C  
HETATM   27  N   UNL     1      -7.816  10.005  66.953  1.00  0.00    -0.105 N  
HETATM   28  O   UNL     1      -9.245   9.092  68.688  1.00  0.00    -0.136 OA 
HETATM   29  S   UNL     1      -8.259   8.868  63.710  1.00  0.00    -0.158 SA 
HETATM   30  C   UNL     1      -7.491   8.873  65.831  1.00  0.00    -0.093 C  
HETATM   31  O   UNL     1      -8.557  13.540  68.302  1.00  0.00    -0.166 OA 
HETATM   32  OXT UNL     1      -8.212  11.497  69.290  1.00  0.00     0.084 OA 
HETATM   33  CA  UNL     1      -8.269   7.889  66.792  1.00  0.00    -0.116 C  
BRANCH  33  34
HETATM   34  N   UNL     1      -9.594   7.304  66.391  1.00  0.00    -0.348 N  
HETATM   35  C   UNL     1     -10.276   6.163  66.836  1.00  0.00    -0.208 C  
HETATM   36  H   UNL     1     -10.083   7.831  65.667  1.00  0.00     0.000 HD 
HETATM   37  O   UNL     1     -11.374   5.993  66.307  1.00  0.00     0.197 OA 
BRANCH  35  38
HETATM   38  C   UNL     1      -9.793   5.123  67.941  1.00  0.00    -0.155 C  
HETATM   39  C   UNL     1     -10.188   5.241  69.325  1.00  0.00    -0.231 C  
HETATM   40  C   UNL     1     -10.766   5.103  72.381  1.00  0.00    -0.216 C  
HETATM   41  N   UNL     1     -11.368   6.373  69.419  1.00  0.00    -0.402 NA 
HETATM   42  N   UNL     1     -11.203   4.593  73.571  1.00  0.00    -0.330 NA 
HETATM   43  H   UNL     1      -9.204   3.673  71.158  1.00  0.00     0.000 HD 
HETATM   44  S   UNL     1     -12.127   6.869  71.647  1.00  0.00    -0.367 SA 
HETATM   45  H1  UNL     1     -10.611   3.825  73.891  1.00  0.00     0.000 HD 
HETATM   46  H2  UNL     1     -12.018   4.937  74.078  1.00  0.00     0.000 HD 
HETATM   47  N   UNL     1      -9.865   4.441  71.037  1.00  0.00    -0.189 NA 
BRANCH  38  48
HETATM   48  N   UNL     1      -9.162   4.024  67.711  1.00  0.00    -0.146 NA 
HETATM   49  H   UNL     1      -8.531   3.639  68.414  1.00  0.00     0.000 HD 
BRANCH  48  50
HETATM   50  O   UNL     1      -9.343   3.379  66.525  1.00  0.00    -0.174 OA 
HETATM   51  O   UNL     1      -6.109   3.491  65.085  1.00  0.00    -0.022 OA 
HETATM   52  C   UNL     1      -7.287   3.680  65.359  1.00  0.00    -0.076 C  
HETATM   53  C   UNL     1      -8.541   1.597  65.235  1.00  0.00    -0.105 C  
HETATM   54  C   UNL     1      -7.047   2.415  67.350  1.00  0.00    -0.052 C  
HETATM   55  C   UNL     1      -8.100   2.708  66.196  1.00  0.00    -0.084 C  
HETATM   56  O   UNL     1      -7.966   4.767  64.941  1.00  0.00    -0.092 OA 
ENDBRANCH  48  50
ENDBRANCH  38  48
ENDBRANCH  35  38
ENDBRANCH  33  34
ENDBRANCH  21  22
ENDBRANCH   9  21
TORSDOF 11
ENDMDL
MODEL       14
REMARK 921   NORMALIZED FREE ENERGY PREDICTED BY IDOCK:   -5.34 KCAL/MOL
REMARK 922        TOTAL FREE ENERGY PREDICTED BY IDOCK:  -12.55 KCAL/MOL
REMARK 923 INTER-LIGAND FREE ENERGY PREDICTED BY IDOCK:  -10.88 KCAL/MOL
REMARK 924 INTRA-LIGAND FREE ENERGY PREDICTED BY IDOCK:   -1.68 KCAL/MOL
REMARK 927      BINDING AFFINITY PREDICTED BY RF-SCORE:    0.00 PKD
ROOT
HETATM    1  C   UNL     1     -13.255  14.637  72.849  1.00  0.00    -0.512 C  
HETATM    2  N   UNL     1     -12.409  14.556  71.676  1.00  0.00    -0.345 NA 
HETATM    3  C   UNL     1     -11.830  15.646  71.048  1.00  0.00    -0.400 A  
HETATM    4  C   UNL     1     -11.740  15.422  69.655  1.00  0.00    -0.338 A  
HETATM    5  N   UNL     1     -11.435  16.795  71.648  1.00  0.00    -0.371 NA 
HETATM    6  C   UNL     1     -12.386  14.139  69.521  1.00  0.00    -0.231 A  
HETATM    7  H2  UNL     1     -11.577  16.863  72.656  1.00  0.00     0.000 HD 
HETATM    8  H1  UNL     1     -11.008  17.597  71.186  1.00  0.00     0.000 HD 
HETATM    9  N   UNL     1     -12.434  13.528  70.803  1.00  0.00    -0.362 NA 
ENDROOT
BRANCH   4  10
HETATM   10  N   UNL     1     -11.250  16.396  68.804  1.00  0.00    -0.335 N  
HETATM   11  H   UNL     1     -11.860  17.193  68.618  1.00  0.00     0.000 HD 
BRANCH  10  12
HETATM   12  C   UNL     1     -10.037  16.397  68.189  1.00  0.00    -0.251 C  
HETATM   13  O   UNL     1      -9.127  17.074  68.654  1.00  0.00    -0.260 OA 
BRANCH  12  14
HETATM   14  N   UNL     1      -9.995  15.755  66.989  1.00  0.00    -0.235 N  
HETATM   15  H   UNL     1      -9.595  14.820  66.918  1.00  0.00     0.000 HD 
BRANCH  14  16
HETATM   16  C   UNL     1     -10.526  16.419  65.810  1.00  0.00    -0.354 C  
BRANCH  16  17
HETATM   17  C   UNL     1     -10.971  15.429  64.727  1.00  0.00    -0.393 C  
HETATM   18  H2  UNL     1     -11.280  16.908  63.318  1.00  0.00     0.000 HD 
HETATM   19  N   UNL     1     -11.770  16.106  63.716  1.00  0.00    -1.406 NA 
HETATM   20  H1  UNL     1     -12.066  15.448  62.995  1.00  0.00     0.000 HD 
ENDBRANCH  16  17
ENDBRANCH  14  16
ENDBRANCH  12  14
ENDBRANCH  10  12
ENDBRANCH   4  10
BRANCH   9  21
HETATM   21  C   UNL     1     -12.699  12.130  71.255  1.00  0.00    -0.261 C  
BRANCH  21  22
HETATM   22  C   UNL     1     -12.128  10.779  70.257  1.00  0.00    -0.433 C  
HETATM   23  CA  UNL     1     -11.399  10.703  68.485  1.00  0.00    -0.284 C  
HETATM   24  C   UNL     1      -9.260   9.493  67.772  1.00  0.00    -0.124 C  
HETATM   25  C   UNL     1     -12.277   9.256  71.346  1.00  0.00    -0.426 C  
HETATM   26  C   UNL     1     -11.246  12.006  67.095  1.00  0.00    -0.316 C  
HETATM   27  N   UNL     1     -10.665   9.404  67.805  1.00  0.00    -0.257 N  
HETATM   28  O   UNL     1      -8.463  10.421  67.738  1.00  0.00    -0.114 OA 
HETATM   29  S   UNL     1     -11.434   7.354  70.490  1.00  0.00    -0.219 SA 
HETATM   30  C   UNL     1     -10.587   7.925  68.479  1.00  0.00    -0.106 C  
HETATM   31  O   UNL     1     -12.200  12.844  66.987  1.00  0.00    -0.391 OA 
HETATM   32  OXT UNL     1     -10.309  11.739  66.301  1.00  0.00    -0.213 OA 
HETATM   33  CA  UNL     1      -9.024   8.158  68.489  1.00  0.00    -0.137 C  
BRANCH  33  34
HETATM   34  N   UNL     1      -8.277   8.327  69.781  1.00  0.00    -0.118 N  
HETATM   35  C   UNL     1      -7.731   7.385  70.666  1.00  0.00    -0.091 C  
HETATM   36  H   UNL     1      -8.142   9.297  70.066  1.00  0.00     0.000 HD 
HETATM   37  O   UNL     1      -7.146   7.878  71.630  1.00  0.00    -0.060 OA 
BRANCH  35  38
HETATM   38  C   UNL     1      -7.772   5.799  70.527  1.00  0.00    -0.099 C  
HETATM   39  C   UNL     1      -7.168   5.115  69.408  1.00  0.00    -0.057 C  
HETATM   40  C   UNL     1      -6.032   3.235  67.202  1.00  0.00    -0.024 C  
HETATM   41  N   UNL     1      -6.263   6.201  68.580  1.00  0.00    -0.034 NA 
HETATM   42  N   UNL     1      -5.289   2.234  66.641  1.00  0.00    -0.012 NA 
HETATM   43  H   UNL     1      -7.443   2.547  69.076  1.00  0.00     0.000 HD 
HETATM   44  S   UNL     1      -5.239   5.354  66.575  1.00  0.00    -0.009 SA 
HETATM   45  H1  UNL     1      -5.633   1.314  66.913  1.00  0.00     0.000 HD 
HETATM   46  H2  UNL     1      -4.490   2.389  66.028  1.00  0.00     0.000 HD 
HETATM   47  N   UNL     1      -6.997   3.360  68.654  1.00  0.00    -0.049 NA 
BRANCH  38  48
HETATM   48  N   UNL     1      -8.181   4.978  71.431  1.00  0.00    -0.111 NA 
HETATM   49  H   UNL     1      -7.511   4.410  71.949  1.00  0.00     0.000 HD 
BRANCH  48  50
HETATM   50  O   UNL     1      -9.514   4.872  71.690  1.00  0.00    -0.143 OA 
HETATM   51  O   UNL     1      -9.676   1.981  73.730  1.00  0.00    -0.080 OA 
HETATM   52  C   UNL     1      -9.744   2.778  72.803  1.00  0.00    -0.121 C  
HETATM   53  C   UNL     1     -11.063   4.722  73.441  1.00  0.00    -0.422 C  
HETATM   54  C   UNL     1      -8.438   4.337  74.022  1.00  0.00    -0.095 C  
HETATM   55  C   UNL     1      -9.660   4.280  73.007  1.00  0.00    -0.126 C  
HETATM   56  O   UNL     1      -9.902   2.392  71.521  1.00  0.00    -0.153 OA 
ENDBRANCH  48  50
ENDBRANCH  38  48
ENDBRANCH  35  38
ENDBRANCH  33  34
ENDBRANCH  21  22
ENDBRANCH   9  21
TORSDOF 11
ENDMDL
MODEL       15
REMARK 921   NORMALIZED FREE ENERGY PREDICTED BY IDOCK:   -5.20 KCAL/MOL
REMARK 922        TOTAL FREE ENERGY PREDICTED BY IDOCK:  -12.32 KCAL/MOL
REMARK 923 INTER-LIGAND FREE ENERGY PREDICTED BY IDOCK:  -10.00 KCAL/MOL
REMARK 924 INTRA-LIGAND FREE ENERGY PREDICTED BY IDOCK:   -2.33 KCAL/MOL
REMARK 927      BINDING AFFINITY PREDICTED BY RF-SCORE:    0.00 PKD
ROOT
HETATM    1  C   UNL     1      -7.415   3.497  67.955  1.00  0.00    -0.061 C  
HETATM    2  N   UNL     1      -8.695   4.073  67.595  1.00  0.00    -0.101 NA 
HETATM    3  C   UNL     1      -9.528   3.579  66.605  1.00  0.00    -0.156 A  
HETATM    4  C   UNL     1     -10.226   4.635  65.977  1.00  0.00    -0.277 A  
HETATM    5  N   UNL     1      -9.646   2.280  66.237  1.00  0.00    -0.346 NA 
HETATM    6  C   UNL     1      -9.671   5.790  66.638  1.00  0.00    -0.157 A  
HETATM    7  H2  UNL     1      -9.068   1.604  66.735  1.00  0.00     0.000 HD 
HETATM    8  H1  UNL     1     -10.259   1.917  65.508  1.00  0.00     0.000 HD 
HETATM    9  N   UNL     1      -9.033   5.357  67.832  1.00  0.00    -0.109 NA 
ENDROOT
BRANCH   4  10
HETATM   10  N   UNL     1     -11.076   4.397  64.911  1.00  0.00    -0.846 N  
HETATM   11  H   UNL     1     -12.057   4.644  65.041  1.00  0.00     0.000 HD 
BRANCH  10  12
HETATM   12  C   UNL     1     -10.732   3.866  63.706  1.00  0.00    -0.175 C  
HETATM   13  O   UNL     1     -11.064   2.718  63.438  1.00  0.00    -0.269 OA 
BRANCH  12  14
HETATM   14  N   UNL     1      -9.888   4.628  62.957  1.00  0.00    -0.365 N  
HETATM   15  H   UNL     1     -10.081   5.619  62.809  1.00  0.00     0.000 HD 
BRANCH  14  16
HETATM   16  C   UNL     1      -8.708   4.013  62.371  1.00  0.00    -0.090 C  
BRANCH  16  17
HETATM   17  C   UNL     1      -7.605   3.751  63.404  1.00  0.00    -0.059 C  
HETATM   18  H2  UNL     1      -6.597   5.499  62.964  1.00  0.00     0.000 HD 
HETATM   19  N   UNL     1      -6.405   4.502  63.068  1.00  0.00    -0.025 NA 
HETATM   20  H1  UNL     1      -5.671   4.328  63.755  1.00  0.00     0.000 HD 
ENDBRANCH  16  17
ENDBRANCH  14  16
ENDBRANCH  12  14
ENDBRANCH  10  12
ENDBRANCH   4  10
BRANCH   9  21
HETATM   21  C   UNL     1      -8.550   6.077  69.047  1.00  0.00    -0.120 C  
BRANCH  21  22
HETATM   22  C   UNL     1      -7.532   7.515  68.848  1.00  0.00    -0.096 C  
HETATM   23  CA  UNL     1      -6.787   8.364  67.298  1.00  0.00    -0.070 C  
HETATM   24  C   UNL     1      -6.913  10.854  66.720  1.00  0.00    -0.126 C  
HETATM   25  C   UNL     1      -7.331   8.227  70.575  1.00  0.00    -0.056 C  
HETATM   26  C   UNL     1      -6.685   7.839  65.463  1.00  0.00    -0.045 C  
HETATM   27  N   UNL     1      -6.089   9.848  67.259  1.00  0.00    -0.058 N  
HETATM   28  O   UNL     1      -7.834  10.864  65.915  1.00  0.00    -0.153 OA 
HETATM   29  S   UNL     1      -6.265  10.205  70.701  1.00  0.00    -0.077 SA 
HETATM   30  C   UNL     1      -5.778  10.760  68.570  1.00  0.00    -0.039 C  
HETATM   31  O   UNL     1      -6.517   6.598  65.231  1.00  0.00    -0.043 OA 
HETATM   32  OXT UNL     1      -6.575   8.829  64.696  1.00  0.00    -0.066 OA 
HETATM   33  CA  UNL     1      -6.796  11.787  67.931  1.00  0.00    -0.077 C  
BRANCH  33  34
HETATM   34  N   UNL     1      -8.125  12.060  68.576  1.00  0.00    -0.226 N  
HETATM   35  C   UNL     1      -9.207  12.853  68.169  1.00  0.00    -0.212 C  
HETATM   36  H   UNL     1      -8.265  11.584  69.468  1.00  0.00     0.000 HD 
HETATM   37  O   UNL     1     -10.170  12.825  68.935  1.00  0.00    -0.127 OA 
BRANCH  35  38
HETATM   38  C   UNL     1      -9.311  13.730  66.844  1.00  0.00    -0.261 C  
HETATM   39  C   UNL     1      -8.866  15.104  66.800  1.00  0.00    -0.271 C  
HETATM   40  C   UNL     1      -8.058  18.058  66.247  1.00  0.00    -0.224 C  
HETATM   41  N   UNL     1      -8.033  15.408  68.178  1.00  0.00    -0.129 NA 
HETATM   42  N   UNL     1      -7.417  19.114  65.662  1.00  0.00    -0.465 NA 
HETATM   43  H   UNL     1      -9.256  16.593  64.700  1.00  0.00     0.000 HD 
HETATM   44  S   UNL     1      -7.282  17.679  68.430  1.00  0.00    -0.245 SA 
HETATM   45  H1  UNL     1      -7.754  19.279  64.713  1.00  0.00     0.000 HD 
HETATM   46  H2  UNL     1      -6.692  19.668  66.117  1.00  0.00     0.000 HD 
HETATM   47  N   UNL     1      -8.839  16.622  65.629  1.00  0.00    -0.369 NA 
BRANCH  38  48
HETATM   48  N   UNL     1      -9.635  13.291  65.677  1.00  0.00    -0.490 NA 
HETATM   49  H   UNL     1      -9.414  12.331  65.411  1.00  0.00     0.000 HD 
BRANCH  48  50
HETATM   50  O   UNL     1     -10.273  14.115  64.801  1.00  0.00    -0.419 OA 
HETATM   51  O   UNL     1     -13.055  12.166  63.796  1.00  0.00    -0.774 OA 
HETATM   52  C   UNL     1     -11.987  12.763  63.845  1.00  0.00    -0.480 C  
HETATM   53  C   UNL     1     -12.344  15.116  64.359  1.00  0.00    -0.225 C  
HETATM   54  C   UNL     1     -12.263  13.100  66.177  1.00  0.00    -0.451 C  
HETATM   55  C   UNL     1     -11.694  13.831  64.885  1.00  0.00    -0.363 C  
HETATM   56  O   UNL     1     -10.980  12.526  62.982  1.00  0.00    -0.202 OA 
ENDBRANCH  48  50
ENDBRANCH  38  48
ENDBRANCH  35  38
ENDBRANCH  33  34
ENDBRANCH  21  22
ENDBRANCH   9  21
TORSDOF 11
ENDMDL
MODEL       16
REMARK 921   NORMALIZED FREE ENERGY PREDICTED BY IDOCK:   -5.19 KCAL/MOL
REMARK 922        TOTAL FREE ENERGY PREDICTED BY IDOCK:  -12.31 KCAL/MOL
REMARK 923 INTER-LIGAND FREE ENERGY PREDICTED BY IDOCK:   -9.81 KCAL/MOL
REMARK 924 INTRA-LIGAND FREE ENERGY PREDICTED BY IDOCK:   -2.50 KCAL/MOL
REMARK 927      BINDING AFFINITY PREDICTED BY RF-SCORE:    0.00 PKD
ROOT
HETATM    1  C   UNL     1     -10.897  19.424  67.880  1.00  0.00    -0.201 C  
HETATM    2  N   UNL     1      -9.939  18.444  68.349  1.00  0.00    -0.362 NA 
HETATM    3  C   UNL     1      -8.571  18.651  68.418  1.00  0.00    -0.337 A  
HETATM    4  C   UNL     1      -7.877  17.447  68.165  1.00  0.00    -0.234 A  
HETATM    5  N   UNL     1      -7.956  19.835  68.651  1.00  0.00    -0.286 NA 
HETATM    6  C   UNL     1      -8.958  16.539  67.868  1.00  0.00    -0.205 A  
HETATM    7  H2  UNL     1      -8.555  20.650  68.787  1.00  0.00     0.000 HD 
HETATM    8  H1  UNL     1      -6.949  19.988  68.701  1.00  0.00     0.000 HD 
HETATM    9  N   UNL     1     -10.166  17.114  68.349  1.00  0.00    -0.317 NA 
ENDROOT
BRANCH   4  10
HETATM   10  N   UNL     1      -6.495  17.414  68.118  1.00  0.00    -0.164 N  
HETATM   11  H   UNL     1      -6.006  17.374  69.012  1.00  0.00     0.000 HD 
BRANCH  10  12
HETATM   12  C   UNL     1      -5.723  17.429  66.998  1.00  0.00    -0.153 C  
HETATM   13  O   UNL     1      -5.401  16.369  66.475  1.00  0.00    -0.290 OA 
BRANCH  12  14
HETATM   14  N   UNL     1      -5.233  18.650  66.649  1.00  0.00    -0.132 N  
HETATM   15  H   UNL     1      -4.680  19.193  67.312  1.00  0.00     0.000 HD 
BRANCH  14  16
HETATM   16  C   UNL     1      -5.506  19.172  65.320  1.00  0.00    -0.174 C  
BRANCH  16  17
HETATM   17  C   UNL     1      -6.875  19.859  65.227  1.00  0.00    -0.279 C  
HETATM   18  H2  UNL     1      -6.073  21.669  64.639  1.00  0.00     0.000 HD 
HETATM   19  N   UNL     1      -6.728  21.303  65.331  1.00  0.00    -0.428 NA 
HETATM   20  H1  UNL     1      -7.638  21.760  65.269  1.00  0.00     0.000 HD 
ENDBRANCH  16  17
ENDBRANCH  14  16
ENDBRANCH  12  14
ENDBRANCH  10  12
ENDBRANCH   4  10
BRANCH   9  21
HETATM   21  C   UNL     1     -11.529  16.558  68.600  1.00  0.00    -0.146 C  
BRANCH  21  22
HETATM   22  C   UNL     1     -11.781  14.806  68.474  1.00  0.00    -0.347 C  
HETATM   23  CA  UNL     1     -11.769  13.606  66.979  1.00  0.00    -0.384 C  
HETATM   24  C   UNL     1     -10.488  11.396  66.814  1.00  0.00    -0.244 C  
HETATM   25  C   UNL     1     -12.004  14.206  70.240  1.00  0.00    -0.404 C  
HETATM   26  C   UNL     1     -11.712  13.897  65.091  1.00  0.00    -0.350 C  
HETATM   27  N   UNL     1     -11.750  11.968  67.064  1.00  0.00    -0.312 N  
HETATM   28  O   UNL     1      -9.508  11.739  66.165  1.00  0.00    -0.218 OA 
HETATM   29  S   UNL     1     -12.135  11.976  70.507  1.00  0.00    -0.202 SA 
HETATM   30  C   UNL     1     -11.902  11.110  68.437  1.00  0.00    -0.232 C  
HETATM   31  O   UNL     1     -12.339  14.914  64.648  1.00  0.00    -0.399 OA 
HETATM   32  OXT UNL     1     -11.237  12.909  64.476  1.00  0.00    -0.307 OA 
HETATM   33  CA  UNL     1     -10.441  10.598  68.122  1.00  0.00    -0.185 C  
BRANCH  33  34
HETATM   34  N   UNL     1      -9.280  10.991  68.991  1.00  0.00    -0.345 N  
HETATM   35  C   UNL     1      -8.195  10.249  69.479  1.00  0.00    -0.155 C  
HETATM   36  H   UNL     1      -9.282  11.971  69.277  1.00  0.00     0.000 HD 
HETATM   37  O   UNL     1      -7.396  10.904  70.149  1.00  0.00    -0.066 OA 
BRANCH  35  38
HETATM   38  C   UNL     1      -7.897   8.705  69.233  1.00  0.00    -0.101 C  
HETATM   39  C   UNL     1      -7.517   8.198  67.935  1.00  0.00    -0.098 C  
HETATM   40  C   UNL     1      -6.691   6.673  65.350  1.00  0.00    -0.050 C  
HETATM   41  N   UNL     1      -7.191   9.480  66.968  1.00  0.00    -0.086 NA 
HETATM   42  N   UNL     1      -5.937   5.892  64.519  1.00  0.00    -0.025 NA 
HETATM   43  H   UNL     1      -7.261   5.644  67.494  1.00  0.00     0.000 HD 
HETATM   44  S   UNL     1      -6.653   8.925  64.690  1.00  0.00    -0.066 SA 
HETATM   45  H1  UNL     1      -5.953   4.914  64.805  1.00  0.00     0.000 HD 
HETATM   46  H2  UNL     1      -5.422   6.245  63.712  1.00  0.00     0.000 HD 
HETATM   47  N   UNL     1      -7.171   6.546  67.026  1.00  0.00    -0.076 NA 
BRANCH  38  48
HETATM   48  N   UNL     1      -7.806   7.803  70.148  1.00  0.00    -0.094 NA 
HETATM   49  H   UNL     1      -7.263   6.956  69.980  1.00  0.00     0.000 HD 
BRANCH  48  50
HETATM   50  O   UNL     1      -8.438   7.987  71.340  1.00  0.00    -0.108 OA 
HETATM   51  O   UNL     1     -11.527   6.328  70.839  1.00  0.00    -0.327 OA 
HETATM   52  C   UNL     1     -10.646   7.166  70.981  1.00  0.00    -0.221 C  
HETATM   53  C   UNL     1      -9.480   6.833  73.092  1.00  0.00    -0.166 C  
HETATM   54  C   UNL     1      -8.987   5.482  70.788  1.00  0.00    -0.157 C  
HETATM   55  C   UNL     1      -9.287   6.833  71.571  1.00  0.00    -0.153 C  
HETATM   56  O   UNL     1     -10.806   8.457  70.628  1.00  0.00    -0.222 OA 
ENDBRANCH  48  50
ENDBRANCH  38  48
ENDBRANCH  35  38
ENDBRANCH  33  34
ENDBRANCH  21  22
ENDBRANCH   9  21
TORSDOF 11
ENDMDL
MODEL       17
REMARK 921   NORMALIZED FREE ENERGY PREDICTED BY IDOCK:   -5.03 KCAL/MOL
REMARK 922        TOTAL FREE ENERGY PREDICTED BY IDOCK:  -12.06 KCAL/MOL
REMARK 923 INTER-LIGAND FREE ENERGY PREDICTED BY IDOCK:  -10.35 KCAL/MOL
REMARK 924 INTRA-LIGAND FREE ENERGY PREDICTED BY IDOCK:   -1.71 KCAL/MOL
REMARK 927      BINDING AFFINITY PREDICTED BY RF-SCORE:    0.00 PKD
ROOT
HETATM    1  C   UNL     1     -11.941  13.134  63.385  1.00  0.00    -0.483 C  
HETATM    2  N   UNL     1     -11.519  13.887  64.549  1.00  0.00    -0.378 NA 
HETATM    3  C   UNL     1     -11.362  15.263  64.581  1.00  0.00    -0.358 A  
HETATM    4  C   UNL     1     -10.308  15.618  65.453  1.00  0.00    -0.393 A  
HETATM    5  N   UNL     1     -12.071  16.162  63.858  1.00  0.00    -1.261 NA 
HETATM    6  C   UNL     1      -9.819  14.326  65.867  1.00  0.00    -0.298 A  
HETATM    7  H2  UNL     1     -12.787  15.793  63.232  1.00  0.00     0.000 HD 
HETATM    8  H1  UNL     1     -11.956  17.175  63.881  1.00  0.00     0.000 HD 
HETATM    9  N   UNL     1     -10.815  13.356  65.570  1.00  0.00    -0.285 NA 
ENDROOT
BRANCH   4  10
HETATM   10  N   UNL     1      -9.920  16.937  65.606  1.00  0.00    -0.169 N  
HETATM   11  H   UNL     1      -9.978  17.532  64.780  1.00  0.00     0.000 HD 
BRANCH  10  12
HETATM   12  C   UNL     1      -9.468  17.520  66.749  1.00  0.00    -0.275 C  
HETATM   13  O   UNL     1      -8.280  17.436  67.038  1.00  0.00    -0.202 OA 
BRANCH  12  14
HETATM   14  N   UNL     1     -10.436  18.014  67.570  1.00  0.00    -0.387 N  
HETATM   15  H   UNL     1     -11.265  17.459  67.781  1.00  0.00     0.000 HD 
BRANCH  14  16
HETATM   16  C   UNL     1     -10.274  19.341  68.140  1.00  0.00    -0.418 C  
BRANCH  16  17
HETATM   17  C   UNL     1      -9.985  20.408  67.077  1.00  0.00    -0.428 C  
HETATM   18  H2  UNL     1      -7.994  19.887  66.907  1.00  0.00     0.000 HD 
HETATM   19  N   UNL     1      -8.564  20.722  67.043  1.00  0.00    -0.578 NA 
HETATM   20  H1  UNL     1      -8.372  21.431  66.335  1.00  0.00     0.000 HD 
ENDBRANCH  16  17
ENDBRANCH  14  16
ENDBRANCH  12  14
ENDBRANCH  10  12
ENDBRANCH   4  10
BRANCH   9  21
HETATM   21  C   UNL     1     -11.023  11.944  66.008  1.00  0.00    -0.309 C  
BRANCH  21  22
HETATM   22  C   UNL     1      -9.679  10.795  65.877  1.00  0.00    -0.272 C  
HETATM   23  CA  UNL     1      -8.396  10.159  67.153  1.00  0.00    -0.125 C  
HETATM   24  C   UNL     1      -7.787   7.716  67.609  1.00  0.00    -0.123 C  
HETATM   25  C   UNL     1      -9.750  10.142  64.117  1.00  0.00    -0.301 C  
HETATM   26  C   UNL     1      -7.970  10.704  68.935  1.00  0.00    -0.132 C  
HETATM   27  N   UNL     1      -7.382   8.887  66.942  1.00  0.00    -0.082 N  
HETATM   28  O   UNL     1      -8.452   7.490  68.612  1.00  0.00    -0.128 OA 
HETATM   29  S   UNL     1      -8.316   8.478  63.631  1.00  0.00    -0.016 SA 
HETATM   30  C   UNL     1      -7.200   8.069  65.548  1.00  0.00    -0.064 C  
HETATM   31  O   UNL     1      -8.045  11.951  69.186  1.00  0.00     0.096 OA 
HETATM   32  OXT UNL     1      -7.444   9.775  69.598  1.00  0.00    -0.085 OA 
HETATM   33  CA  UNL     1      -7.758   6.831  66.358  1.00  0.00    -0.098 C  
BRANCH  33  34
HETATM   34  N   UNL     1      -9.103   6.243  66.039  1.00  0.00    -0.251 N  
HETATM   35  C   UNL     1      -9.866   5.267  66.696  1.00  0.00    -0.179 C  
HETATM   36  H   UNL     1      -9.537   6.619  65.196  1.00  0.00     0.000 HD 
HETATM   37  O   UNL     1     -10.957   5.041  66.171  1.00  0.00    -0.242 OA 
BRANCH  35  38
HETATM   38  C   UNL     1      -9.480   4.476  68.023  1.00  0.00    -0.148 C  
HETATM   39  C   UNL     1     -10.007   4.850  69.315  1.00  0.00    -0.199 C  
HETATM   40  C   UNL     1     -10.872   5.293  72.272  1.00  0.00    -0.207 C  
HETATM   41  N   UNL     1     -11.202   5.946  69.076  1.00  0.00    -0.240 NA 
HETATM   42  N   UNL     1     -11.415   5.013  73.495  1.00  0.00    -0.451 NA 
HETATM   43  H   UNL     1      -9.188   3.697  71.502  1.00  0.00     0.000 HD 
HETATM   44  S   UNL     1     -12.174   6.844  71.084  1.00  0.00    -0.357 SA 
HETATM   45  H1  UNL     1     -10.850   4.339  74.012  1.00  0.00     0.000 HD 
HETATM   46  H2  UNL     1     -12.278   5.426  73.847  1.00  0.00     0.000 HD 
HETATM   47  N   UNL     1      -9.841   4.408  71.173  1.00  0.00    -0.185 NA 
BRANCH  38  48
HETATM   48  N   UNL     1      -8.821   3.371  68.073  1.00  0.00    -0.110 NA 
HETATM   49  H   UNL     1      -9.281   2.513  68.375  1.00  0.00     0.000 HD 
BRANCH  48  50
HETATM   50  O   UNL     1      -7.506   3.356  67.718  1.00  0.00    -0.058 OA 
HETATM   51  O   UNL     1      -5.862   3.283  70.855  1.00  0.00    -0.013 OA 
HETATM   52  C   UNL     1      -6.328   3.617  69.773  1.00  0.00    -0.028 C  
HETATM   53  C   UNL     1      -5.515   2.156  68.004  1.00  0.00    -0.017 C  
HETATM   54  C   UNL     1      -7.586   1.610  69.673  1.00  0.00    -0.042 C  
HETATM   55  C   UNL     1      -6.785   2.610  68.733  1.00  0.00    -0.036 C  
HETATM   56  O   UNL     1      -6.473   4.907  69.410  1.00  0.00    -0.033 OA 
ENDBRANCH  48  50
ENDBRANCH  38  48
ENDBRANCH  35  38
ENDBRANCH  33  34
ENDBRANCH  21  22
ENDBRANCH   9  21
TORSDOF 11
ENDMDL
MODEL       18
REMARK 921   NORMALIZED FREE ENERGY PREDICTED BY IDOCK:   -5.00 KCAL/MOL
REMARK 922        TOTAL FREE ENERGY PREDICTED BY IDOCK:  -11.99 KCAL/MOL
REMARK 923 INTER-LIGAND FREE ENERGY PREDICTED BY IDOCK:  -10.89 KCAL/MOL
REMARK 924 INTRA-LIGAND FREE ENERGY PREDICTED BY IDOCK:   -1.11 KCAL/MOL
REMARK 927      BINDING AFFINITY PREDICTED BY RF-SCORE:    0.00 PKD
ROOT
HETATM    1  C   UNL     1     -10.052  17.097  66.536  1.00  0.00    -0.310 C  
HETATM    2  N   UNL     1     -10.165  15.831  65.841  1.00  0.00    -0.330 NA 
HETATM    3  C   UNL     1     -11.020  15.591  64.778  1.00  0.00    -0.399 A  
HETATM    4  C   UNL     1     -11.475  14.254  64.804  1.00  0.00    -0.393 A  
HETATM    5  N   UNL     1     -11.416  16.500  63.854  1.00  0.00    -1.599 NA 
HETATM    6  C   UNL     1     -10.871  13.759  66.016  1.00  0.00    -0.282 A  
HETATM    7  H2  UNL     1     -11.052  17.448  63.950  1.00  0.00     0.000 HD 
HETATM    8  H1  UNL     1     -12.045  16.324  63.071  1.00  0.00     0.000 HD 
HETATM    9  N   UNL     1      -9.821  14.645  66.384  1.00  0.00    -0.272 NA 
ENDROOT
BRANCH   4  10
HETATM   10  N   UNL     1     -12.391  13.792  63.875  1.00  0.00    -0.756 N  
HETATM   11  H   UNL     1     -12.952  14.494  63.394  1.00  0.00     0.000 HD 
BRANCH  10  12
HETATM   12  C   UNL     1     -12.616  12.493  63.539  1.00  0.00    -0.367 C  
HETATM   13  O   UNL     1     -13.527  11.880  64.083  1.00  0.00    -0.591 OA 
BRANCH  12  14
HETATM   14  N   UNL     1     -11.678  11.933  62.726  1.00  0.00    -0.333 N  
HETATM   15  H   UNL     1     -11.922  11.642  61.780  1.00  0.00     0.000 HD 
BRANCH  14  16
HETATM   16  C   UNL     1     -10.323  11.755  63.223  1.00  0.00    -0.402 C  
BRANCH  16  17
HETATM   17  C   UNL     1     -10.237  10.703  64.336  1.00  0.00    -0.330 C  
HETATM   18  H2  UNL     1      -8.624   9.740  63.480  1.00  0.00     0.000 HD 
HETATM   19  N   UNL     1      -9.543   9.515  63.861  1.00  0.00    -0.403 NA 
HETATM   20  H1  UNL     1      -9.485   8.816  64.601  1.00  0.00     0.000 HD 
ENDBRANCH  16  17
ENDBRANCH  14  16
ENDBRANCH  12  14
ENDBRANCH  10  12
ENDBRANCH   4  10
BRANCH   9  21
HETATM   21  C   UNL     1      -8.676  14.527  67.334  1.00  0.00    -0.199 C  
BRANCH  21  22
HETATM   22  C   UNL     1      -8.513  13.053  68.308  1.00  0.00    -0.159 C  
HETATM   23  CA  UNL     1      -9.806  11.893  69.119  1.00  0.00     0.272 C  
HETATM   24  C   UNL     1      -9.888   9.342  68.935  1.00  0.00    -0.171 C  
HETATM   25  C   UNL     1      -6.669  12.696  68.367  1.00  0.00    -0.082 C  
HETATM   26  C   UNL     1     -11.697  12.038  69.361  1.00  0.00    -0.340 C  
HETATM   27  N   UNL     1      -9.501  10.415  69.760  1.00  0.00    -0.095 N  
HETATM   28  O   UNL     1     -10.740   9.194  68.069  1.00  0.00    -0.218 OA 
HETATM   29  S   UNL     1      -6.078  10.758  69.344  1.00  0.00    -0.061 SA 
HETATM   30  C   UNL     1      -8.017   9.775  69.948  1.00  0.00    -0.175 C  
HETATM   31  O   UNL     1     -12.158  13.203  69.593  1.00  0.00    -0.301 OA 
HETATM   32  OXT UNL     1     -12.243  10.913  69.483  1.00  0.00    -0.336 OA 
HETATM   33  CA  UNL     1      -8.512   8.668  68.936  1.00  0.00    -0.129 C  
BRANCH  33  34
HETATM   34  N   UNL     1      -7.923   8.562  67.558  1.00  0.00    -0.106 N  
HETATM   35  C   UNL     1      -7.964   7.531  66.609  1.00  0.00    -0.110 C  
HETATM   36  H   UNL     1      -7.401   9.387  67.260  1.00  0.00     0.000 HD 
HETATM   37  O   UNL     1      -7.392   7.794  65.552  1.00  0.00    -0.069 OA 
BRANCH  35  38
HETATM   38  C   UNL     1      -8.679   6.116  66.757  1.00  0.00    -0.116 C  
HETATM   39  C   UNL     1      -8.838   5.219  65.636  1.00  0.00    -0.152 C  
HETATM   40  C   UNL     1      -9.408   2.998  63.531  1.00  0.00    -0.096 C  
HETATM   41  N   UNL     1      -7.933   5.795  64.397  1.00  0.00    -0.121 NA 
HETATM   42  N   UNL     1      -9.377   1.765  62.941  1.00  0.00    -0.089 NA 
HETATM   43  H   UNL     1     -10.212   3.016  65.840  1.00  0.00     0.000 HD 
HETATM   44  S   UNL     1      -8.116   4.557  62.343  1.00  0.00    -0.074 SA 
HETATM   45  H1  UNL     1      -9.938   1.088  63.457  1.00  0.00     0.000 HD 
HETATM   46  H2  UNL     1      -8.857   1.550  62.091  1.00  0.00     0.000 HD 
HETATM   47  N   UNL     1      -9.660   3.551  65.170  1.00  0.00    -0.163 NA 
BRANCH  38  48
HETATM   48  N   UNL     1      -9.032   5.566  67.867  1.00  0.00    -0.109 NA 
HETATM   49  H   UNL     1      -9.981   5.211  67.984  1.00  0.00     0.000 HD 
BRANCH  48  50
HETATM   50  O   UNL     1      -8.131   5.462  68.883  1.00  0.00    -0.092 OA 
HETATM   51  O   UNL     1      -9.968   3.732  71.369  1.00  0.00    -0.174 OA 
HETATM   52  C   UNL     1      -9.385   4.582  70.709  1.00  0.00    -0.151 C  
HETATM   53  C   UNL     1      -7.083   3.910  70.289  1.00  0.00    -0.041 C  
HETATM   54  C   UNL     1      -9.249   3.089  68.871  1.00  0.00    -0.227 C  
HETATM   55  C   UNL     1      -8.413   4.230  69.596  1.00  0.00    -0.068 C  
HETATM   56  O   UNL     1      -9.552   5.904  70.912  1.00  0.00    -0.166 OA 
ENDBRANCH  48  50
ENDBRANCH  38  48
ENDBRANCH  35  38
ENDBRANCH  33  34
ENDBRANCH  21  22
ENDBRANCH   9  21
TORSDOF 11
ENDMDL
MODEL       19
REMARK 921   NORMALIZED FREE ENERGY PREDICTED BY IDOCK:   -4.99 KCAL/MOL
REMARK 922        TOTAL FREE ENERGY PREDICTED BY IDOCK:  -11.98 KCAL/MOL
REMARK 923 INTER-LIGAND FREE ENERGY PREDICTED BY IDOCK:   -9.82 KCAL/MOL
REMARK 924 INTRA-LIGAND FREE ENERGY PREDICTED BY IDOCK:   -2.17 KCAL/MOL
REMARK 927      BINDING AFFINITY PREDICTED BY RF-SCORE:    0.00 PKD
ROOT
HETATM    1  C   UNL     1      -8.696   3.294  67.876  1.00  0.00    -0.111 C  
HETATM    2  N   UNL     1      -8.485   3.921  69.165  1.00  0.00    -0.075 NA 
HETATM    3  C   UNL     1      -9.259   3.687  70.289  1.00  0.00    -0.152 A  
HETATM    4  C   UNL     1      -9.353   4.858  71.075  1.00  0.00    -0.153 A  
HETATM    5  N   UNL     1      -9.886   2.526  70.597  1.00  0.00     0.014 NA 
HETATM    6  C   UNL     1      -8.629   5.812  70.271  1.00  0.00    -0.133 A  
HETATM    7  H2  UNL     1      -9.779   1.753  69.940  1.00  0.00     0.000 HD 
HETATM    8  H1  UNL     1     -10.456   2.354  71.424  1.00  0.00     0.000 HD 
HETATM    9  N   UNL     1      -7.841   5.094  69.331  1.00  0.00    -0.079 NA 
ENDROOT
BRANCH   4  10
HETATM   10  N   UNL     1     -10.127   4.890  72.221  1.00  0.00    -0.185 N  
HETATM   11  H   UNL     1     -10.271   4.003  72.704  1.00  0.00     0.000 HD 
BRANCH  10  12
HETATM   12  C   UNL     1     -10.717   5.987  72.769  1.00  0.00    -0.237 C  
HETATM   13  O   UNL     1     -10.094   6.664  73.578  1.00  0.00    -0.198 OA 
BRANCH  12  14
HETATM   14  N   UNL     1     -12.038   6.140  72.478  1.00  0.00    -0.537 N  
HETATM   15  H   UNL     1     -12.735   5.534  72.911  1.00  0.00     0.000 HD 
BRANCH  14  16
HETATM   16  C   UNL     1     -12.445   7.177  71.544  1.00  0.00    -0.381 C  
BRANCH  16  17
HETATM   17  C   UNL     1     -13.825   7.759  71.873  1.00  0.00    -0.297 C  
HETATM   18  H2  UNL     1     -13.046   9.495  72.675  1.00  0.00     0.000 HD 
HETATM   19  N   UNL     1     -13.717   8.766  72.919  1.00  0.00    -0.876 NA 
HETATM   20  H1  UNL     1     -14.635   9.153  73.138  1.00  0.00     0.000 HD 
ENDBRANCH  16  17
ENDBRANCH  14  16
ENDBRANCH  12  14
ENDBRANCH  10  12
ENDBRANCH   4  10
BRANCH   9  21
HETATM   21  C   UNL     1      -6.694   5.483  68.457  1.00  0.00    -0.057 C  
BRANCH  21  22
HETATM   22  C   UNL     1      -6.617   7.138  67.823  1.00  0.00    -0.053 C  
HETATM   23  CA  UNL     1      -7.067   7.888  66.117  1.00  0.00    -0.062 C  
HETATM   24  C   UNL     1      -8.521   9.952  65.698  1.00  0.00    -0.144 C  
HETATM   25  C   UNL     1      -6.043   8.198  69.264  1.00  0.00    -0.038 C  
HETATM   26  C   UNL     1      -7.531   7.095  64.441  1.00  0.00    -0.097 C  
HETATM   27  N   UNL     1      -7.195   9.487  65.775  1.00  0.00    -0.094 N  
HETATM   28  O   UNL     1      -9.594   9.432  65.418  1.00  0.00    -0.273 OA 
HETATM   29  S   UNL     1      -6.031  10.418  68.903  1.00  0.00    -0.040 SA 
HETATM   30  C   UNL     1      -6.800  10.688  66.799  1.00  0.00    -0.108 C  
HETATM   31  O   UNL     1      -6.944   6.005  64.140  1.00  0.00    -0.047 OA 
HETATM   32  OXT UNL     1      -8.211   7.873  63.725  1.00  0.00    -0.114 OA 
HETATM   33  CA  UNL     1      -8.331  11.074  66.725  1.00  0.00    -0.147 C  
BRANCH  33  34
HETATM   34  N   UNL     1      -9.226  10.915  67.921  1.00  0.00    -0.149 N  
HETATM   35  C   UNL     1     -10.126  11.801  68.529  1.00  0.00    -0.207 C  
HETATM   36  H   UNL     1      -9.169  10.000  68.370  1.00  0.00     0.000 HD 
HETATM   37  O   UNL     1     -10.731  11.326  69.490  1.00  0.00    -0.197 OA 
BRANCH  35  38
HETATM   38  C   UNL     1     -10.445  13.298  68.091  1.00  0.00    -0.245 C  
HETATM   39  C   UNL     1      -9.546  14.389  68.389  1.00  0.00    -0.219 C  
HETATM   40  C   UNL     1      -7.939  17.021  68.815  1.00  0.00    -0.248 C  
HETATM   41  N   UNL     1      -8.140  13.750  68.935  1.00  0.00    -0.014 NA 
HETATM   42  N   UNL     1      -7.261  18.164  68.496  1.00  0.00    -0.259 NA 
HETATM   43  H   UNL     1     -10.190  16.860  67.874  1.00  0.00     0.000 HD 
HETATM   44  S   UNL     1      -6.495  15.360  69.634  1.00  0.00    -0.179 SA 
HETATM   45  H1  UNL     1      -7.888  18.885  68.140  1.00  0.00     0.000 HD 
HETATM   46  H2  UNL     1      -6.253  18.280  68.600  1.00  0.00     0.000 HD 
HETATM   47  N   UNL     1      -9.428  16.298  68.253  1.00  0.00    -0.211 NA 
BRANCH  38  48
HETATM   48  N   UNL     1     -11.409  13.665  67.320  1.00  0.00    -0.309 NA 
HETATM   49  H   UNL     1     -11.807  14.600  67.406  1.00  0.00     0.000 HD 
BRANCH  48  50
HETATM   50  O   UNL     1     -11.892  12.797  66.388  1.00  0.00    -0.382 OA 
HETATM   51  O   UNL     1     -12.534  14.913  63.621  1.00  0.00    -0.699 OA 
HETATM   52  C   UNL     1     -12.636  14.187  64.602  1.00  0.00    -0.258 C  
HETATM   53  C   UNL     1     -11.558  12.043  64.196  1.00  0.00    -0.460 C  
HETATM   54  C   UNL     1     -10.297  14.320  64.969  1.00  0.00    -0.448 C  
HETATM   55  C   UNL     1     -11.506  13.294  65.081  1.00  0.00    -0.295 C  
HETATM   56  O   UNL     1     -13.762  14.116  65.340  1.00  0.00    -0.363 OA 
ENDBRANCH  48  50
ENDBRANCH  38  48
ENDBRANCH  35  38
ENDBRANCH  33  34
ENDBRANCH  21  22
ENDBRANCH   9  21
TORSDOF 11
ENDMDL
MODEL       20
REMARK 921   NORMALIZED FREE ENERGY PREDICTED BY IDOCK:   -4.95 KCAL/MOL
REMARK 922        TOTAL FREE ENERGY PREDICTED BY IDOCK:  -11.92 KCAL/MOL
REMARK 923 INTER-LIGAND FREE ENERGY PREDICTED BY IDOCK:  -10.19 KCAL/MOL
REMARK 924 INTRA-LIGAND FREE ENERGY PREDICTED BY IDOCK:   -1.73 KCAL/MOL
REMARK 927      BINDING AFFINITY PREDICTED BY RF-SCORE:    0.00 PKD
ROOT
HETATM    1  C   UNL     1      -8.231  15.442  69.072  1.00  0.00    -0.217 C  
HETATM    2  N   UNL     1      -8.850  14.819  67.920  1.00  0.00    -0.163 NA 
HETATM    3  C   UNL     1     -10.159  15.030  67.520  1.00  0.00    -0.228 A  
HETATM    4  C   UNL     1     -10.694  13.856  66.944  1.00  0.00    -0.284 A  
HETATM    5  N   UNL     1     -10.867  16.174  67.683  1.00  0.00    -0.317 NA 
HETATM    6  C   UNL     1      -9.607  12.923  67.112  1.00  0.00    -0.225 A  
HETATM    7  H2  UNL     1     -10.392  16.951  68.144  1.00  0.00     0.000 HD 
HETATM    8  H1  UNL     1     -11.830  16.330  67.389  1.00  0.00     0.000 HD 
HETATM    9  N   UNL     1      -8.422  13.662  67.373  1.00  0.00    -0.191 NA 
ENDROOT
BRANCH   4  10
HETATM   10  N   UNL     1     -12.011  13.802  66.522  1.00  0.00    -0.411 N  
HETATM   11  H   UNL     1     -12.725  13.779  67.250  1.00  0.00     0.000 HD 
BRANCH  10  12
HETATM   12  C   UNL     1     -12.447  13.776  65.234  1.00  0.00    -0.480 C  
HETATM   13  O   UNL     1     -12.690  14.830  64.659  1.00  0.00    -0.523 OA 
BRANCH  12  14
HETATM   14  N   UNL     1     -12.736  12.538  64.745  1.00  0.00    -0.633 N  
HETATM   15  H   UNL     1     -13.278  11.878  65.301  1.00  0.00     0.000 HD 
BRANCH  14  16
HETATM   16  C   UNL     1     -12.262  12.169  63.421  1.00  0.00    -0.530 C  
BRANCH  16  17
HETATM   17  C   UNL     1     -10.857  11.554  63.449  1.00  0.00    -0.346 C  
HETATM   18  H2  UNL     1     -10.010  13.204  64.357  1.00  0.00     0.000 HD 
HETATM   19  N   UNL     1      -9.847  12.596  63.554  1.00  0.00    -0.673 NA 
HETATM   20  H1  UNL     1      -8.912  12.187  63.572  1.00  0.00     0.000 HD 
ENDBRANCH  16  17
ENDBRANCH  14  16
ENDBRANCH  12  14
ENDBRANCH  10  12
ENDBRANCH   4  10
BRANCH   9  21
HETATM   21  C   UNL     1      -6.972  13.305  67.344  1.00  0.00    -0.092 C  
BRANCH  21  22
HETATM   22  C   UNL     1      -6.500  11.606  67.536  1.00  0.00    -0.087 C  
HETATM   23  CA  UNL     1      -6.211  10.515  69.086  1.00  0.00    -0.045 C  
HETATM   24  C   UNL     1      -7.193   8.190  69.512  1.00  0.00    -0.073 C  
HETATM   25  C   UNL     1      -6.392  10.918  65.791  1.00  0.00    -0.038 C  
HETATM   26  C   UNL     1      -6.105  10.923  70.950  1.00  0.00     0.104 C  
HETATM   27  N   UNL     1      -6.042   8.883  69.092  1.00  0.00    -0.042 N  
HETATM   28  O   UNL     1      -8.133   8.461  70.247  1.00  0.00    -0.098 OA 
HETATM   29  S   UNL     1      -6.023   8.705  65.632  1.00  0.00    -0.052 SA 
HETATM   30  C   UNL     1      -5.932   7.958  67.759  1.00  0.00    -0.042 C  
HETATM   31  O   UNL     1      -5.562  12.032  71.264  1.00  0.00    -0.371 OA 
HETATM   32  OXT UNL     1      -6.391   9.931  71.666  1.00  0.00    -0.310 OA 
HETATM   33  CA  UNL     1      -7.280   7.306  68.263  1.00  0.00    -0.094 C  
BRANCH  33  34
HETATM   34  N   UNL     1      -8.564   7.506  67.508  1.00  0.00    -0.122 N  
HETATM   35  C   UNL     1      -9.898   7.263  67.868  1.00  0.00    -0.144 C  
HETATM   36  H   UNL     1      -8.445   7.885  66.568  1.00  0.00     0.000 HD 
HETATM   37  O   UNL     1     -10.718   7.576  67.005  1.00  0.00    -0.346 OA 
BRANCH  35  38
HETATM   38  C   UNL     1     -10.429   6.669  69.246  1.00  0.00    -0.214 C  
HETATM   39  C   UNL     1     -11.209   7.462  70.169  1.00  0.00    -0.218 C  
HETATM   40  C   UNL     1     -12.888   8.776  72.437  1.00  0.00    -0.371 C  
HETATM   41  N   UNL     1     -11.638   8.847  69.406  1.00  0.00     0.443 NA 
HETATM   42  N   UNL     1     -13.927   8.966  73.304  1.00  0.00    -1.217 NA 
HETATM   43  H   UNL     1     -11.872   6.553  72.518  1.00  0.00     0.000 HD 
HETATM   44  S   UNL     1     -12.844  10.424  70.765  1.00  0.00    -0.321 SA 
HETATM   45  H1  UNL     1     -13.946   8.250  74.030  1.00  0.00     0.000 HD 
HETATM   46  H2  UNL     1     -14.600   9.729  73.233  1.00  0.00     0.000 HD 
HETATM   47  N   UNL     1     -11.982   7.372  71.921  1.00  0.00    -0.293 NA 
BRANCH  38  48
HETATM   48  N   UNL     1     -10.369   5.434  69.604  1.00  0.00    -0.273 NA 
HETATM   49  H   UNL     1     -11.139   4.800  69.390  1.00  0.00     0.000 HD 
BRANCH  48  50
HETATM   50  O   UNL     1      -9.271   4.978  70.269  1.00  0.00    -0.128 OA 
HETATM   51  O   UNL     1      -9.190   1.553  69.369  1.00  0.00    -0.090 OA 
HETATM   52  C   UNL     1      -9.323   2.615  69.964  1.00  0.00    -0.122 C  
HETATM   53  C   UNL     1      -7.234   3.866  69.956  1.00  0.00    -0.042 C  
HETATM   54  C   UNL     1      -9.044   3.808  67.933  1.00  0.00    -0.191 C  
HETATM   55  C   UNL     1      -8.691   3.909  69.479  1.00  0.00    -0.081 C  
HETATM   56  O   UNL     1     -10.038   2.730  71.100  1.00  0.00     0.003 OA 
ENDBRANCH  48  50
ENDBRANCH  38  48
ENDBRANCH  35  38
ENDBRANCH  33  34
ENDBRANCH  21  22
ENDBRANCH   9  21
TORSDOF 11
ENDMDL
MODEL       21
REMARK 921   NORMALIZED FREE ENERGY PREDICTED BY IDOCK:   -4.94 KCAL/MOL
REMARK 922        TOTAL FREE ENERGY PREDICTED BY IDOCK:  -11.90 KCAL/MOL
REMARK 923 INTER-LIGAND FREE ENERGY PREDICTED BY IDOCK:  -10.82 KCAL/MOL
REMARK 924 INTRA-LIGAND FREE ENERGY PREDICTED BY IDOCK:   -1.08 KCAL/MOL
REMARK 927      BINDING AFFINITY PREDICTED BY RF-SCORE:    0.00 PKD
ROOT
HETATM    1  C   UNL     1     -12.248  13.936  64.009  1.00  0.00    -0.369 C  
HETATM    2  N   UNL     1     -11.593  14.610  65.112  1.00  0.00    -0.362 NA 
HETATM    3  C   UNL     1     -10.924  15.818  65.010  1.00  0.00    -0.417 A  
HETATM    4  C   UNL     1      -9.832  15.853  65.906  1.00  0.00    -0.351 A  
HETATM    5  N   UNL     1     -11.222  16.824  64.153  1.00  0.00    -1.383 NA 
HETATM    6  C   UNL     1      -9.880  14.532  66.483  1.00  0.00    -0.285 A  
HETATM    7  H2  UNL     1     -12.012  16.678  63.525  1.00  0.00     0.000 HD 
HETATM    8  H1  UNL     1     -10.730  17.713  64.077  1.00  0.00     0.000 HD 
HETATM    9  N   UNL     1     -11.165  13.981  66.226  1.00  0.00    -0.315 NA 
ENDROOT
BRANCH   4  10
HETATM   10  N   UNL     1      -8.972  16.937  65.944  1.00  0.00    -0.141 N  
HETATM   11  H   UNL     1      -9.174  17.706  65.306  1.00  0.00     0.000 HD 
BRANCH  10  12
HETATM   12  C   UNL     1      -7.885  17.078  66.750  1.00  0.00    -0.239 C  
HETATM   13  O   UNL     1      -6.825  16.557  66.426  1.00  0.00    -0.186 OA 
BRANCH  12  14
HETATM   14  N   UNL     1      -8.128  17.666  67.954  1.00  0.00    -0.227 N  
HETATM   15  H   UNL     1      -8.104  17.115  68.811  1.00  0.00     0.000 HD 
BRANCH  14  16
HETATM   16  C   UNL     1      -8.425  19.088  68.003  1.00  0.00    -0.301 C  
BRANCH  16  17
HETATM   17  C   UNL     1      -9.931  19.376  68.007  1.00  0.00    -0.387 C  
HETATM   18  H2  UNL     1     -10.185  18.774  66.048  1.00  0.00     0.000 HD 
HETATM   19  N   UNL     1     -10.418  19.566  66.648  1.00  0.00    -0.455 NA 
HETATM   20  H1  UNL     1     -11.419  19.757  66.650  1.00  0.00     0.000 HD 
ENDBRANCH  16  17
ENDBRANCH  14  16
ENDBRANCH  12  14
ENDBRANCH  10  12
ENDBRANCH   4  10
BRANCH   9  21
HETATM   21  C   UNL     1     -11.905  12.816  66.795  1.00  0.00    -0.382 C  
BRANCH  21  22
HETATM   22  C   UNL     1     -11.113  11.808  68.021  1.00  0.00    -0.297 C  
HETATM   23  CA  UNL     1     -11.478  11.511  69.880  1.00  0.00    -0.260 C  
HETATM   24  C   UNL     1     -11.670   9.243  71.049  1.00  0.00    -0.311 C  
HETATM   25  C   UNL     1      -9.750  10.892  67.109  1.00  0.00    -0.199 C  
HETATM   26  C   UNL     1     -12.665  12.361  71.113  1.00  0.00    -0.240 C  
HETATM   27  N   UNL     1     -10.815  10.336  70.812  1.00  0.00    -0.183 N  
HETATM   28  O   UNL     1     -12.885   9.102  71.095  1.00  0.00    -0.289 OA 
HETATM   29  S   UNL     1      -8.649   9.334  68.301  1.00  0.00    -0.125 SA 
HETATM   30  C   UNL     1      -9.621   9.339  70.337  1.00  0.00    -0.244 C  
HETATM   31  O   UNL     1     -12.833  13.617  70.975  1.00  0.00    -0.323 OA 
HETATM   32  OXT UNL     1     -12.974  11.604  72.067  1.00  0.00    -0.416 OA 
HETATM   33  CA  UNL     1     -10.683   8.187  70.538  1.00  0.00    -0.225 C  
BRANCH  33  34
HETATM   34  N   UNL     1     -11.221   7.419  69.364  1.00  0.00    -0.456 N  
HETATM   35  C   UNL     1     -10.668   6.377  68.607  1.00  0.00    -0.285 C  
HETATM   36  H   UNL     1     -12.153   7.706  69.066  1.00  0.00     0.000 HD 
HETATM   37  O   UNL     1     -11.407   5.949  67.720  1.00  0.00     0.016 OA 
BRANCH  35  38
HETATM   38  C   UNL     1      -9.238   5.703  68.798  1.00  0.00    -0.118 C  
HETATM   39  C   UNL     1      -8.588   4.975  67.732  1.00  0.00    -0.103 C  
HETATM   40  C   UNL     1      -6.836   3.326  65.757  1.00  0.00    -0.049 C  
HETATM   41  N   UNL     1      -9.426   5.248  66.351  1.00  0.00    -0.146 NA 
HETATM   42  N   UNL     1      -5.752   2.986  64.998  1.00  0.00    -0.017 NA 
HETATM   43  H   UNL     1      -6.362   3.683  68.129  1.00  0.00     0.000 HD 
HETATM   44  S   UNL     1      -8.633   4.042  64.426  1.00  0.00    -0.111 SA 
HETATM   45  H1  UNL     1      -4.971   2.674  65.576  1.00  0.00     0.000 HD 
HETATM   46  H2  UNL     1      -5.727   3.036  63.980  1.00  0.00     0.000 HD 
HETATM   47  N   UNL     1      -7.035   3.904  67.395  1.00  0.00    -0.054 NA 
BRANCH  38  48
HETATM   48  N   UNL     1      -8.465   5.860  69.815  1.00  0.00    -0.123 NA 
HETATM   49  H   UNL     1      -7.607   6.405  69.728  1.00  0.00     0.000 HD 
BRANCH  48  50
HETATM   50  O   UNL     1      -8.799   5.295  71.009  1.00  0.00    -0.130 OA 
HETATM   51  O   UNL     1      -6.498   2.614  71.265  1.00  0.00    -0.018 OA 
HETATM   52  C   UNL     1      -7.502   3.299  71.112  1.00  0.00    -0.040 C  
HETATM   53  C   UNL     1      -7.913   4.666  73.084  1.00  0.00    -0.100 C  
HETATM   54  C   UNL     1      -6.177   5.266  71.083  1.00  0.00    -0.026 C  
HETATM   55  C   UNL     1      -7.590   4.739  71.586  1.00  0.00    -0.091 C  
HETATM   56  O   UNL     1      -8.616   2.835  70.511  1.00  0.00    -0.055 OA 
ENDBRANCH  48  50
ENDBRANCH  38  48
ENDBRANCH  35  38
ENDBRANCH  33  34
ENDBRANCH  21  22
ENDBRANCH   9  21
TORSDOF 11
ENDMDL
MODEL       22
REMARK 921   NORMALIZED FREE ENERGY PREDICTED BY IDOCK:   -4.89 KCAL/MOL
REMARK 922        TOTAL FREE ENERGY PREDICTED BY IDOCK:  -11.82 KCAL/MOL
REMARK 923 INTER-LIGAND FREE ENERGY PREDICTED BY IDOCK:   -9.91 KCAL/MOL
REMARK 924 INTRA-LIGAND FREE ENERGY PREDICTED BY IDOCK:   -1.90 KCAL/MOL
REMARK 927      BINDING AFFINITY PREDICTED BY RF-SCORE:    0.00 PKD
ROOT
HETATM    1  C   UNL     1     -11.968  13.157  68.654  1.00  0.00    -0.284 C  
HETATM    2  N   UNL     1     -11.091  14.219  68.204  1.00  0.00    -0.250 NA 
HETATM    3  C   UNL     1     -10.600  15.229  69.015  1.00  0.00    -0.245 A  
HETATM    4  C   UNL     1     -10.458  16.427  68.278  1.00  0.00    -0.302 A  
HETATM    5  N   UNL     1     -10.326  15.127  70.338  1.00  0.00    -0.507 NA 
HETATM    6  C   UNL     1     -10.980  16.044  66.989  1.00  0.00    -0.154 A  
HETATM    7  H2  UNL     1     -10.498  14.224  70.778  1.00  0.00     0.000 HD 
HETATM    8  H1  UNL     1      -9.965  15.871  70.934  1.00  0.00     0.000 HD 
HETATM    9  N   UNL     1     -11.002  14.624  66.921  1.00  0.00    -0.316 NA 
ENDROOT
BRANCH   4  10
HETATM   10  N   UNL     1     -10.041  17.597  68.887  1.00  0.00    -0.362 N  
HETATM   11  H   UNL     1     -10.651  17.983  69.607  1.00  0.00     0.000 HD 
BRANCH  10  12
HETATM   12  C   UNL     1      -8.897  18.283  68.621  1.00  0.00    -0.275 C  
HETATM   13  O   UNL     1      -7.827  17.686  68.602  1.00  0.00    -0.276 OA 
BRANCH  12  14
HETATM   14  N   UNL     1      -9.034  19.636  68.560  1.00  0.00    -0.336 N  
HETATM   15  H   UNL     1      -8.434  20.241  69.121  1.00  0.00     0.000 HD 
BRANCH  14  16
HETATM   16  C   UNL     1     -10.046  20.209  67.687  1.00  0.00    -0.402 C  
BRANCH  16  17
HETATM   17  C   UNL     1      -9.732  19.993  66.201  1.00  0.00    -0.409 C  
HETATM   18  H2  UNL     1     -11.597  20.626  65.581  1.00  0.00     0.000 HD 
HETATM   19  N   UNL     1     -10.962  19.841  65.438  1.00  0.00    -0.317 NA 
HETATM   20  H1  UNL     1     -10.754  19.698  64.450  1.00  0.00     0.000 HD 
ENDBRANCH  16  17
ENDBRANCH  14  16
ENDBRANCH  12  14
ENDBRANCH  10  12
ENDBRANCH   4  10
BRANCH   9  21
HETATM   21  C   UNL     1     -11.148  13.661  65.789  1.00  0.00    -0.287 C  
BRANCH  21  22
HETATM   22  C   UNL     1      -9.916  12.405  65.563  1.00  0.00    -0.260 C  
HETATM   23  CA  UNL     1      -8.446  11.829  66.651  1.00  0.00    -0.153 C  
HETATM   24  C   UNL     1      -7.889   9.418  67.303  1.00  0.00    -0.099 C  
HETATM   25  C   UNL     1     -10.362  11.554  63.948  1.00  0.00    -0.422 C  
HETATM   26  C   UNL     1      -7.654  12.548  68.235  1.00  0.00    -0.129 C  
HETATM   27  N   UNL     1      -7.560  10.467  66.424  1.00  0.00    -0.126 N  
HETATM   28  O   UNL     1      -8.358   9.364  68.433  1.00  0.00    -0.116 OA 
HETATM   29  S   UNL     1      -9.139   9.740  63.427  1.00  0.00    -0.168 SA 
HETATM   30  C   UNL     1      -7.695   9.477  65.141  1.00  0.00    -0.112 C  
HETATM   31  O   UNL     1      -7.613  13.818  68.330  1.00  0.00    -0.119 OA 
HETATM   32  OXT UNL     1      -7.059  11.667  68.905  1.00  0.00    -0.102 OA 
HETATM   33  CA  UNL     1      -8.150   8.391  66.195  1.00  0.00    -0.106 C  
BRANCH  33  34
HETATM   34  N   UNL     1      -9.560   7.874  66.212  1.00  0.00    -0.390 N  
HETATM   35  C   UNL     1     -10.221   7.015  67.102  1.00  0.00    -0.248 C  
HETATM   36  H   UNL     1     -10.139   8.206  65.440  1.00  0.00     0.000 HD 
HETATM   37  O   UNL     1     -11.406   6.822  66.831  1.00  0.00    -0.318 OA 
BRANCH  35  38
HETATM   38  C   UNL     1      -9.612   6.317  68.397  1.00  0.00    -0.121 C  
HETATM   39  C   UNL     1      -9.919   6.780  69.730  1.00  0.00    -0.177 C  
HETATM   40  C   UNL     1     -10.283   7.428  72.753  1.00  0.00    -0.238 C  
HETATM   41  N   UNL     1     -11.147   7.859  69.619  1.00  0.00    -0.104 NA 
HETATM   42  N   UNL     1     -10.612   7.234  74.065  1.00  0.00    -0.564 NA 
HETATM   43  H   UNL     1      -8.735   5.779  71.823  1.00  0.00     0.000 HD 
HETATM   44  S   UNL     1     -11.780   8.896  71.696  1.00  0.00    -0.368 SA 
HETATM   45  H1  UNL     1      -9.962   6.596  74.525  1.00  0.00     0.000 HD 
HETATM   46  H2  UNL     1     -11.408   7.672  74.528  1.00  0.00     0.000 HD 
HETATM   47  N   UNL     1      -9.441   6.467  71.560  1.00  0.00    -0.158 NA 
BRANCH  38  48
HETATM   48  N   UNL     1      -8.942   5.217  68.411  1.00  0.00    -0.108 NA 
HETATM   49  H   UNL     1      -9.210   4.463  69.043  1.00  0.00     0.000 HD 
BRANCH  48  50
HETATM   50  O   UNL     1      -7.876   5.067  67.577  1.00  0.00    -0.094 OA 
HETATM   51  O   UNL     1      -7.959   1.605  66.833  1.00  0.00    -0.065 OA 
HETATM   52  C   UNL     1      -7.677   2.712  67.274  1.00  0.00    -0.069 C  
HETATM   53  C   UNL     1      -7.267   4.280  65.457  1.00  0.00    -0.068 C  
HETATM   54  C   UNL     1      -9.710   3.589  66.423  1.00  0.00    -0.041 C  
HETATM   55  C   UNL     1      -8.190   3.998  66.648  1.00  0.00    -0.101 C  
HETATM   56  O   UNL     1      -6.887   2.887  68.352  1.00  0.00    -0.046 OA 
ENDBRANCH  48  50
ENDBRANCH  38  48
ENDBRANCH  35  38
ENDBRANCH  33  34
ENDBRANCH  21  22
ENDBRANCH   9  21
TORSDOF 11
ENDMDL
MODEL       23
REMARK 921   NORMALIZED FREE ENERGY PREDICTED BY IDOCK:   -4.87 KCAL/MOL
REMARK 922        TOTAL FREE ENERGY PREDICTED BY IDOCK:  -11.79 KCAL/MOL
REMARK 923 INTER-LIGAND FREE ENERGY PREDICTED BY IDOCK:   -8.38 KCAL/MOL
REMARK 924 INTRA-LIGAND FREE ENERGY PREDICTED BY IDOCK:   -3.41 KCAL/MOL
REMARK 927      BINDING AFFINITY PREDICTED BY RF-SCORE:    0.00 PKD
ROOT
HETATM    1  C   UNL     1     -10.831  18.972  68.150  1.00  0.00     0.026 C  
HETATM    2  N   UNL     1      -9.873  17.968  68.565  1.00  0.00    -0.360 NA 
HETATM    3  C   UNL     1      -8.499  18.149  68.574  1.00  0.00    -0.299 A  
HETATM    4  C   UNL     1      -7.841  16.934  68.278  1.00  0.00    -0.208 A  
HETATM    5  N   UNL     1      -7.851  19.319  68.789  1.00  0.00    -0.352 NA 
HETATM    6  C   UNL     1      -8.952  16.050  68.024  1.00  0.00    -0.187 A  
HETATM    7  H2  UNL     1      -8.427  20.143  68.959  1.00  0.00     0.000 HD 
HETATM    8  H1  UNL     1      -6.840  19.452  68.795  1.00  0.00     0.000 HD 
HETATM    9  N   UNL     1     -10.125  16.643  68.564  1.00  0.00    -0.252 NA 
ENDROOT
BRANCH   4  10
HETATM   10  N   UNL     1      -6.463  16.875  68.169  1.00  0.00    -0.142 N  
HETATM   11  H   UNL     1      -6.019  17.574  67.574  1.00  0.00     0.000 HD 
BRANCH  10  12
HETATM   12  C   UNL     1      -5.641  15.977  68.776  1.00  0.00    -0.108 C  
HETATM   13  O   UNL     1      -5.302  16.161  69.939  1.00  0.00    -0.128 OA 
BRANCH  12  14
HETATM   14  N   UNL     1      -5.128  15.016  67.958  1.00  0.00    -0.117 N  
HETATM   15  H   UNL     1      -4.723  15.268  67.057  1.00  0.00     0.000 HD 
BRANCH  14  16
HETATM   16  C   UNL     1      -5.165  13.627  68.385  1.00  0.00    -0.098 C  
BRANCH  16  17
HETATM   17  C   UNL     1      -6.574  13.171  68.785  1.00  0.00    -0.096 C  
HETATM   18  H2  UNL     1      -6.474  11.440  67.664  1.00  0.00     0.000 HD 
HETATM   19  N   UNL     1      -7.102  12.231  67.807  1.00  0.00    -0.102 NA 
HETATM   20  H1  UNL     1      -8.038  11.927  68.073  1.00  0.00     0.000 HD 
ENDBRANCH  16  17
ENDBRANCH  14  16
ENDBRANCH  12  14
ENDBRANCH  10  12
ENDBRANCH   4  10
BRANCH   9  21
HETATM   21  C   UNL     1     -11.486  16.110  68.872  1.00  0.00    -0.331 C  
BRANCH  21  22
HETATM   22  C   UNL     1     -11.773  14.364  68.757  1.00  0.00    -0.372 C  
HETATM   23  CA  UNL     1     -11.760  13.149  67.273  1.00  0.00    -0.374 C  
HETATM   24  C   UNL     1     -10.524  10.911  67.151  1.00  0.00    -0.237 C  
HETATM   25  C   UNL     1     -12.042  13.785  70.524  1.00  0.00    -0.416 C  
HETATM   26  C   UNL     1     -11.662  13.422  65.384  1.00  0.00    -0.331 C  
HETATM   27  N   UNL     1     -11.778  11.512  67.373  1.00  0.00    -0.226 N  
HETATM   28  O   UNL     1      -9.525  11.227  66.518  1.00  0.00    -0.184 OA 
HETATM   29  S   UNL     1     -12.225  11.561  70.808  1.00  0.00    -0.299 SA 
HETATM   30  C   UNL     1     -11.973  10.670  68.751  1.00  0.00     0.001 C  
HETATM   31  O   UNL     1     -12.259  14.448  64.921  1.00  0.00    -0.413 OA 
HETATM   32  OXT UNL     1     -11.197  12.418  64.787  1.00  0.00    -0.293 OA 
HETATM   33  CA  UNL     1     -10.518  10.125  68.467  1.00  0.00    -0.195 C  
BRANCH  33  34
HETATM   34  N   UNL     1      -9.366  10.501  69.354  1.00  0.00    -0.363 N  
HETATM   35  C   UNL     1      -8.321   9.735  69.891  1.00  0.00    -0.184 C  
HETATM   36  H   UNL     1      -9.338  11.488  69.612  1.00  0.00     0.000 HD 
HETATM   37  O   UNL     1      -7.515  10.380  70.563  1.00  0.00    -0.188 OA 
BRANCH  35  38
HETATM   38  C   UNL     1      -8.075   8.174  69.697  1.00  0.00    -0.118 C  
HETATM   39  C   UNL     1      -7.546   7.632  68.467  1.00  0.00    -0.110 C  
HETATM   40  C   UNL     1      -6.455   6.033  66.029  1.00  0.00    -0.046 C  
HETATM   41  N   UNL     1      -7.023   8.883  67.547  1.00  0.00    -0.074 NA 
HETATM   42  N   UNL     1      -5.636   5.203  65.315  1.00  0.00    -0.013 NA 
HETATM   43  H   UNL     1      -7.369   5.062  68.079  1.00  0.00     0.000 HD 
HETATM   44  S   UNL     1      -6.207   8.272  65.369  1.00  0.00    -0.045 SA 
HETATM   45  H1  UNL     1      -5.744   4.231  65.601  1.00  0.00     0.000 HD 
HETATM   46  H2  UNL     1      -4.997   5.519  64.585  1.00  0.00     0.000 HD 
HETATM   47  N   UNL     1      -7.167   5.952  67.624  1.00  0.00    -0.074 NA 
BRANCH  38  48
HETATM   48  N   UNL     1      -8.158   7.281  70.621  1.00  0.00    -0.107 NA 
HETATM   49  H   UNL     1      -7.673   6.390  70.517  1.00  0.00     0.000 HD 
BRANCH  48  50
HETATM   50  O   UNL     1      -8.898   7.533  71.736  1.00  0.00    -0.114 OA 
HETATM   51  O   UNL     1      -8.021   4.843  73.868  1.00  0.00    -0.100 OA 
HETATM   52  C   UNL     1      -8.600   5.603  73.102  1.00  0.00    -0.117 C  
HETATM   53  C   UNL     1      -8.728   7.841  74.051  1.00  0.00    -0.316 C  
HETATM   54  C   UNL     1      -6.587   6.805  72.741  1.00  0.00    -0.066 C  
HETATM   55  C   UNL     1      -8.154   7.038  72.879  1.00  0.00    -0.106 C  
HETATM   56  O   UNL     1      -9.685   5.234  72.393  1.00  0.00    -0.149 OA 
ENDBRANCH  48  50
ENDBRANCH  38  48
ENDBRANCH  35  38
ENDBRANCH  33  34
ENDBRANCH  21  22
ENDBRANCH   9  21
TORSDOF 11
ENDMDL
MODEL       24
REMARK 921   NORMALIZED FREE ENERGY PREDICTED BY IDOCK:   -4.81 KCAL/MOL
REMARK 922        TOTAL FREE ENERGY PREDICTED BY IDOCK:  -11.69 KCAL/MOL
REMARK 923 INTER-LIGAND FREE ENERGY PREDICTED BY IDOCK:   -9.32 KCAL/MOL
REMARK 924 INTRA-LIGAND FREE ENERGY PREDICTED BY IDOCK:   -2.36 KCAL/MOL
REMARK 927      BINDING AFFINITY PREDICTED BY RF-SCORE:    0.00 PKD
ROOT
HETATM    1  C   UNL     1      -8.986  15.574  69.330  1.00  0.00    -0.267 C  
HETATM    2  N   UNL     1      -9.427  14.860  68.148  1.00  0.00    -0.197 NA 
HETATM    3  C   UNL     1     -10.680  14.990  67.572  1.00  0.00    -0.284 A  
HETATM    4  C   UNL     1     -11.091  13.764  67.004  1.00  0.00    -0.302 A  
HETATM    5  N   UNL     1     -11.445  16.108  67.575  1.00  0.00     0.007 NA 
HETATM    6  C   UNL     1     -10.001  12.891  67.366  1.00  0.00    -0.217 A  
HETATM    7  H2  UNL     1     -11.064  16.930  68.044  1.00  0.00     0.000 HD 
HETATM    8  H1  UNL     1     -12.367  16.204  67.151  1.00  0.00     0.000 HD 
HETATM    9  N   UNL     1      -8.888  13.696  67.731  1.00  0.00    -0.178 NA 
ENDROOT
BRANCH   4  10
HETATM   10  N   UNL     1     -12.338  13.627  66.422  1.00  0.00    -0.415 N  
HETATM   11  H   UNL     1     -13.126  13.478  67.053  1.00  0.00     0.000 HD 
BRANCH  10  12
HETATM   12  C   UNL     1     -12.619  13.671  65.092  1.00  0.00    -0.430 C  
HETATM   13  O   UNL     1     -12.715  14.757  64.533  1.00  0.00    -0.569 OA 
BRANCH  12  14
HETATM   14  N   UNL     1     -12.936  12.474  64.527  1.00  0.00    -0.724 N  
HETATM   15  H   UNL     1     -13.662  11.886  64.936  1.00  0.00     0.000 HD 
BRANCH  14  16
HETATM   16  C   UNL     1     -12.227  12.042  63.333  1.00  0.00    -0.519 C  
BRANCH  16  17
HETATM   17  C   UNL     1     -10.711  11.957  63.547  1.00  0.00    -0.442 C  
HETATM   18  H2  UNL     1     -10.494  10.328  62.297  1.00  0.00     0.000 HD 
HETATM   19  N   UNL     1     -10.227  10.620  63.237  1.00  0.00    -0.539 NA 
HETATM   20  H1  UNL     1      -9.218  10.563  63.379  1.00  0.00     0.000 HD 
ENDBRANCH  16  17
ENDBRANCH  14  16
ENDBRANCH  12  14
ENDBRANCH  10  12
ENDBRANCH   4  10
BRANCH   9  21
HETATM   21  C   UNL     1      -7.434  13.404  67.909  1.00  0.00    -0.149 C  
BRANCH  21  22
HETATM   22  C   UNL     1      -6.882  11.719  67.855  1.00  0.00    -0.077 C  
HETATM   23  CA  UNL     1      -6.307  10.506  69.224  1.00  0.00    -0.051 C  
HETATM   24  C   UNL     1      -7.129   8.107  69.574  1.00  0.00    -0.051 C  
HETATM   25  C   UNL     1      -7.040  11.199  66.057  1.00  0.00     0.061 C  
HETATM   26  C   UNL     1      -5.909  10.747  71.078  1.00  0.00     0.030 C  
HETATM   27  N   UNL     1      -6.086   8.891  69.044  1.00  0.00    -0.043 N  
HETATM   28  O   UNL     1      -7.945   8.265  70.472  1.00  0.00    -0.092 OA 
HETATM   29  S   UNL     1      -6.631   9.030  65.625  1.00  0.00    -0.068 SA 
HETATM   30  C   UNL     1      -6.167   8.097  67.626  1.00  0.00    -0.052 C  
HETATM   31  O   UNL     1      -5.358  11.848  71.408  1.00  0.00    -0.324 OA 
HETATM   32  OXT UNL     1      -6.041   9.681  71.730  1.00  0.00    -0.265 OA 
HETATM   33  CA  UNL     1      -7.392   7.338  68.274  1.00  0.00    -0.100 C  
BRANCH  33  34
HETATM   34  N   UNL     1      -8.788   7.544  67.759  1.00  0.00    -0.132 N  
HETATM   35  C   UNL     1      -9.847   6.645  67.568  1.00  0.00    -0.129 C  
HETATM   36  H   UNL     1      -9.004   8.508  67.503  1.00  0.00     0.000 HD 
HETATM   37  O   UNL     1     -10.883   7.165  67.152  1.00  0.00    -0.333 OA 
BRANCH  35  38
HETATM   38  C   UNL     1      -9.843   5.079  67.855  1.00  0.00    -0.151 C  
HETATM   39  C   UNL     1      -9.870   4.549  69.198  1.00  0.00    -0.152 C  
HETATM   40  C   UNL     1      -9.907   2.973  71.882  1.00  0.00    -0.166 C  
HETATM   41  N   UNL     1     -10.191   5.786  70.223  1.00  0.00    -0.212 NA 
HETATM   42  N   UNL     1     -10.346   2.104  72.842  1.00  0.00    -0.136 NA 
HETATM   43  H   UNL     1      -9.628   1.997  69.658  1.00  0.00     0.000 HD 
HETATM   44  S   UNL     1     -10.163   5.206  72.557  1.00  0.00    -0.201 SA 
HETATM   45  H1  UNL     1     -10.235   1.133  72.549  1.00  0.00     0.000 HD 
HETATM   46  H2  UNL     1     -10.736   2.390  73.739  1.00  0.00     0.000 HD 
HETATM   47  N   UNL     1      -9.762   2.884  70.143  1.00  0.00    -0.051 NA 
BRANCH  38  48
HETATM   48  N   UNL     1      -9.975   4.153  66.969  1.00  0.00    -0.251 NA 
HETATM   49  H   UNL     1      -9.752   3.186  67.201  1.00  0.00     0.000 HD 
BRANCH  48  50
HETATM   50  O   UNL     1     -10.415   4.474  65.721  1.00  0.00    -0.280 OA 
HETATM   51  O   UNL     1      -7.500   4.071  63.749  1.00  0.00    -0.054 OA 
HETATM   52  C   UNL     1      -8.443   4.526  64.385  1.00  0.00    -0.122 C  
HETATM   53  C   UNL     1     -10.551   3.660  63.529  1.00  0.00    -0.266 C  
HETATM   54  C   UNL     1      -8.908   2.375  65.269  1.00  0.00    -0.122 C  
HETATM   55  C   UNL     1      -9.650   3.689  64.770  1.00  0.00    -0.173 C  
HETATM   56  O   UNL     1      -8.491   5.808  64.797  1.00  0.00    -0.137 OA 
ENDBRANCH  48  50
ENDBRANCH  38  48
ENDBRANCH  35  38
ENDBRANCH  33  34
ENDBRANCH  21  22
ENDBRANCH   9  21
TORSDOF 11
ENDMDL
MODEL       25
REMARK 921   NORMALIZED FREE ENERGY PREDICTED BY IDOCK:   -4.81 KCAL/MOL
REMARK 922        TOTAL FREE ENERGY PREDICTED BY IDOCK:  -11.68 KCAL/MOL
REMARK 923 INTER-LIGAND FREE ENERGY PREDICTED BY IDOCK:  -10.03 KCAL/MOL
REMARK 924 INTRA-LIGAND FREE ENERGY PREDICTED BY IDOCK:   -1.65 KCAL/MOL
REMARK 927      BINDING AFFINITY PREDICTED BY RF-SCORE:    0.00 PKD
ROOT
HETATM    1  C   UNL     1     -14.002  14.328  72.234  1.00  0.00    -0.531 C  
HETATM    2  N   UNL     1     -12.753  14.307  71.501  1.00  0.00    -0.332 NA 
HETATM    3  C   UNL     1     -11.998  15.429  71.202  1.00  0.00    -0.362 A  
HETATM    4  C   UNL     1     -11.348  15.268  69.958  1.00  0.00    -0.290 A  
HETATM    5  N   UNL     1     -11.909  16.553  71.953  1.00  0.00    -0.652 NA 
HETATM    6  C   UNL     1     -11.850  13.986  69.526  1.00  0.00    -0.325 A  
HETATM    7  H2  UNL     1     -12.449  16.575  72.818  1.00  0.00     0.000 HD 
HETATM    8  H1  UNL     1     -11.354  17.379  71.733  1.00  0.00     0.000 HD 
HETATM    9  N   UNL     1     -12.396  13.318  70.655  1.00  0.00    -0.360 NA 
ENDROOT
BRANCH   4  10
HETATM   10  N   UNL     1     -10.582  16.283  69.414  1.00  0.00    -0.279 N  
HETATM   11  H   UNL     1      -9.936  16.760  70.044  1.00  0.00     0.000 HD 
BRANCH  10  12
HETATM   12  C   UNL     1     -10.604  16.710  68.122  1.00  0.00    -0.336 C  
HETATM   13  O   UNL     1     -11.114  17.791  67.854  1.00  0.00    -0.206 OA 
BRANCH  12  14
HETATM   14  N   UNL     1     -10.192  15.794  67.203  1.00  0.00    -0.273 N  
HETATM   15  H   UNL     1      -9.272  15.360  67.283  1.00  0.00     0.000 HD 
BRANCH  14  16
HETATM   16  C   UNL     1     -11.077  15.442  66.105  1.00  0.00    -0.230 C  
BRANCH  16  17
HETATM   17  C   UNL     1     -10.503  15.831  64.737  1.00  0.00    -0.019 C  
HETATM   18  H2  UNL     1     -11.864  17.357  64.453  1.00  0.00     0.000 HD 
HETATM   19  N   UNL     1     -11.497  16.547  63.952  1.00  0.00    -1.599 NA 
HETATM   20  H1  UNL     1     -11.115  16.806  63.042  1.00  0.00     0.000 HD 
ENDBRANCH  16  17
ENDBRANCH  14  16
ENDBRANCH  12  14
ENDBRANCH  10  12
ENDBRANCH   4  10
BRANCH   9  21
HETATM   21  C   UNL     1     -12.784  11.899  70.909  1.00  0.00    -0.209 C  
BRANCH  21  22
HETATM   22  C   UNL     1     -11.901  10.603  70.081  1.00  0.00    -0.421 C  
HETATM   23  CA  UNL     1     -11.125  10.485  68.331  1.00  0.00    -0.281 C  
HETATM   24  C   UNL     1      -8.752   9.709  67.770  1.00  0.00    -0.122 C  
HETATM   25  C   UNL     1     -11.737   9.224  71.346  1.00  0.00    -0.431 C  
HETATM   26  C   UNL     1     -11.227  11.617  66.795  1.00  0.00    -0.308 C  
HETATM   27  N   UNL     1     -10.102   9.312  67.813  1.00  0.00    -0.191 N  
HETATM   28  O   UNL     1      -8.180  10.781  67.624  1.00  0.00    -0.114 OA 
HETATM   29  S   UNL     1     -10.469   7.472  70.725  1.00  0.00    -0.215 SA 
HETATM   30  C   UNL     1      -9.716   7.978  68.660  1.00  0.00    -0.159 C  
HETATM   31  O   UNL     1     -12.340  12.201  66.586  1.00  0.00    -0.453 OA 
HETATM   32  OXT UNL     1     -10.234  11.476  66.039  1.00  0.00    -0.226 OA 
HETATM   33  CA  UNL     1      -8.245   8.555  68.642  1.00  0.00    -0.122 C  
BRANCH  33  34
HETATM   34  N   UNL     1      -7.589   9.037  69.905  1.00  0.00    -0.062 N  
HETATM   35  C   UNL     1      -6.791   8.371  70.847  1.00  0.00    -0.047 C  
HETATM   36  H   UNL     1      -7.752  10.022  70.114  1.00  0.00     0.000 HD 
HETATM   37  O   UNL     1      -6.386   9.088  71.762  1.00  0.00    -0.082 OA 
BRANCH  35  38
HETATM   38  C   UNL     1      -6.355   6.840  70.828  1.00  0.00    -0.043 C  
HETATM   39  C   UNL     1      -6.819   5.901  71.823  1.00  0.00    -0.068 C  
HETATM   40  C   UNL     1      -7.545   3.555  73.736  1.00  0.00    -0.062 C  
HETATM   41  N   UNL     1      -8.010   6.626  72.684  1.00  0.00    -0.102 NA 
HETATM   42  N   UNL     1      -8.035   2.343  74.134  1.00  0.00    -0.054 NA 
HETATM   43  H   UNL     1      -5.915   3.460  71.915  1.00  0.00     0.000 HD 
HETATM   44  S   UNL     1      -8.880   5.324  74.510  1.00  0.00    -0.113 SA 
HETATM   45  H1  UNL     1      -7.455   1.574  73.798  1.00  0.00     0.000 HD 
HETATM   46  H2  UNL     1      -8.876   2.222  74.697  1.00  0.00     0.000 HD 
HETATM   47  N   UNL     1      -6.574   4.084  72.381  1.00  0.00    -0.021 NA 
BRANCH  38  48
HETATM   48  N   UNL     1      -5.707   6.256  69.880  1.00  0.00    -0.014 NA 
HETATM   49  H   UNL     1      -5.001   6.768  69.352  1.00  0.00     0.000 HD 
BRANCH  48  50
HETATM   50  O   UNL     1      -5.971   4.953  69.588  1.00  0.00    -0.016 OA 
HETATM   51  O   UNL     1      -7.780   5.193  66.552  1.00  0.00    -0.091 OA 
HETATM   52  C   UNL     1      -7.449   5.044  67.721  1.00  0.00    -0.079 C  
HETATM   53  C   UNL     1      -5.726   3.335  67.912  1.00  0.00    -0.019 C  
HETATM   54  C   UNL     1      -5.303   5.934  67.249  1.00  0.00    -0.005 C  
HETATM   55  C   UNL     1      -6.007   4.825  68.143  1.00  0.00    -0.026 C  
HETATM   56  O   UNL     1      -8.336   5.058  68.736  1.00  0.00    -0.084 OA 
ENDBRANCH  48  50
ENDBRANCH  38  48
ENDBRANCH  35  38
ENDBRANCH  33  34
ENDBRANCH  21  22
ENDBRANCH   9  21
TORSDOF 11
ENDMDL
MODEL       26
REMARK 921   NORMALIZED FREE ENERGY PREDICTED BY IDOCK:   -4.80 KCAL/MOL
REMARK 922        TOTAL FREE ENERGY PREDICTED BY IDOCK:  -11.67 KCAL/MOL
REMARK 923 INTER-LIGAND FREE ENERGY PREDICTED BY IDOCK:   -9.24 KCAL/MOL
REMARK 924 INTRA-LIGAND FREE ENERGY PREDICTED BY IDOCK:   -2.43 KCAL/MOL
REMARK 927      BINDING AFFINITY PREDICTED BY RF-SCORE:    0.00 PKD
ROOT
HETATM    1  C   UNL     1     -10.860   5.952  66.906  1.00  0.00    -0.296 C  
HETATM    2  N   UNL     1      -9.866   4.911  66.750  1.00  0.00    -0.179 NA 
HETATM    3  C   UNL     1      -9.492   4.355  65.538  1.00  0.00    -0.175 A  
HETATM    4  C   UNL     1      -9.157   2.992  65.703  1.00  0.00    -0.149 A  
HETATM    5  N   UNL     1      -9.481   4.989  64.341  1.00  0.00    -0.351 NA 
HETATM    6  C   UNL     1      -9.441   2.786  67.102  1.00  0.00    -0.019 A  
HETATM    7  H2  UNL     1      -9.775   5.966  64.331  1.00  0.00     0.000 HD 
HETATM    8  H1  UNL     1      -9.206   4.581  63.448  1.00  0.00     0.000 HD 
HETATM    9  N   UNL     1      -9.514   4.057  67.734  1.00  0.00    -0.179 NA 
ENDROOT
BRANCH   4  10
HETATM   10  N   UNL     1      -8.810   2.204  64.620  1.00  0.00    -0.110 N  
HETATM   11  H   UNL     1      -8.612   1.222  64.810  1.00  0.00     0.000 HD 
BRANCH  10  12
HETATM   12  C   UNL     1      -8.705   2.610  63.325  1.00  0.00    -0.085 C  
HETATM   13  O   UNL     1      -9.596   2.330  62.533  1.00  0.00    -0.090 OA 
BRANCH  12  14
HETATM   14  N   UNL     1      -7.508   3.164  62.988  1.00  0.00    -0.053 N  
HETATM   15  H   UNL     1      -7.473   4.051  62.484  1.00  0.00     0.000 HD 
BRANCH  14  16
HETATM   16  C   UNL     1      -6.279   2.478  63.352  1.00  0.00    -0.014 C  
BRANCH  16  17
HETATM   17  C   UNL     1      -5.239   3.420  63.970  1.00  0.00    -0.009 C  
HETATM   18  H2  UNL     1      -6.644   4.837  64.499  1.00  0.00     0.000 HD 
HETATM   19  N   UNL     1      -5.748   4.782  64.015  1.00  0.00    -0.017 NA 
HETATM   20  H1  UNL     1      -5.057   5.409  64.426  1.00  0.00     0.000 HD 
ENDBRANCH  16  17
ENDBRANCH  14  16
ENDBRANCH  12  14
ENDBRANCH  10  12
ENDBRANCH   4  10
BRANCH   9  21
HETATM   21  C   UNL     1      -9.486   4.486  69.164  1.00  0.00    -0.164 C  
BRANCH  21  22
HETATM   22  C   UNL     1      -8.910   6.115  69.562  1.00  0.00    -0.130 C  
HETATM   23  CA  UNL     1      -7.864   7.390  68.583  1.00  0.00    -0.122 C  
HETATM   24  C   UNL     1      -8.420   9.862  68.228  1.00  0.00    -0.111 C  
HETATM   25  C   UNL     1      -9.631   6.499  71.254  1.00  0.00    -0.175 C  
HETATM   26  C   UNL     1      -6.887   7.269  66.945  1.00  0.00    -0.069 C  
HETATM   27  N   UNL     1      -7.646   8.964  68.987  1.00  0.00    -0.084 N  
HETATM   28  O   UNL     1      -8.900   9.838  67.102  1.00  0.00    -0.131 OA 
HETATM   29  S   UNL     1      -9.294   8.590  72.011  1.00  0.00    -0.297 SA 
HETATM   30  C   UNL     1      -8.156   9.645  70.373  1.00  0.00    -0.168 C  
HETATM   31  O   UNL     1      -6.306   6.161  66.704  1.00  0.00    -0.041 OA 
HETATM   32  OXT UNL     1      -6.750   8.392  66.396  1.00  0.00    -0.064 OA 
HETATM   33  CA  UNL     1      -9.065  10.541  69.442  1.00  0.00    -0.104 C  
BRANCH  33  34
HETATM   34  N   UNL     1     -10.560  10.398  69.453  1.00  0.00    -0.224 N  
HETATM   35  C   UNL     1     -11.564  11.106  68.776  1.00  0.00    -0.322 C  
HETATM   36  H   UNL     1     -10.907   9.655  70.060  1.00  0.00     0.000 HD 
HETATM   37  O   UNL     1     -12.704  10.698  68.995  1.00  0.00    -0.116 OA 
BRANCH  35  38
HETATM   38  C   UNL     1     -11.369  12.323  67.768  1.00  0.00    -0.301 C  
HETATM   39  C   UNL     1     -11.334  13.694  68.224  1.00  0.00    -0.289 C  
HETATM   40  C   UNL     1     -11.208  16.761  68.739  1.00  0.00    -0.148 C  
HETATM   41  N   UNL     1     -11.231  13.680  69.859  1.00  0.00    -0.046 NA 
HETATM   42  N   UNL     1     -10.701  18.030  68.747  1.00  0.00    -0.288 NA 
HETATM   43  H   UNL     1     -11.249  15.683  66.545  1.00  0.00     0.000 HD 
HETATM   44  S   UNL     1     -11.288  15.848  70.900  1.00  0.00    -0.379 SA 
HETATM   45  H1  UNL     1     -10.666  18.428  67.809  1.00  0.00     0.000 HD 
HETATM   46  H2  UNL     1     -10.395  18.520  69.588  1.00  0.00     0.000 HD 
HETATM   47  N   UNL     1     -11.259  15.485  67.545  1.00  0.00    -0.306 NA 
BRANCH  38  48
HETATM   48  N   UNL     1     -11.072  12.223  66.519  1.00  0.00    -0.283 NA 
HETATM   49  H   UNL     1     -10.123  12.419  66.201  1.00  0.00     0.000 HD 
BRANCH  48  50
HETATM   50  O   UNL     1     -12.032  11.853  65.627  1.00  0.00    -0.429 OA 
HETATM   51  O   UNL     1     -12.517  14.815  63.745  1.00  0.00    -0.782 OA 
HETATM   52  C   UNL     1     -12.636  13.877  64.523  1.00  0.00    -0.205 C  
HETATM   53  C   UNL     1     -12.504  11.756  63.335  1.00  0.00    -0.490 C  
HETATM   54  C   UNL     1     -10.382  13.248  64.139  1.00  0.00    -0.204 C  
HETATM   55  C   UNL     1     -11.812  12.607  64.406  1.00  0.00    -0.387 C  
HETATM   56  O   UNL     1     -13.510  13.888  65.549  1.00  0.00    -0.657 OA 
ENDBRANCH  48  50
ENDBRANCH  38  48
ENDBRANCH  35  38
ENDBRANCH  33  34
ENDBRANCH  21  22
ENDBRANCH   9  21
TORSDOF 11
ENDMDL
MODEL       27
REMARK 921   NORMALIZED FREE ENERGY PREDICTED BY IDOCK:   -4.78 KCAL/MOL
REMARK 922        TOTAL FREE ENERGY PREDICTED BY IDOCK:  -11.65 KCAL/MOL
REMARK 923 INTER-LIGAND FREE ENERGY PREDICTED BY IDOCK:   -9.93 KCAL/MOL
REMARK 924 INTRA-LIGAND FREE ENERGY PREDICTED BY IDOCK:   -1.72 KCAL/MOL
REMARK 927      BINDING AFFINITY PREDICTED BY RF-SCORE:    0.00 PKD
ROOT
HETATM    1  C   UNL     1      -9.815   5.264  69.579  1.00  0.00    -0.200 C  
HETATM    2  N   UNL     1     -10.018   4.630  68.292  1.00  0.00    -0.105 NA 
HETATM    3  C   UNL     1      -9.598   3.349  67.971  1.00  0.00    -0.099 A  
HETATM    4  C   UNL     1      -9.236   3.277  66.608  1.00  0.00    -0.160 A  
HETATM    5  N   UNL     1      -9.498   2.306  68.830  1.00  0.00    -0.160 NA 
HETATM    6  C   UNL     1      -9.410   4.644  66.183  1.00  0.00    -0.153 A  
HETATM    7  H2  UNL     1      -9.754   2.479  69.801  1.00  0.00     0.000 HD 
HETATM    8  H1  UNL     1      -9.189   1.363  68.594  1.00  0.00     0.000 HD 
HETATM    9  N   UNL     1     -10.217   5.310  67.145  1.00  0.00    -0.209 NA 
ENDROOT
BRANCH   4  10
HETATM   10  N   UNL     1      -8.725   2.112  66.064  1.00  0.00    -0.113 N  
HETATM   11  H   UNL     1      -9.161   1.238  66.359  1.00  0.00     0.000 HD 
BRANCH  10  12
HETATM   12  C   UNL     1      -7.700   2.016  65.175  1.00  0.00    -0.072 C  
HETATM   13  O   UNL     1      -6.618   2.523  65.447  1.00  0.00    -0.030 OA 
BRANCH  12  14
HETATM   14  N   UNL     1      -8.031   1.492  63.963  1.00  0.00    -0.060 N  
HETATM   15  H   UNL     1      -7.803   0.523  63.740  1.00  0.00     0.000 HD 
BRANCH  14  16
HETATM   16  C   UNL     1      -8.714   2.329  62.990  1.00  0.00    -0.085 C  
BRANCH  16  17
HETATM   17  C   UNL     1     -10.149   1.862  62.715  1.00  0.00    -0.100 C  
HETATM   18  H2  UNL     1     -10.998   3.485  63.670  1.00  0.00     0.000 HD 
HETATM   19  N   UNL     1     -11.071   2.467  63.665  1.00  0.00    -0.563 NA 
HETATM   20  H1  UNL     1     -12.026   2.158  63.483  1.00  0.00     0.000 HD 
ENDBRANCH  16  17
ENDBRANCH  14  16
ENDBRANCH  12  14
ENDBRANCH  10  12
ENDBRANCH   4  10
BRANCH   9  21
HETATM   21  C   UNL     1     -10.967   6.601  67.126  1.00  0.00    -0.408 C  
BRANCH  21  22
HETATM   22  C   UNL     1     -10.062   8.124  67.220  1.00  0.00    -0.309 C  
HETATM   23  CA  UNL     1      -8.914   9.021  65.973  1.00  0.00    -0.185 C  
HETATM   24  C   UNL     1      -9.043  11.483  65.287  1.00  0.00    -0.017 C  
HETATM   25  C   UNL     1     -10.511   8.869  68.885  1.00  0.00    -0.225 C  
HETATM   26  C   UNL     1      -8.160   8.489  64.299  1.00  0.00    -0.155 C  
HETATM   27  N   UNL     1      -8.368  10.562  66.109  1.00  0.00    -0.149 N  
HETATM   28  O   UNL     1      -9.639  11.400  64.221  1.00  0.00    -0.229 OA 
HETATM   29  S   UNL     1      -9.716  10.936  69.279  1.00  0.00     0.016 SA 
HETATM   30  C   UNL     1      -8.590  11.512  67.410  1.00  0.00    -0.145 C  
HETATM   31  O   UNL     1      -7.822   7.265  64.186  1.00  0.00    -0.122 OA 
HETATM   32  OXT UNL     1      -7.881   9.476  63.574  1.00  0.00    -0.122 OA 
HETATM   33  CA  UNL     1      -9.415  12.435  66.429  1.00  0.00    -0.240 C  
BRANCH  33  34
HETATM   34  N   UNL     1     -10.902  12.592  66.583  1.00  0.00    -0.254 N  
HETATM   35  C   UNL     1     -11.665  13.505  67.326  1.00  0.00    -0.383 C  
HETATM   36  H   UNL     1     -11.453  11.916  66.054  1.00  0.00     0.000 HD 
HETATM   37  O   UNL     1     -12.881  13.368  67.197  1.00  0.00     0.265 OA 
BRANCH  35  38
HETATM   38  C   UNL     1     -11.124  14.674  68.261  1.00  0.00    -0.271 C  
HETATM   39  C   UNL     1     -11.616  14.866  69.606  1.00  0.00    -0.303 C  
HETATM   40  C   UNL     1     -12.378  15.660  72.517  1.00  0.00    -0.433 C  
HETATM   41  N   UNL     1     -12.520  13.559  70.004  1.00  0.00    -0.226 NA 
HETATM   42  N   UNL     1     -12.216  15.917  73.850  1.00  0.00    -0.518 NA 
HETATM   43  H   UNL     1     -10.894  16.918  71.037  1.00  0.00     0.000 HD 
HETATM   44  S   UNL     1     -13.580  13.675  72.160  1.00  0.00    -0.573 SA 
HETATM   45  H1  UNL     1     -11.694  16.779  74.006  1.00  0.00     0.000 HD 
HETATM   46  H2  UNL     1     -12.574  15.320  74.596  1.00  0.00     0.000 HD 
HETATM   47  N   UNL     1     -11.469  16.078  71.084  1.00  0.00    -0.419 NA 
BRANCH  38  48
HETATM   48  N   UNL     1     -10.121  15.440  68.001  1.00  0.00    -0.225 NA 
HETATM   49  H   UNL     1      -9.216  15.036  67.761  1.00  0.00     0.000 HD 
BRANCH  48  50
HETATM   50  O   UNL     1     -10.277  16.792  68.048  1.00  0.00    -0.275 OA 
HETATM   51  O   UNL     1      -7.921  17.924  65.657  1.00  0.00    -0.527 OA 
HETATM   52  C   UNL     1      -8.514  17.646  66.693  1.00  0.00    -0.259 C  
HETATM   53  C   UNL     1     -10.727  18.661  66.710  1.00  0.00    -0.337 C  
HETATM   54  C   UNL     1     -10.068  16.335  65.474  1.00  0.00    -0.276 C  
HETATM   55  C   UNL     1      -9.995  17.314  66.724  1.00  0.00    -0.301 C  
HETATM   56  O   UNL     1      -7.904  17.615  67.894  1.00  0.00    -0.212 OA 
ENDBRANCH  48  50
ENDBRANCH  38  48
ENDBRANCH  35  38
ENDBRANCH  33  34
ENDBRANCH  21  22
ENDBRANCH   9  21
TORSDOF 11
ENDMDL
MODEL       28
REMARK 921   NORMALIZED FREE ENERGY PREDICTED BY IDOCK:   -4.69 KCAL/MOL
REMARK 922        TOTAL FREE ENERGY PREDICTED BY IDOCK:  -11.49 KCAL/MOL
REMARK 923 INTER-LIGAND FREE ENERGY PREDICTED BY IDOCK:  -10.79 KCAL/MOL
REMARK 924 INTRA-LIGAND FREE ENERGY PREDICTED BY IDOCK:   -0.69 KCAL/MOL
REMARK 927      BINDING AFFINITY PREDICTED BY RF-SCORE:    0.00 PKD
ROOT
HETATM    1  C   UNL     1      -5.320  13.644  70.585  1.00  0.00    -0.135 C  
HETATM    2  N   UNL     1      -5.542  14.366  69.349  1.00  0.00    -0.089 NA 
HETATM    3  C   UNL     1      -5.960  15.685  69.273  1.00  0.00    -0.112 A  
HETATM    4  C   UNL     1      -6.774  15.878  68.135  1.00  0.00    -0.123 A  
HETATM    5  N   UNL     1      -5.680  16.662  70.169  1.00  0.00    -0.217 NA 
HETATM    6  C   UNL     1      -6.854  14.542  67.598  1.00  0.00    -0.182 A  
HETATM    7  H2  UNL     1      -5.110  16.403  70.974  1.00  0.00     0.000 HD 
HETATM    8  H1  UNL     1      -5.987  17.632  70.113  1.00  0.00     0.000 HD 
HETATM    9  N   UNL     1      -5.807  13.769  68.169  1.00  0.00    -0.111 NA 
ENDROOT
BRANCH   4  10
HETATM   10  N   UNL     1      -7.363  17.103  67.877  1.00  0.00    -0.175 N  
HETATM   11  H   UNL     1      -7.449  17.747  68.663  1.00  0.00     0.000 HD 
BRANCH  10  12
HETATM   12  C   UNL     1      -7.840  17.534  66.677  1.00  0.00    -0.250 C  
HETATM   13  O   UNL     1      -7.052  17.834  65.789  1.00  0.00    -0.422 OA 
BRANCH  12  14
HETATM   14  N   UNL     1      -9.183  17.752  66.633  1.00  0.00    -0.262 N  
HETATM   15  H   UNL     1      -9.831  16.968  66.559  1.00  0.00     0.000 HD 
BRANCH  14  16
HETATM   16  C   UNL     1      -9.684  19.116  66.692  1.00  0.00    -0.346 C  
BRANCH  16  17
HETATM   17  C   UNL     1     -10.746  19.307  67.781  1.00  0.00    -0.371 C  
HETATM   18  H2  UNL     1      -9.413  18.976  69.323  1.00  0.00     0.000 HD 
HETATM   19  N   UNL     1     -10.333  18.657  69.016  1.00  0.00    -0.455 NA 
HETATM   20  H1  UNL     1     -11.039  18.784  69.741  1.00  0.00     0.000 HD 
ENDBRANCH  16  17
ENDBRANCH  14  16
ENDBRANCH  12  14
ENDBRANCH  10  12
ENDBRANCH   4  10
BRANCH   9  21
HETATM   21  C   UNL     1      -5.201  12.452  67.810  1.00  0.00    -0.089 C  
BRANCH  21  22
HETATM   22  C   UNL     1      -6.229  11.007  67.794  1.00  0.00    -0.051 C  
HETATM   23  CA  UNL     1      -6.874   9.868  69.196  1.00  0.00    -0.055 C  
HETATM   24  C   UNL     1      -9.294   9.117  69.553  1.00  0.00    -0.163 C  
HETATM   25  C   UNL     1      -6.730  10.770  66.000  1.00  0.00    -0.109 C  
HETATM   26  C   UNL     1      -6.455   9.749  71.057  1.00  0.00    -0.015 C  
HETATM   27  N   UNL     1      -8.041   8.726  69.044  1.00  0.00    -0.114 N  
HETATM   28  O   UNL     1      -9.657   9.895  70.426  1.00  0.00    -0.218 OA 
HETATM   29  S   UNL     1      -8.231   9.140  65.609  1.00  0.00    -0.126 SA 
HETATM   30  C   UNL     1      -8.719   8.277  67.635  1.00  0.00    -0.133 C  
HETATM   31  O   UNL     1      -5.244   9.969  71.388  1.00  0.00    -0.067 OA 
HETATM   32  OXT UNL     1      -7.396   9.243  71.719  1.00  0.00    -0.337 OA 
HETATM   33  CA  UNL     1     -10.061   8.832  68.257  1.00  0.00    -0.188 C  
BRANCH  33  34
HETATM   34  N   UNL     1     -10.721  10.061  67.699  1.00  0.00    -0.268 N  
HETATM   35  C   UNL     1     -11.621  10.971  68.271  1.00  0.00    -0.284 C  
HETATM   36  H   UNL     1     -10.469  10.271  66.732  1.00  0.00     0.000 HD 
HETATM   37  O   UNL     1     -11.942  11.899  67.529  1.00  0.00    -0.586 OA 
BRANCH  35  38
HETATM   38  C   UNL     1     -12.222  10.931  69.745  1.00  0.00    -0.311 C  
HETATM   39  C   UNL     1     -12.402  12.131  70.529  1.00  0.00    -0.272 C  
HETATM   40  C   UNL     1     -12.951  14.421  72.564  1.00  0.00    -0.415 C  
HETATM   41  N   UNL     1     -12.171  13.418  69.542  1.00  0.00    -0.255 NA 
HETATM   42  N   UNL     1     -13.659  15.232  73.407  1.00  0.00    -0.615 NA 
HETATM   43  H   UNL     1     -13.164  12.028  73.017  1.00  0.00     0.000 HD 
HETATM   44  S   UNL     1     -12.283  15.563  70.625  1.00  0.00    -0.418 SA 
HETATM   45  H1  UNL     1     -13.949  14.737  74.250  1.00  0.00     0.000 HD 
HETATM   46  H2  UNL     1     -13.870  16.212  73.217  1.00  0.00     0.000 HD 
HETATM   47  N   UNL     1     -12.920  12.696  72.286  1.00  0.00    -0.243 NA 
BRANCH  38  48
HETATM   48  N   UNL     1     -12.741   9.900  70.316  1.00  0.00    -0.524 NA 
HETATM   49  H   UNL     1     -13.457   9.355  69.837  1.00  0.00     0.000 HD 
BRANCH  48  50
HETATM   50  O   UNL     1     -12.327   9.542  71.564  1.00  0.00    -0.331 OA 
HETATM   51  O   UNL     1     -13.896   6.399  72.023  1.00  0.00    -0.009 OA 
HETATM   52  C   UNL     1     -13.584   7.582  72.072  1.00  0.00    -0.136 C  
HETATM   53  C   UNL     1     -11.259   7.827  72.749  1.00  0.00    -0.456 C  
HETATM   54  C   UNL     1     -12.120   7.293  70.229  1.00  0.00     0.020 C  
HETATM   55  C   UNL     1     -12.235   8.094  71.597  1.00  0.00    -0.308 C  
HETATM   56  O   UNL     1     -14.410   8.533  72.553  1.00  0.00    -0.469 OA 
ENDBRANCH  48  50
ENDBRANCH  38  48
ENDBRANCH  35  38
ENDBRANCH  33  34
ENDBRANCH  21  22
ENDBRANCH   9  21
TORSDOF 11
ENDMDL
MODEL       29
REMARK 921   NORMALIZED FREE ENERGY PREDICTED BY IDOCK:   -4.65 KCAL/MOL
REMARK 922        TOTAL FREE ENERGY PREDICTED BY IDOCK:  -11.43 KCAL/MOL
REMARK 923 INTER-LIGAND FREE ENERGY PREDICTED BY IDOCK:   -9.58 KCAL/MOL
REMARK 924 INTRA-LIGAND FREE ENERGY PREDICTED BY IDOCK:   -1.85 KCAL/MOL
REMARK 927      BINDING AFFINITY PREDICTED BY RF-SCORE:    0.00 PKD
ROOT
HETATM    1  C   UNL     1     -11.909  13.045  63.344  1.00  0.00    -0.476 C  
HETATM    2  N   UNL     1     -11.553  13.772  64.545  1.00  0.00    -0.377 NA 
HETATM    3  C   UNL     1     -11.432  15.150  64.623  1.00  0.00    -0.362 A  
HETATM    4  C   UNL     1     -10.423  15.503  65.548  1.00  0.00    -0.386 A  
HETATM    5  N   UNL     1     -12.134  16.054  63.899  1.00  0.00    -1.257 NA 
HETATM    6  C   UNL     1      -9.919  14.211  65.943  1.00  0.00    -0.311 A  
HETATM    7  H2  UNL     1     -12.815  15.687  63.234  1.00  0.00     0.000 HD 
HETATM    8  H1  UNL     1     -12.045  17.068  63.957  1.00  0.00     0.000 HD 
HETATM    9  N   UNL     1     -10.877  13.228  65.578  1.00  0.00    -0.281 NA 
ENDROOT
BRANCH   4  10
HETATM   10  N   UNL     1     -10.074  16.826  65.755  1.00  0.00    -0.292 N  
HETATM   11  H   UNL     1      -9.957  17.406  64.924  1.00  0.00     0.000 HD 
BRANCH  10  12
HETATM   12  C   UNL     1      -9.872  17.430  66.957  1.00  0.00    -0.286 C  
HETATM   13  O   UNL     1     -10.836  17.812  67.609  1.00  0.00    -0.363 OA 
BRANCH  12  14
HETATM   14  N   UNL     1      -8.572  17.708  67.254  1.00  0.00    -0.227 N  
HETATM   15  H   UNL     1      -7.868  16.970  67.228  1.00  0.00     0.000 HD 
BRANCH  14  16
HETATM   16  C   UNL     1      -8.199  19.067  67.608  1.00  0.00    -0.275 C  
BRANCH  16  17
HETATM   17  C   UNL     1      -8.516  20.074  66.495  1.00  0.00    -0.309 C  
HETATM   18  H2  UNL     1      -9.400  21.421  67.787  1.00  0.00     0.000 HD 
HETATM   19  N   UNL     1      -9.600  20.956  66.901  1.00  0.00    -0.669 NA 
HETATM   20  H1  UNL     1      -9.811  21.627  66.161  1.00  0.00     0.000 HD 
ENDBRANCH  16  17
ENDBRANCH  14  16
ENDBRANCH  12  14
ENDBRANCH  10  12
ENDBRANCH   4  10
BRANCH   9  21
HETATM   21  C   UNL     1     -11.068  11.799  65.965  1.00  0.00    -0.312 C  
BRANCH  21  22
HETATM   22  C   UNL     1      -9.651  10.736  66.061  1.00  0.00    -0.244 C  
HETATM   23  CA  UNL     1      -8.376  10.409  67.455  1.00  0.00    -0.114 C  
HETATM   24  C   UNL     1      -7.632   8.122  68.330  1.00  0.00    -0.102 C  
HETATM   25  C   UNL     1      -9.621   9.796  64.435  1.00  0.00    -0.160 C  
HETATM   26  C   UNL     1      -8.045  11.270  69.129  1.00  0.00     0.026 C  
HETATM   27  N   UNL     1      -7.278   9.190  67.485  1.00  0.00    -0.080 N  
HETATM   28  O   UNL     1      -8.315   8.021  69.340  1.00  0.00    -0.127 OA 
HETATM   29  S   UNL     1      -8.071   8.175  64.268  1.00  0.00    -0.090 SA 
HETATM   30  C   UNL     1      -6.998   8.166  66.253  1.00  0.00    -0.062 C  
HETATM   31  O   UNL     1      -8.206  12.533  69.166  1.00  0.00     0.279 OA 
HETATM   32  OXT UNL     1      -7.485  10.501  69.951  1.00  0.00    -0.155 OA 
HETATM   33  CA  UNL     1      -7.505   7.046  67.245  1.00  0.00    -0.099 C  
BRANCH  33  34
HETATM   34  N   UNL     1      -8.799   6.324  66.999  1.00  0.00    -0.107 N  
HETATM   35  C   UNL     1      -9.580   5.510  67.833  1.00  0.00    -0.124 C  
HETATM   36  H   UNL     1      -9.177   6.446  66.059  1.00  0.00     0.000 HD 
HETATM   37  O   UNL     1     -10.616   5.099  67.311  1.00  0.00    -0.178 OA 
BRANCH  35  38
HETATM   38  C   UNL     1      -9.276   5.110  69.344  1.00  0.00    -0.112 C  
HETATM   39  C   UNL     1      -8.278   4.122  69.686  1.00  0.00    -0.058 C  
HETATM   40  C   UNL     1      -6.261   2.074  70.881  1.00  0.00    -0.019 C  
HETATM   41  N   UNL     1      -7.414   3.788  68.334  1.00  0.00    -0.054 NA 
HETATM   42  N   UNL     1      -5.218   1.603  71.628  1.00  0.00     0.000 NA 
HETATM   43  H   UNL     1      -7.955   3.309  72.139  1.00  0.00     0.000 HD 
HETATM   44  S   UNL     1      -5.756   2.064  68.588  1.00  0.00    -0.023 SA 
HETATM   45  H1  UNL     1      -5.437   1.607  72.624  1.00  0.00     0.000 HD 
HETATM   46  H2  UNL     1      -4.331   1.286  71.237  1.00  0.00     0.000 HD 
HETATM   47  N   UNL     1      -7.580   3.177  71.200  1.00  0.00    -0.040 NA 
BRANCH  38  48
HETATM   48  N   UNL     1      -9.742   5.705  70.386  1.00  0.00    -0.172 NA 
HETATM   49  H   UNL     1      -9.926   6.708  70.364  1.00  0.00     0.000 HD 
BRANCH  48  50
HETATM   50  O   UNL     1      -9.986   4.988  71.518  1.00  0.00    -0.175 OA 
HETATM   51  O   UNL     1     -10.159   7.506  74.004  1.00  0.00    -0.206 OA 
HETATM   52  C   UNL     1      -9.811   6.578  73.284  1.00  0.00    -0.174 C  
HETATM   53  C   UNL     1     -11.474   4.800  73.317  1.00  0.00    -0.361 C  
HETATM   54  C   UNL     1     -11.594   7.043  71.790  1.00  0.00    -0.315 C  
HETATM   55  C   UNL     1     -10.785   5.818  72.401  1.00  0.00    -0.235 C  
HETATM   56  O   UNL     1      -8.536   6.149  73.216  1.00  0.00    -0.117 OA 
ENDBRANCH  48  50
ENDBRANCH  38  48
ENDBRANCH  35  38
ENDBRANCH  33  34
ENDBRANCH  21  22
ENDBRANCH   9  21
TORSDOF 11
ENDMDL
MODEL       30
REMARK 921   NORMALIZED FREE ENERGY PREDICTED BY IDOCK:   -4.65 KCAL/MOL
REMARK 922        TOTAL FREE ENERGY PREDICTED BY IDOCK:  -11.42 KCAL/MOL
REMARK 923 INTER-LIGAND FREE ENERGY PREDICTED BY IDOCK:   -8.67 KCAL/MOL
REMARK 924 INTRA-LIGAND FREE ENERGY PREDICTED BY IDOCK:   -2.75 KCAL/MOL
REMARK 927      BINDING AFFINITY PREDICTED BY RF-SCORE:    0.00 PKD
ROOT
HETATM    1  C   UNL     1      -7.104   1.761  68.381  1.00  0.00    -0.039 C  
HETATM    2  N   UNL     1      -6.426   2.700  69.252  1.00  0.00    -0.029 NA 
HETATM    3  C   UNL     1      -6.412   2.620  70.635  1.00  0.00    -0.027 A  
HETATM    4  C   UNL     1      -6.385   3.913  71.203  1.00  0.00    -0.018 A  
HETATM    5  N   UNL     1      -6.461   1.481  71.367  1.00  0.00    -0.018 NA 
HETATM    6  C   UNL     1      -6.460   4.752  70.031  1.00  0.00    -0.035 A  
HETATM    7  H2  UNL     1      -6.514   0.602  70.854  1.00  0.00     0.000 HD 
HETATM    8  H1  UNL     1      -6.451   1.422  72.385  1.00  0.00     0.000 HD 
HETATM    9  N   UNL     1      -6.120   3.965  68.898  1.00  0.00    -0.027 NA 
ENDROOT
BRANCH   4  10
HETATM   10  N   UNL     1      -6.428   4.094  72.574  1.00  0.00    -0.021 N  
HETATM   11  H   UNL     1      -5.541   4.038  73.073  1.00  0.00     0.000 HD 
BRANCH  10  12
HETATM   12  C   UNL     1      -7.537   4.339  73.322  1.00  0.00    -0.081 C  
HETATM   13  O   UNL     1      -8.129   3.403  73.846  1.00  0.00    -0.072 OA 
BRANCH  12  14
HETATM   14  N   UNL     1      -7.991   5.622  73.282  1.00  0.00    -0.110 N  
HETATM   15  H   UNL     1      -8.911   5.832  72.894  1.00  0.00     0.000 HD 
BRANCH  14  16
HETATM   16  C   UNL     1      -7.150   6.689  73.799  1.00  0.00    -0.080 C  
BRANCH  16  17
HETATM   17  C   UNL     1      -7.800   8.072  73.659  1.00  0.00    -0.183 C  
HETATM   18  H2  UNL     1      -7.464   8.168  71.624  1.00  0.00     0.000 HD 
HETATM   19  N   UNL     1      -7.323   8.740  72.457  1.00  0.00    -0.340 NA 
HETATM   20  H1  UNL     1      -7.755   9.659  72.363  1.00  0.00     0.000 HD 
ENDBRANCH  16  17
ENDBRANCH  14  16
ENDBRANCH  12  14
ENDBRANCH  10  12
ENDBRANCH   4  10
BRANCH   9  21
HETATM   21  C   UNL     1      -5.741   4.310  67.495  1.00  0.00    -0.022 C  
BRANCH  21  22
HETATM   22  C   UNL     1      -6.573   5.650  66.684  1.00  0.00    -0.056 C  
HETATM   23  CA  UNL     1      -8.416   5.951  66.249  1.00  0.00    -0.128 C  
HETATM   24  C   UNL     1      -9.767   8.069  66.736  1.00  0.00    -0.237 C  
HETATM   25  C   UNL     1      -5.241   6.931  66.344  1.00  0.00    -0.021 C  
HETATM   26  C   UNL     1      -9.960   4.826  66.327  1.00  0.00    -0.242 C  
HETATM   27  N   UNL     1      -9.063   7.369  65.739  1.00  0.00    -0.033 N  
HETATM   28  O   UNL     1     -10.369   7.738  67.749  1.00  0.00    -0.198 OA 
HETATM   29  S   UNL     1      -5.959   8.892  65.507  1.00  0.00    -0.051 SA 
HETATM   30  C   UNL     1      -8.203   8.699  65.368  1.00  0.00    -0.136 C  
HETATM   31  O   UNL     1      -9.787   3.595  66.047  1.00  0.00    -0.132 OA 
HETATM   32  OXT UNL     1     -11.021   5.491  66.432  1.00  0.00    -0.232 OA 
HETATM   33  CA  UNL     1      -8.975   9.371  66.571  1.00  0.00    -0.148 C  
BRANCH  33  34
HETATM   34  N   UNL     1      -8.254   9.766  67.828  1.00  0.00    -0.113 N  
HETATM   35  C   UNL     1      -8.705  10.395  68.997  1.00  0.00    -0.168 C  
HETATM   36  H   UNL     1      -7.260   9.536  67.832  1.00  0.00     0.000 HD 
HETATM   37  O   UNL     1      -7.838  10.542  69.859  1.00  0.00    -0.117 OA 
BRANCH  35  38
HETATM   38  C   UNL     1     -10.185  10.892  69.312  1.00  0.00    -0.166 C  
HETATM   39  C   UNL     1     -11.040  10.200  70.249  1.00  0.00    -0.317 C  
HETATM   40  C   UNL     1     -13.213   9.042  72.153  1.00  0.00    -0.446 C  
HETATM   41  N   UNL     1     -10.124   9.105  71.053  1.00  0.00    -0.278 NA 
HETATM   42  N   UNL     1     -14.113   9.000  73.180  1.00  0.00    -1.223 NA 
HETATM   43  H   UNL     1     -13.530  10.885  70.578  1.00  0.00     0.000 HD 
HETATM   44  S   UNL     1     -11.331   7.710  72.597  1.00  0.00    -0.361 SA 
HETATM   45  H1  UNL     1     -14.931   9.578  72.987  1.00  0.00     0.000 HD 
HETATM   46  H2  UNL     1     -13.983   8.458  74.034  1.00  0.00     0.000 HD 
HETATM   47  N   UNL     1     -12.835  10.223  70.920  1.00  0.00    -0.368 NA 
BRANCH  38  48
HETATM   48  N   UNL     1     -10.704  12.001  68.914  1.00  0.00    -0.308 NA 
HETATM   49  H   UNL     1     -10.445  12.879  69.363  1.00  0.00     0.000 HD 
BRANCH  48  50
HETATM   50  O   UNL     1     -11.602  11.995  67.889  1.00  0.00    -0.308 OA 
HETATM   51  O   UNL     1     -11.111  15.177  66.413  1.00  0.00    -0.339 OA 
HETATM   52  C   UNL     1     -11.552  14.218  67.034  1.00  0.00    -0.386 C  
HETATM   53  C   UNL     1     -11.784  12.285  65.572  1.00  0.00    -0.433 C  
HETATM   54  C   UNL     1      -9.486  13.081  66.783  1.00  0.00    -0.250 C  
HETATM   55  C   UNL     1     -11.051  12.801  66.817  1.00  0.00    -0.277 C  
HETATM   56  O   UNL     1     -12.522  14.336  67.963  1.00  0.00    -0.098 OA 
ENDBRANCH  48  50
ENDBRANCH  38  48
ENDBRANCH  35  38
ENDBRANCH  33  34
ENDBRANCH  21  22
ENDBRANCH   9  21
TORSDOF 11
ENDMDL
MODEL       31
REMARK 921   NORMALIZED FREE ENERGY PREDICTED BY IDOCK:   -4.63 KCAL/MOL
REMARK 922        TOTAL FREE ENERGY PREDICTED BY IDOCK:  -11.39 KCAL/MOL
REMARK 923 INTER-LIGAND FREE ENERGY PREDICTED BY IDOCK:  -10.09 KCAL/MOL
REMARK 924 INTRA-LIGAND FREE ENERGY PREDICTED BY IDOCK:   -1.30 KCAL/MOL
REMARK 927      BINDING AFFINITY PREDICTED BY RF-SCORE:    0.00 PKD
ROOT
HETATM    1  C   UNL     1      -8.413  16.503  67.440  1.00  0.00    -0.177 C  
HETATM    2  N   UNL     1      -9.705  15.902  67.701  1.00  0.00    -0.223 NA 
HETATM    3  C   UNL     1     -10.759  16.544  68.329  1.00  0.00    -0.345 A  
HETATM    4  C   UNL     1     -11.514  15.624  69.090  1.00  0.00    -0.359 A  
HETATM    5  N   UNL     1     -11.029  17.871  68.275  1.00  0.00    -0.207 NA 
HETATM    6  C   UNL     1     -10.763  14.406  68.910  1.00  0.00    -0.253 A  
HETATM    7  H2  UNL     1     -10.398  18.450  67.722  1.00  0.00     0.000 HD 
HETATM    8  H1  UNL     1     -11.805  18.344  68.737  1.00  0.00     0.000 HD 
HETATM    9  N   UNL     1      -9.909  14.571  67.786  1.00  0.00    -0.218 NA 
ENDROOT
BRANCH   4  10
HETATM   10  N   UNL     1     -12.586  16.041  69.859  1.00  0.00    -0.550 N  
HETATM   11  H   UNL     1     -13.255  16.668  69.414  1.00  0.00     0.000 HD 
BRANCH  10  12
HETATM   12  C   UNL     1     -12.836  15.697  71.152  1.00  0.00    -0.480 C  
HETATM   13  O   UNL     1     -12.097  16.109  72.038  1.00  0.00    -0.476 OA 
BRANCH  12  14
HETATM   14  N   UNL     1     -13.815  14.767  71.325  1.00  0.00    -0.486 N  
HETATM   15  H   UNL     1     -14.746  14.920  70.937  1.00  0.00     0.000 HD 
BRANCH  14  16
HETATM   16  C   UNL     1     -13.519  13.553  72.068  1.00  0.00    -0.494 C  
BRANCH  16  17
HETATM   17  C   UNL     1     -12.825  12.490  71.207  1.00  0.00    -0.241 C  
HETATM   18  H2  UNL     1     -13.918  10.935  72.013  1.00  0.00     0.000 HD 
HETATM   19  N   UNL     1     -12.945  11.177  71.823  1.00  0.00    -0.457 NA 
HETATM   20  H1  UNL     1     -12.484  10.470  71.251  1.00  0.00     0.000 HD 
ENDBRANCH  16  17
ENDBRANCH  14  16
ENDBRANCH  12  14
ENDBRANCH  10  12
ENDBRANCH   4  10
BRANCH   9  21
HETATM   21  C   UNL     1      -9.134  13.610  66.946  1.00  0.00    -0.240 C  
BRANCH  21  22
HETATM   22  C   UNL     1      -9.637  11.910  66.897  1.00  0.00    -0.208 C  
HETATM   23  CA  UNL     1      -9.693  10.622  65.477  1.00  0.00    -0.237 C  
HETATM   24  C   UNL     1      -8.752   8.243  65.544  1.00  0.00    -0.140 C  
HETATM   25  C   UNL     1     -10.082  11.469  68.668  1.00  0.00    -0.214 C  
HETATM   26  C   UNL     1      -9.450  10.773  63.587  1.00  0.00    -0.291 C  
HETATM   27  N   UNL     1      -9.928   9.008  65.654  1.00  0.00    -0.049 N  
HETATM   28  O   UNL     1      -7.685   8.394  64.964  1.00  0.00    -0.092 OA 
HETATM   29  S   UNL     1     -10.568   9.305  69.046  1.00  0.00    -0.174 SA 
HETATM   30  C   UNL     1     -10.312   8.276  67.055  1.00  0.00    -0.323 C  
HETATM   31  O   UNL     1      -9.881  11.839  63.037  1.00  0.00    -0.398 OA 
HETATM   32  OXT UNL     1      -9.084   9.687  63.071  1.00  0.00    -0.260 OA 
HETATM   33  CA  UNL     1      -8.925   7.537  66.894  1.00  0.00    -0.135 C  
BRANCH  33  34
HETATM   34  N   UNL     1      -7.788   7.814  67.836  1.00  0.00    -0.125 N  
HETATM   35  C   UNL     1      -7.294   7.091  68.931  1.00  0.00    -0.093 C  
HETATM   36  H   UNL     1      -7.286   8.682  67.645  1.00  0.00     0.000 HD 
HETATM   37  O   UNL     1      -6.312   7.600  69.471  1.00  0.00    -0.031 OA 
BRANCH  35  38
HETATM   38  C   UNL     1      -7.848   5.711  69.501  1.00  0.00    -0.092 C  
HETATM   39  C   UNL     1      -8.654   5.648  70.698  1.00  0.00    -0.130 C  
HETATM   40  C   UNL     1     -10.390   5.033  73.208  1.00  0.00    -0.191 C  
HETATM   41  N   UNL     1      -9.080   7.178  71.102  1.00  0.00    -0.152 NA 
HETATM   42  N   UNL     1     -11.449   4.577  73.942  1.00  0.00    -0.264 NA 
HETATM   43  H   UNL     1      -9.356   3.369  71.745  1.00  0.00     0.000 HD 
HETATM   44  S   UNL     1     -10.327   7.379  73.148  1.00  0.00    -0.365 SA 
HETATM   45  H1  UNL     1     -11.476   3.557  73.968  1.00  0.00     0.000 HD 
HETATM   46  H2  UNL     1     -12.127   5.180  74.406  1.00  0.00     0.000 HD 
HETATM   47  N   UNL     1      -9.461   4.374  71.881  1.00  0.00    -0.137 NA 
BRANCH  38  48
HETATM   48  N   UNL     1      -7.784   4.573  68.902  1.00  0.00    -0.070 NA 
HETATM   49  H   UNL     1      -8.171   3.739  69.344  1.00  0.00     0.000 HD 
BRANCH  48  50
HETATM   50  O   UNL     1      -7.196   4.489  67.677  1.00  0.00    -0.064 OA 
HETATM   51  O   UNL     1      -8.863   1.730  66.209  1.00  0.00    -0.117 OA 
HETATM   52  C   UNL     1      -8.044   2.468  66.742  1.00  0.00    -0.081 C  
HETATM   53  C   UNL     1      -7.671   4.453  65.383  1.00  0.00    -0.086 C  
HETATM   54  C   UNL     1      -9.729   4.094  67.119  1.00  0.00    -0.224 C  
HETATM   55  C   UNL     1      -8.187   3.980  66.747  1.00  0.00    -0.100 C  
HETATM   56  O   UNL     1      -6.945   2.004  67.367  1.00  0.00    -0.039 OA 
ENDBRANCH  48  50
ENDBRANCH  38  48
ENDBRANCH  35  38
ENDBRANCH  33  34
ENDBRANCH  21  22
ENDBRANCH   9  21
TORSDOF 11
ENDMDL
MODEL       32
REMARK 921   NORMALIZED FREE ENERGY PREDICTED BY IDOCK:   -4.63 KCAL/MOL
REMARK 922        TOTAL FREE ENERGY PREDICTED BY IDOCK:  -11.39 KCAL/MOL
REMARK 923 INTER-LIGAND FREE ENERGY PREDICTED BY IDOCK:   -8.61 KCAL/MOL
REMARK 924 INTRA-LIGAND FREE ENERGY PREDICTED BY IDOCK:   -2.78 KCAL/MOL
REMARK 927      BINDING AFFINITY PREDICTED BY RF-SCORE:    0.00 PKD
ROOT
HETATM    1  C   UNL     1      -9.476   4.142  71.222  1.00  0.00    -0.160 C  
HETATM    2  N   UNL     1      -9.758   5.515  71.586  1.00  0.00    -0.158 NA 
HETATM    3  C   UNL     1     -10.866   5.925  72.310  1.00  0.00    -0.245 A  
HETATM    4  C   UNL     1     -11.281   7.209  71.890  1.00  0.00    -0.249 A  
HETATM    5  N   UNL     1     -11.508   5.204  73.260  1.00  0.00    -0.494 NA 
HETATM    6  C   UNL     1     -10.364   7.477  70.809  1.00  0.00    -0.203 A  
HETATM    7  H2  UNL     1     -11.143   4.273  73.460  1.00  0.00     0.000 HD 
HETATM    8  H1  UNL     1     -12.324   5.505  73.792  1.00  0.00     0.000 HD 
HETATM    9  N   UNL     1      -9.265   6.583  70.925  1.00  0.00    -0.154 NA 
ENDROOT
BRANCH   4  10
HETATM   10  N   UNL     1     -12.408   7.807  72.425  1.00  0.00    -0.527 N  
HETATM   11  H   UNL     1     -12.584   7.650  73.417  1.00  0.00     0.000 HD 
BRANCH  10  12
HETATM   12  C   UNL     1     -13.305   8.583  71.759  1.00  0.00    -0.367 C  
HETATM   13  O   UNL     1     -13.977   8.091  70.860  1.00  0.00     0.001 OA 
BRANCH  12  14
HETATM   14  N   UNL     1     -13.252   9.912  72.053  1.00  0.00    -0.451 N  
HETATM   15  H   UNL     1     -13.286  10.227  73.022  1.00  0.00     0.000 HD 
BRANCH  14  16
HETATM   16  C   UNL     1     -13.146  10.876  70.970  1.00  0.00    -0.206 C  
BRANCH  16  17
HETATM   17  C   UNL     1     -11.909  10.644  70.094  1.00  0.00    -0.337 C  
HETATM   18  H2  UNL     1     -12.795  11.435  68.405  1.00  0.00     0.000 HD 
HETATM   19  N   UNL     1     -12.281  10.600  68.688  1.00  0.00    -0.814 NA 
HETATM   20  H1  UNL     1     -11.458  10.447  68.105  1.00  0.00     0.000 HD 
ENDBRANCH  16  17
ENDBRANCH  14  16
ENDBRANCH  12  14
ENDBRANCH  10  12
ENDBRANCH   4  10
BRANCH   9  21
HETATM   21  C   UNL     1      -7.904   6.558  70.312  1.00  0.00    -0.107 C  
BRANCH  21  22
HETATM   22  C   UNL     1      -7.598   7.523  68.856  1.00  0.00    -0.105 C  
HETATM   23  CA  UNL     1      -8.713   8.012  67.374  1.00  0.00    -0.124 C  
HETATM   24  C   UNL     1      -9.025  10.364  66.417  1.00  0.00    -0.149 C  
HETATM   25  C   UNL     1      -5.835   8.147  69.032  1.00  0.00    -0.035 C  
HETATM   26  C   UNL     1     -10.457   7.449  66.831  1.00  0.00    -0.309 C  
HETATM   27  N   UNL     1      -8.357   9.139  66.236  1.00  0.00    -0.117 N  
HETATM   28  O   UNL     1     -10.084  10.693  66.937  1.00  0.00    -0.198 OA 
HETATM   29  S   UNL     1      -5.150   9.603  67.460  1.00  0.00    -0.036 SA 
HETATM   30  C   UNL     1      -6.927   9.901  66.103  1.00  0.00    -0.102 C  
HETATM   31  O   UNL     1     -10.755   6.227  67.035  1.00  0.00    -0.281 OA 
HETATM   32  OXT UNL     1     -11.032   8.315  66.125  1.00  0.00     1.115 OA 
HETATM   33  CA  UNL     1      -7.750  11.215  66.411  1.00  0.00    -0.124 C  
BRANCH  33  34
HETATM   34  N   UNL     1      -7.554  11.965  67.697  1.00  0.00    -0.126 N  
HETATM   35  C   UNL     1      -7.974  13.242  68.098  1.00  0.00    -0.150 C  
HETATM   36  H   UNL     1      -7.022  11.457  68.404  1.00  0.00     0.000 HD 
HETATM   37  O   UNL     1      -7.663  13.536  69.252  1.00  0.00     0.136 OA 
BRANCH  35  38
HETATM   38  C   UNL     1      -8.809  14.293  67.242  1.00  0.00    -0.214 C  
HETATM   39  C   UNL     1      -8.231  15.535  66.784  1.00  0.00    -0.242 C  
HETATM   40  C   UNL     1      -7.421  18.302  65.610  1.00  0.00     0.027 C  
HETATM   41  N   UNL     1      -6.615  15.468  67.049  1.00  0.00    -0.244 NA 
HETATM   42  N   UNL     1      -7.198  19.270  64.671  1.00  0.00     0.423 NA 
HETATM   43  H   UNL     1      -9.671  17.345  65.588  1.00  0.00     0.000 HD 
HETATM   44  S   UNL     1      -5.410  17.475  66.495  1.00  0.00    -0.199 SA 
HETATM   45  H1  UNL     1      -8.071  19.629  64.286  1.00  0.00     0.000 HD 
HETATM   46  H2  UNL     1      -6.272  19.592  64.390  1.00  0.00     0.000 HD 
HETATM   47  N   UNL     1      -8.715  17.159  65.887  1.00  0.00    -0.537 NA 
BRANCH  38  48
HETATM   48  N   UNL     1      -9.980  14.094  66.745  1.00  0.00    -0.260 NA 
HETATM   49  H   UNL     1     -10.679  13.572  67.273  1.00  0.00     0.000 HD 
BRANCH  48  50
HETATM   50  O   UNL     1     -10.280  14.585  65.511  1.00  0.00    -0.327 OA 
HETATM   51  O   UNL     1     -12.458  12.115  64.206  1.00  0.00    -0.414 OA 
HETATM   52  C   UNL     1     -11.496  12.834  64.447  1.00  0.00    -0.354 C  
HETATM   53  C   UNL     1     -12.076  15.177  64.129  1.00  0.00    -0.195 C  
HETATM   54  C   UNL     1     -12.605  13.709  66.352  1.00  0.00    -0.289 C  
HETATM   55  C   UNL     1     -11.626  14.157  65.182  1.00  0.00    -0.344 C  
HETATM   56  O   UNL     1     -10.239  12.514  64.081  1.00  0.00    -0.359 OA 
ENDBRANCH  48  50
ENDBRANCH  38  48
ENDBRANCH  35  38
ENDBRANCH  33  34
ENDBRANCH  21  22
ENDBRANCH   9  21
TORSDOF 11
ENDMDL
MODEL       33
REMARK 921   NORMALIZED FREE ENERGY PREDICTED BY IDOCK:   -4.54 KCAL/MOL
REMARK 922        TOTAL FREE ENERGY PREDICTED BY IDOCK:  -11.25 KCAL/MOL
REMARK 923 INTER-LIGAND FREE ENERGY PREDICTED BY IDOCK:   -8.88 KCAL/MOL
REMARK 924 INTRA-LIGAND FREE ENERGY PREDICTED BY IDOCK:   -2.36 KCAL/MOL
REMARK 927      BINDING AFFINITY PREDICTED BY RF-SCORE:    0.00 PKD
ROOT
HETATM    1  C   UNL     1     -10.976  16.158  64.843  1.00  0.00    -0.349 C  
HETATM    2  N   UNL     1     -10.748  16.817  66.113  1.00  0.00    -0.185 NA 
HETATM    3  C   UNL     1     -10.409  18.153  66.256  1.00  0.00    -0.397 A  
HETATM    4  C   UNL     1      -9.562  18.329  67.372  1.00  0.00    -0.283 A  
HETATM    5  N   UNL     1     -10.785  19.163  65.434  1.00  0.00    -0.472 NA 
HETATM    6  C   UNL     1      -9.377  16.970  67.820  1.00  0.00    -0.237 A  
HETATM    7  H2  UNL     1     -11.371  18.917  64.637  1.00  0.00     0.000 HD 
HETATM    8  H1  UNL     1     -10.536  20.146  65.539  1.00  0.00     0.000 HD 
HETATM    9  N   UNL     1     -10.398  16.168  67.242  1.00  0.00    -0.282 NA 
ENDROOT
BRANCH   4  10
HETATM   10  N   UNL     1      -9.038  19.571  67.685  1.00  0.00    -0.308 N  
HETATM   11  H   UNL     1      -9.649  20.376  67.543  1.00  0.00     0.000 HD 
BRANCH  10  12
HETATM   12  C   UNL     1      -7.790  19.826  68.163  1.00  0.00    -0.308 C  
HETATM   13  O   UNL     1      -7.461  19.378  69.254  1.00  0.00    -0.337 OA 
BRANCH  12  14
HETATM   14  N   UNL     1      -7.062  20.716  67.434  1.00  0.00    -0.327 N  
HETATM   15  H   UNL     1      -6.591  21.496  67.893  1.00  0.00     0.000 HD 
BRANCH  14  16
HETATM   16  C   UNL     1      -6.963  20.543  65.994  1.00  0.00    -0.189 C  
BRANCH  16  17
HETATM   17  C   UNL     1      -6.032  19.389  65.602  1.00  0.00    -0.185 C  
HETATM   18  H2  UNL     1      -7.550  18.284  64.743  1.00  0.00     0.000 HD 
HETATM   19  N   UNL     1      -6.793  18.162  65.416  1.00  0.00    -0.473 NA 
HETATM   20  H1  UNL     1      -6.174  17.395  65.154  1.00  0.00     0.000 HD 
ENDBRANCH  16  17
ENDBRANCH  14  16
ENDBRANCH  12  14
ENDBRANCH  10  12
ENDBRANCH   4  10
BRANCH   9  21
HETATM   21  C   UNL     1     -10.906  14.796  67.540  1.00  0.00    -0.287 C  
BRANCH  21  22
HETATM   22  C   UNL     1      -9.901  13.396  67.124  1.00  0.00    -0.237 C  
HETATM   23  CA  UNL     1      -8.167  12.831  67.719  1.00  0.00    -0.176 C  
HETATM   24  C   UNL     1      -7.531  10.494  68.546  1.00  0.00    -0.091 C  
HETATM   25  C   UNL     1     -10.936  12.373  65.936  1.00  0.00    -0.323 C  
HETATM   26  C   UNL     1      -6.826  13.683  68.781  1.00  0.00    -0.107 C  
HETATM   27  N   UNL     1      -7.489  11.364  67.440  1.00  0.00    -0.112 N  
HETATM   28  O   UNL     1      -7.566  10.655  69.759  1.00  0.00    -0.139 OA 
HETATM   29  S   UNL     1     -10.070  10.382  65.348  1.00  0.00    -0.260 SA 
HETATM   30  C   UNL     1      -8.123  10.218  66.475  1.00  0.00    -0.121 C  
HETATM   31  O   UNL     1      -6.693  14.942  68.635  1.00  0.00    -0.089 OA 
HETATM   32  OXT UNL     1      -6.074  12.850  69.346  1.00  0.00    -0.095 OA 
HETATM   33  CA  UNL     1      -8.221   9.351  67.792  1.00  0.00    -0.114 C  
BRANCH  33  34
HETATM   34  N   UNL     1      -9.555   8.995  68.385  1.00  0.00    -0.150 N  
HETATM   35  C   UNL     1      -9.984   7.858  69.084  1.00  0.00    -0.184 C  
HETATM   36  H   UNL     1     -10.275   9.706  68.256  1.00  0.00     0.000 HD 
HETATM   37  O   UNL     1     -11.155   7.910  69.462  1.00  0.00    -0.131 OA 
BRANCH  35  38
HETATM   38  C   UNL     1      -9.123   6.569  69.445  1.00  0.00    -0.141 C  
HETATM   39  C   UNL     1      -8.837   5.543  68.468  1.00  0.00    -0.104 C  
HETATM   40  C   UNL     1      -7.991   3.109  66.723  1.00  0.00    -0.080 C  
HETATM   41  N   UNL     1      -9.283   6.110  66.997  1.00  0.00    -0.120 NA 
HETATM   42  N   UNL     1      -7.166   2.217  66.097  1.00  0.00    -0.059 NA 
HETATM   43  H   UNL     1      -7.629   3.334  69.131  1.00  0.00     0.000 HD 
HETATM   44  S   UNL     1      -9.037   4.544  65.188  1.00  0.00    -0.154 SA 
HETATM   45  H1  UNL     1      -6.711   1.594  66.764  1.00  0.00     0.000 HD 
HETATM   46  H2  UNL     1      -7.022   2.181  65.088  1.00  0.00     0.000 HD 
HETATM   47  N   UNL     1      -8.022   3.814  68.322  1.00  0.00    -0.071 NA 
BRANCH  38  48
HETATM   48  N   UNL     1      -8.478   6.381  70.544  1.00  0.00    -0.136 NA 
HETATM   49  H   UNL     1      -8.375   5.440  70.923  1.00  0.00     0.000 HD 
BRANCH  48  50
HETATM   50  O   UNL     1      -7.934   7.446  71.195  1.00  0.00    -0.097 OA 
HETATM   51  O   UNL     1      -9.425   7.233  74.401  1.00  0.00    -0.198 OA 
HETATM   52  C   UNL     1      -9.118   7.554  73.260  1.00  0.00    -0.191 C  
HETATM   53  C   UNL     1      -6.736   8.036  73.119  1.00  0.00    -0.107 C  
HETATM   54  C   UNL     1      -7.852   5.563  73.020  1.00  0.00    -0.098 C  
HETATM   55  C   UNL     1      -7.829   7.096  72.600  1.00  0.00    -0.095 C  
HETATM   56  O   UNL     1      -9.894   8.344  72.492  1.00  0.00    -0.282 OA 
ENDBRANCH  48  50
ENDBRANCH  38  48
ENDBRANCH  35  38
ENDBRANCH  33  34
ENDBRANCH  21  22
ENDBRANCH   9  21
TORSDOF 11
ENDMDL
MODEL       34
REMARK 921   NORMALIZED FREE ENERGY PREDICTED BY IDOCK:   -4.52 KCAL/MOL
REMARK 922        TOTAL FREE ENERGY PREDICTED BY IDOCK:  -11.21 KCAL/MOL
REMARK 923 INTER-LIGAND FREE ENERGY PREDICTED BY IDOCK:  -10.99 KCAL/MOL
REMARK 924 INTRA-LIGAND FREE ENERGY PREDICTED BY IDOCK:   -0.22 KCAL/MOL
REMARK 927      BINDING AFFINITY PREDICTED BY RF-SCORE:    0.00 PKD
ROOT
HETATM    1  C   UNL     1      -8.665  17.334  66.636  1.00  0.00    -0.257 C  
HETATM    2  N   UNL     1      -9.659  16.694  67.474  1.00  0.00    -0.240 NA 
HETATM    3  C   UNL     1     -10.307  17.308  68.534  1.00  0.00    -0.371 A  
HETATM    4  C   UNL     1     -10.580  16.369  69.554  1.00  0.00    -0.320 A  
HETATM    5  N   UNL     1     -10.609  18.625  68.627  1.00  0.00    -0.345 NA 
HETATM    6  C   UNL     1      -9.969  15.174  69.027  1.00  0.00    -0.239 A  
HETATM    7  H2  UNL     1     -10.334  19.220  67.846  1.00  0.00     0.000 HD 
HETATM    8  H1  UNL     1     -11.086  19.077  69.407  1.00  0.00     0.000 HD 
HETATM    9  N   UNL     1      -9.758  15.359  67.634  1.00  0.00    -0.211 NA 
ENDROOT
BRANCH   4  10
HETATM   10  N   UNL     1     -11.170  16.757  70.744  1.00  0.00    -0.333 N  
HETATM   11  H   UNL     1     -11.235  17.760  70.919  1.00  0.00     0.000 HD 
BRANCH  10  12
HETATM   12  C   UNL     1     -11.671  15.934  71.704  1.00  0.00    -0.485 C  
HETATM   13  O   UNL     1     -12.001  16.403  72.787  1.00  0.00    -0.531 OA 
BRANCH  12  14
HETATM   14  N   UNL     1     -11.603  14.604  71.419  1.00  0.00    -0.504 N  
HETATM   15  H   UNL     1     -10.718  14.104  71.498  1.00  0.00     0.000 HD 
BRANCH  14  16
HETATM   16  C   UNL     1     -12.808  13.905  71.001  1.00  0.00    -0.324 C  
BRANCH  16  17
HETATM   17  C   UNL     1     -13.479  13.146  72.153  1.00  0.00    -0.560 C  
HETATM   18  H2  UNL     1     -12.612  11.343  71.642  1.00  0.00     0.000 HD 
HETATM   19  N   UNL     1     -13.534  11.722  71.860  1.00  0.00    -0.299 NA 
HETATM   20  H1  UNL     1     -13.980  11.216  72.625  1.00  0.00     0.000 HD 
ENDBRANCH  16  17
ENDBRANCH  14  16
ENDBRANCH  12  14
ENDBRANCH  10  12
ENDBRANCH   4  10
BRANCH   9  21
HETATM   21  C   UNL     1      -9.447  14.417  66.518  1.00  0.00    -0.289 C  
BRANCH  21  22
HETATM   22  C   UNL     1      -9.924  12.715  66.668  1.00  0.00    -0.247 C  
HETATM   23  CA  UNL     1      -9.903  11.254  65.426  1.00  0.00    -0.237 C  
HETATM   24  C   UNL     1      -8.933   8.922  65.838  1.00  0.00    -0.200 C  
HETATM   25  C   UNL     1     -10.436  12.497  68.463  1.00  0.00    -0.246 C  
HETATM   26  C   UNL     1      -9.584  11.166  63.544  1.00  0.00    -0.315 C  
HETATM   27  N   UNL     1     -10.123   9.673  65.801  1.00  0.00    -0.267 N  
HETATM   28  O   UNL     1      -7.845   9.018  65.285  1.00  0.00    -0.097 OA 
HETATM   29  S   UNL     1     -10.907  10.392  69.098  1.00  0.00    -0.252 SA 
HETATM   30  C   UNL     1     -10.554   9.120  67.269  1.00  0.00    -0.233 C  
HETATM   31  O   UNL     1     -10.006  12.144  62.844  1.00  0.00    -0.247 OA 
HETATM   32  OXT UNL     1      -9.182  10.030  63.187  1.00  0.00    -0.260 OA 
HETATM   33  CA  UNL     1      -9.152   8.393  67.259  1.00  0.00    -0.137 C  
BRANCH  33  34
HETATM   34  N   UNL     1      -8.059   8.810  68.202  1.00  0.00    -0.106 N  
HETATM   35  C   UNL     1      -7.790   8.447  69.529  1.00  0.00    -0.102 C  
HETATM   36  H   UNL     1      -7.395   9.477  67.806  1.00  0.00     0.000 HD 
HETATM   37  O   UNL     1      -6.776   8.963  69.999  1.00  0.00    -0.040 OA 
BRANCH  35  38
HETATM   38  C   UNL     1      -8.628   7.444  70.440  1.00  0.00    -0.144 C  
HETATM   39  C   UNL     1      -8.577   6.014  70.246  1.00  0.00    -0.143 C  
HETATM   40  C   UNL     1      -8.788   2.909  70.192  1.00  0.00    -0.086 C  
HETATM   41  N   UNL     1      -7.355   5.688  69.204  1.00  0.00    -0.076 NA 
HETATM   42  N   UNL     1      -8.710   1.620  70.640  1.00  0.00    -0.052 NA 
HETATM   43  H   UNL     1     -10.127   4.406  71.587  1.00  0.00     0.000 HD 
HETATM   44  S   UNL     1      -7.127   3.371  68.598  1.00  0.00    -0.050 SA 
HETATM   45  H1  UNL     1      -9.431   1.418  71.333  1.00  0.00     0.000 HD 
HETATM   46  H2  UNL     1      -8.016   0.943  70.322  1.00  0.00     0.000 HD 
HETATM   47  N   UNL     1      -9.388   4.398  70.884  1.00  0.00    -0.138 NA 
BRANCH  38  48
HETATM   48  N   UNL     1      -9.282   7.765  71.501  1.00  0.00    -0.135 NA 
HETATM   49  H   UNL     1      -8.890   7.572  72.423  1.00  0.00     0.000 HD 
BRANCH  48  50
HETATM   50  O   UNL     1     -10.501   8.362  71.386  1.00  0.00    -0.202 OA 
HETATM   51  O   UNL     1     -12.727   5.740  72.234  1.00  0.00     0.087 OA 
HETATM   52  C   UNL     1     -12.066   6.583  71.641  1.00  0.00    -0.328 C  
HETATM   53  C   UNL     1     -12.478   8.798  72.563  1.00  0.00    -0.368 C  
HETATM   54  C   UNL     1     -10.763   6.958  73.586  1.00  0.00    -0.304 C  
HETATM   55  C   UNL     1     -11.388   7.741  72.352  1.00  0.00    -0.346 C  
HETATM   56  O   UNL     1     -11.885   6.558  70.306  1.00  0.00    -0.413 OA 
ENDBRANCH  48  50
ENDBRANCH  38  48
ENDBRANCH  35  38
ENDBRANCH  33  34
ENDBRANCH  21  22
ENDBRANCH   9  21
TORSDOF 11
ENDMDL
MODEL       35
REMARK 921   NORMALIZED FREE ENERGY PREDICTED BY IDOCK:   -4.52 KCAL/MOL
REMARK 922        TOTAL FREE ENERGY PREDICTED BY IDOCK:  -11.21 KCAL/MOL
REMARK 923 INTER-LIGAND FREE ENERGY PREDICTED BY IDOCK:   -8.98 KCAL/MOL
REMARK 924 INTRA-LIGAND FREE ENERGY PREDICTED BY IDOCK:   -2.22 KCAL/MOL
REMARK 927      BINDING AFFINITY PREDICTED BY RF-SCORE:    0.00 PKD
ROOT
HETATM    1  C   UNL     1     -10.012   4.600  69.417  1.00  0.00    -0.179 C  
HETATM    2  N   UNL     1      -9.745   4.177  68.057  1.00  0.00    -0.133 NA 
HETATM    3  C   UNL     1      -9.112   2.994  67.711  1.00  0.00    -0.181 A  
HETATM    4  C   UNL     1      -8.348   3.170  66.536  1.00  0.00    -0.100 A  
HETATM    5  N   UNL     1      -9.164   1.831  68.404  1.00  0.00    -0.158 NA 
HETATM    6  C   UNL     1      -8.532   4.576  66.272  1.00  0.00    -0.113 A  
HETATM    7  H2  UNL     1      -9.720   1.826  69.259  1.00  0.00     0.000 HD 
HETATM    8  H1  UNL     1      -8.698   0.961  68.150  1.00  0.00     0.000 HD 
HETATM    9  N   UNL     1      -9.660   5.024  67.011  1.00  0.00    -0.141 NA 
ENDROOT
BRANCH   4  10
HETATM   10  N   UNL     1      -7.573   2.143  66.026  1.00  0.00    -0.066 N  
HETATM   11  H   UNL     1      -7.344   1.381  66.663  1.00  0.00     0.000 HD 
BRANCH  10  12
HETATM   12  C   UNL     1      -7.087   2.050  64.758  1.00  0.00    -0.052 C  
HETATM   13  O   UNL     1      -5.895   2.244  64.556  1.00  0.00    -0.013 OA 
BRANCH  12  14
HETATM   14  N   UNL     1      -8.030   1.907  63.786  1.00  0.00    -0.061 N  
HETATM   15  H   UNL     1      -8.585   1.053  63.728  1.00  0.00     0.000 HD 
BRANCH  14  16
HETATM   16  C   UNL     1      -8.234   2.983  62.831  1.00  0.00    -0.074 C  
BRANCH  16  17
HETATM   17  C   UNL     1      -9.666   3.533  62.861  1.00  0.00    -0.108 C  
HETATM   18  H2  UNL     1      -9.105   5.395  62.167  1.00  0.00     0.000 HD 
HETATM   19  N   UNL     1      -9.652   4.987  62.925  1.00  0.00    -0.334 NA 
HETATM   20  H1  UNL     1     -10.604   5.353  62.945  1.00  0.00     0.000 HD 
ENDBRANCH  16  17
ENDBRANCH  14  16
ENDBRANCH  12  14
ENDBRANCH  10  12
ENDBRANCH   4  10
BRANCH   9  21
HETATM   21  C   UNL     1     -10.504   6.254  66.935  1.00  0.00    -0.272 C  
BRANCH  21  22
HETATM   22  C   UNL     1      -9.919   7.748  67.690  1.00  0.00    -0.230 C  
HETATM   23  CA  UNL     1      -8.386   8.849  67.354  1.00  0.00    -0.108 C  
HETATM   24  C   UNL     1      -8.376  11.389  67.045  1.00  0.00    -0.161 C  
HETATM   25  C   UNL     1     -11.220   8.203  68.967  1.00  0.00     0.380 C  
HETATM   26  C   UNL     1      -6.840   8.608  66.257  1.00  0.00    -0.070 C  
HETATM   27  N   UNL     1      -8.131  10.351  67.963  1.00  0.00    -0.109 N  
HETATM   28  O   UNL     1      -8.336  11.479  65.825  1.00  0.00     0.005 OA 
HETATM   29  S   UNL     1     -10.932  10.184  69.995  1.00  0.00    -0.325 SA 
HETATM   30  C   UNL     1      -9.072  11.071  69.077  1.00  0.00    -0.063 C  
HETATM   31  O   UNL     1      -6.378   7.423  66.168  1.00  0.00    -0.040 OA 
HETATM   32  OXT UNL     1      -6.323   9.704  65.923  1.00  0.00    -0.072 OA 
HETATM   33  CA  UNL     1      -9.365  12.136  67.948  1.00  0.00    -0.192 C  
BRANCH  33  34
HETATM   34  N   UNL     1     -10.730  12.253  67.331  1.00  0.00    -0.225 N  
HETATM   35  C   UNL     1     -11.700  13.262  67.411  1.00  0.00    -0.373 C  
HETATM   36  H   UNL     1     -10.998  11.457  66.751  1.00  0.00     0.000 HD 
HETATM   37  O   UNL     1     -12.711  13.045  66.743  1.00  0.00    -0.068 OA 
BRANCH  35  38
HETATM   38  C   UNL     1     -11.606  14.623  68.232  1.00  0.00    -0.326 C  
HETATM   39  C   UNL     1     -12.138  14.746  69.570  1.00  0.00    -0.290 C  
HETATM   40  C   UNL     1     -13.136  15.470  72.428  1.00  0.00    -0.437 C  
HETATM   41  N   UNL     1     -12.526  13.244  70.099  1.00  0.00    -0.199 NA 
HETATM   42  N   UNL     1     -13.078  15.882  73.730  1.00  0.00    -0.777 NA 
HETATM   43  H   UNL     1     -12.186  17.036  70.808  1.00  0.00     0.000 HD 
HETATM   44  S   UNL     1     -13.564  13.167  72.268  1.00  0.00    -0.508 SA 
HETATM   45  H1  UNL     1     -12.892  16.882  73.800  1.00  0.00     0.000 HD 
HETATM   46  H2  UNL     1     -13.204  15.265  74.532  1.00  0.00     0.000 HD 
HETATM   47  N   UNL     1     -12.429  16.055  70.940  1.00  0.00    -0.284 NA 
BRANCH  38  48
HETATM   48  N   UNL     1     -10.936  15.665  67.882  1.00  0.00    -0.310 NA 
HETATM   49  H   UNL     1     -11.175  16.580  68.265  1.00  0.00     0.000 HD 
BRANCH  48  50
HETATM   50  O   UNL     1      -9.907  15.539  66.999  1.00  0.00    -0.228 OA 
HETATM   51  O   UNL     1      -9.100  18.910  66.269  1.00  0.00    -0.357 OA 
HETATM   52  C   UNL     1      -9.508  17.756  66.223  1.00  0.00    -0.217 C  
HETATM   53  C   UNL     1      -7.689  16.188  66.621  1.00  0.00    -0.265 C  
HETATM   54  C   UNL     1      -9.092  17.497  68.543  1.00  0.00    -0.277 C  
HETATM   55  C   UNL     1      -9.029  16.680  67.181  1.00  0.00    -0.210 C  
HETATM   56  O   UNL     1     -10.416  17.341  65.317  1.00  0.00    -0.661 OA 
ENDBRANCH  48  50
ENDBRANCH  38  48
ENDBRANCH  35  38
ENDBRANCH  33  34
ENDBRANCH  21  22
ENDBRANCH   9  21
TORSDOF 11
ENDMDL
MODEL       36
REMARK 921   NORMALIZED FREE ENERGY PREDICTED BY IDOCK:   -4.43 KCAL/MOL
REMARK 922        TOTAL FREE ENERGY PREDICTED BY IDOCK:  -11.07 KCAL/MOL
REMARK 923 INTER-LIGAND FREE ENERGY PREDICTED BY IDOCK:   -9.33 KCAL/MOL
REMARK 924 INTRA-LIGAND FREE ENERGY PREDICTED BY IDOCK:   -1.74 KCAL/MOL
REMARK 927      BINDING AFFINITY PREDICTED BY RF-SCORE:    0.00 PKD
ROOT
HETATM    1  C   UNL     1     -10.866   6.276  70.341  1.00  0.00    -0.299 C  
HETATM    2  N   UNL     1     -10.311   5.396  69.333  1.00  0.00    -0.264 NA 
HETATM    3  C   UNL     1      -9.659   4.204  69.602  1.00  0.00    -0.207 A  
HETATM    4  C   UNL     1      -8.640   3.974  68.651  1.00  0.00    -0.093 A  
HETATM    5  N   UNL     1      -9.911   3.376  70.645  1.00  0.00    -0.090 NA 
HETATM    6  C   UNL     1      -8.707   5.172  67.851  1.00  0.00    -0.102 A  
HETATM    7  H2  UNL     1     -10.647   3.657  71.292  1.00  0.00     0.000 HD 
HETATM    8  H1  UNL     1      -9.431   2.499  70.843  1.00  0.00     0.000 HD 
HETATM    9  N   UNL     1      -9.957   5.802  68.096  1.00  0.00    -0.138 NA 
ENDROOT
BRANCH   4  10
HETATM   10  N   UNL     1      -7.808   2.873  68.746  1.00  0.00    -0.053 N  
HETATM   11  H   UNL     1      -8.179   2.056  69.230  1.00  0.00     0.000 HD 
BRANCH  10  12
HETATM   12  C   UNL     1      -6.542   2.772  68.257  1.00  0.00    -0.036 C  
HETATM   13  O   UNL     1      -6.371   2.629  67.053  1.00  0.00    -0.030 OA 
BRANCH  12  14
HETATM   14  N   UNL     1      -5.564   2.673  69.200  1.00  0.00    -0.020 N  
HETATM   15  H   UNL     1      -4.666   3.136  69.063  1.00  0.00     0.000 HD 
BRANCH  14  16
HETATM   16  C   UNL     1      -5.815   1.898  70.404  1.00  0.00    -0.018 C  
BRANCH  16  17
HETATM   17  C   UNL     1      -5.844   2.767  71.668  1.00  0.00    -0.013 C  
HETATM   18  H2  UNL     1      -7.843   2.400  72.033  1.00  0.00     0.000 HD 
HETATM   19  N   UNL     1      -7.204   3.192  71.963  1.00  0.00    -0.041 NA 
HETATM   20  H1  UNL     1      -7.223   3.770  72.803  1.00  0.00     0.000 HD 
ENDBRANCH  16  17
ENDBRANCH  14  16
ENDBRANCH  12  14
ENDBRANCH  10  12
ENDBRANCH   4  10
BRANCH   9  21
HETATM   21  C   UNL     1     -10.716   6.872  67.382  1.00  0.00    -0.326 C  
BRANCH  21  22
HETATM   22  C   UNL     1      -9.936   8.439  67.100  1.00  0.00    -0.304 C  
HETATM   23  CA  UNL     1      -8.975   9.151  65.601  1.00  0.00    -0.203 C  
HETATM   24  C   UNL     1      -9.366  11.420  64.484  1.00  0.00    -0.077 C  
HETATM   25  C   UNL     1     -10.301   9.461  68.633  1.00  0.00    -0.227 C  
HETATM   26  C   UNL     1      -8.326   8.355  63.989  1.00  0.00    -0.061 C  
HETATM   27  N   UNL     1      -8.549  10.721  65.392  1.00  0.00    -0.176 N  
HETATM   28  O   UNL     1     -10.041  11.095  63.516  1.00  0.00    -0.316 OA 
HETATM   29  S   UNL     1      -9.649  11.613  68.554  1.00  0.00    -0.143 SA 
HETATM   30  C   UNL     1      -8.738  11.889  66.509  1.00  0.00    -0.158 C  
HETATM   31  O   UNL     1      -7.898   7.158  64.073  1.00  0.00    -0.122 OA 
HETATM   32  OXT UNL     1      -8.192   9.200  63.068  1.00  0.00    -0.160 OA 
HETATM   33  CA  UNL     1      -9.717  12.549  65.460  1.00  0.00    -0.119 C  
BRANCH  33  34
HETATM   34  N   UNL     1     -11.193  12.636  65.728  1.00  0.00    -0.300 N  
HETATM   35  C   UNL     1     -11.946  13.553  66.476  1.00  0.00    -0.413 C  
HETATM   36  H   UNL     1     -11.744  11.898  65.289  1.00  0.00     0.000 HD 
HETATM   37  O   UNL     1     -13.159  13.343  66.459  1.00  0.00     0.189 OA 
BRANCH  35  38
HETATM   38  C   UNL     1     -11.401  14.808  67.290  1.00  0.00    -0.357 C  
HETATM   39  C   UNL     1     -11.713  15.007  68.687  1.00  0.00    -0.337 C  
HETATM   40  C   UNL     1     -12.130  15.842  71.656  1.00  0.00    -0.452 C  
HETATM   41  N   UNL     1     -12.411  13.634  69.248  1.00  0.00    -0.227 NA 
HETATM   42  N   UNL     1     -11.807  16.169  72.943  1.00  0.00    -0.483 NA 
HETATM   43  H   UNL     1     -11.011  17.178  69.941  1.00  0.00     0.000 HD 
HETATM   44  S   UNL     1     -13.158  13.735  71.532  1.00  0.00    -0.347 SA 
HETATM   45  H1  UNL     1     -11.360  17.084  72.998  1.00  0.00     0.000 HD 
HETATM   46  H2  UNL     1     -11.990  15.572  73.750  1.00  0.00     0.000 HD 
HETATM   47  N   UNL     1     -11.483  16.287  70.094  1.00  0.00    -0.288 NA 
BRANCH  38  48
HETATM   48  N   UNL     1     -10.531  15.657  66.865  1.00  0.00    -0.302 NA 
HETATM   49  H   UNL     1     -10.519  15.931  65.883  1.00  0.00     0.000 HD 
BRANCH  48  50
HETATM   50  O   UNL     1      -9.627  16.187  67.736  1.00  0.00    -0.221 OA 
HETATM   51  O   UNL     1      -7.743  18.357  65.664  1.00  0.00    -0.518 OA 
HETATM   52  C   UNL     1      -8.125  17.425  66.360  1.00  0.00    -0.280 C  
HETATM   53  C   UNL     1      -8.807  18.222  68.557  1.00  0.00    -0.322 C  
HETATM   54  C   UNL     1     -10.339  18.275  66.316  1.00  0.00    -0.422 C  
HETATM   55  C   UNL     1      -9.323  17.534  67.288  1.00  0.00    -0.244 C  
HETATM   56  O   UNL     1      -7.516  16.223  66.366  1.00  0.00    -0.207 OA 
ENDBRANCH  48  50
ENDBRANCH  38  48
ENDBRANCH  35  38
ENDBRANCH  33  34
ENDBRANCH  21  22
ENDBRANCH   9  21
TORSDOF 11
ENDMDL
MODEL       37
REMARK 921   NORMALIZED FREE ENERGY PREDICTED BY IDOCK:   -4.41 KCAL/MOL
REMARK 922        TOTAL FREE ENERGY PREDICTED BY IDOCK:  -11.03 KCAL/MOL
REMARK 923 INTER-LIGAND FREE ENERGY PREDICTED BY IDOCK:   -9.24 KCAL/MOL
REMARK 924 INTRA-LIGAND FREE ENERGY PREDICTED BY IDOCK:   -1.79 KCAL/MOL
REMARK 927      BINDING AFFINITY PREDICTED BY RF-SCORE:    0.00 PKD
ROOT
HETATM    1  C   UNL     1     -10.995   6.050  66.548  1.00  0.00    -0.045 C  
HETATM    2  N   UNL     1      -9.740   5.325  66.547  1.00  0.00    -0.154 NA 
HETATM    3  C   UNL     1      -8.944   5.133  65.430  1.00  0.00    -0.156 A  
HETATM    4  C   UNL     1      -8.289   3.883  65.501  1.00  0.00    -0.105 A  
HETATM    5  N   UNL     1      -8.823   5.984  64.382  1.00  0.00    -0.328 NA 
HETATM    6  C   UNL     1      -8.832   3.334  66.719  1.00  0.00    -0.140 A  
HETATM    7  H2  UNL     1      -9.368   6.844  64.419  1.00  0.00     0.000 HD 
HETATM    8  H1  UNL     1      -8.237   5.843  63.560  1.00  0.00     0.000 HD 
HETATM    9  N   UNL     1      -9.411   4.395  67.466  1.00  0.00    -0.144 NA 
ENDROOT
BRANCH   4  10
HETATM   10  N   UNL     1      -7.483   3.438  64.468  1.00  0.00    -0.074 N  
HETATM   11  H   UNL     1      -7.015   4.152  63.910  1.00  0.00     0.000 HD 
BRANCH  10  12
HETATM   12  C   UNL     1      -7.253   2.142  64.123  1.00  0.00    -0.056 C  
HETATM   13  O   UNL     1      -6.170   1.633  64.383  1.00  0.00    -0.016 OA 
BRANCH  12  14
HETATM   14  N   UNL     1      -8.219   1.568  63.353  1.00  0.00    -0.061 N  
HETATM   15  H   UNL     1      -8.311   0.553  63.313  1.00  0.00     0.000 HD 
BRANCH  14  16
HETATM   16  C   UNL     1      -9.116   2.419  62.588  1.00  0.00    -0.087 C  
BRANCH  16  17
HETATM   17  C   UNL     1     -10.503   1.792  62.398  1.00  0.00    -0.101 C  
HETATM   18  H2  UNL     1     -11.454   3.232  63.532  1.00  0.00     0.000 HD 
HETATM   19  N   UNL     1     -11.403   2.215  63.460  1.00  0.00    -0.596 NA 
HETATM   20  H1  UNL     1     -12.326   1.799  63.333  1.00  0.00     0.000 HD 
ENDBRANCH  16  17
ENDBRANCH  14  16
ENDBRANCH  12  14
ENDBRANCH  10  12
ENDBRANCH   4  10
BRANCH   9  21
HETATM   21  C   UNL     1      -9.851   4.517  68.888  1.00  0.00    -0.120 C  
BRANCH  21  22
HETATM   22  C   UNL     1      -9.751   6.097  69.688  1.00  0.00    -0.181 C  
HETATM   23  CA  UNL     1      -8.289   7.299  69.991  1.00  0.00    -0.137 C  
HETATM   24  C   UNL     1      -8.256   9.809  69.490  1.00  0.00    -0.144 C  
HETATM   25  C   UNL     1     -11.514   6.517  70.184  1.00  0.00    -0.477 C  
HETATM   26  C   UNL     1      -6.401   7.122  69.746  1.00  0.00    -0.035 C  
HETATM   27  N   UNL     1      -8.414   8.850  70.509  1.00  0.00    -0.158 N  
HETATM   28  O   UNL     1      -7.661   9.829  68.421  1.00  0.00    -0.080 OA 
HETATM   29  S   UNL     1     -11.825   8.572  71.045  1.00  0.00    -0.218 SA 
HETATM   30  C   UNL     1      -9.795   9.554  71.001  1.00  0.00    -0.166 C  
HETATM   31  O   UNL     1      -5.897   5.977  69.986  1.00  0.00    -0.016 OA 
HETATM   32  OXT UNL     1      -5.841   8.236  69.588  1.00  0.00    -0.026 OA 
HETATM   33  CA  UNL     1      -9.583  10.523  69.771  1.00  0.00     0.069 C  
BRANCH  33  34
HETATM   34  N   UNL     1     -10.513  10.489  68.592  1.00  0.00    -0.180 N  
HETATM   35  C   UNL     1     -11.231  11.507  67.949  1.00  0.00    -0.279 C  
HETATM   36  H   UNL     1     -10.645   9.562  68.188  1.00  0.00     0.000 HD 
HETATM   37  O   UNL     1     -11.884  11.128  66.976  1.00  0.00    -0.411 OA 
BRANCH  35  38
HETATM   38  C   UNL     1     -11.257  13.053  68.329  1.00  0.00    -0.275 C  
HETATM   39  C   UNL     1     -11.955  13.541  69.496  1.00  0.00    -0.334 C  
HETATM   40  C   UNL     1     -13.315  15.031  71.866  1.00  0.00    -0.381 C  
HETATM   41  N   UNL     1     -12.390  12.247  70.402  1.00  0.00    -0.274 NA 
HETATM   42  N   UNL     1     -13.426  15.812  72.983  1.00  0.00    -0.575 NA 
HETATM   43  H   UNL     1     -12.185  16.091  69.975  1.00  0.00     0.000 HD 
HETATM   44  S   UNL     1     -13.692  12.766  72.356  1.00  0.00    -0.128 SA 
HETATM   45  H1  UNL     1     -13.262  16.796  72.770  1.00  0.00     0.000 HD 
HETATM   46  H2  UNL     1     -13.646  15.456  73.912  1.00  0.00     0.000 HD 
HETATM   47  N   UNL     1     -12.432  15.182  70.365  1.00  0.00    -0.358 NA 
BRANCH  38  48
HETATM   48  N   UNL     1     -10.561  13.977  67.762  1.00  0.00    -0.241 NA 
HETATM   49  H   UNL     1      -9.558  14.044  67.940  1.00  0.00     0.000 HD 
BRANCH  48  50
HETATM   50  O   UNL     1     -11.170  14.862  66.926  1.00  0.00    -0.335 OA 
HETATM   51  O   UNL     1      -9.121  17.737  67.223  1.00  0.00    -0.241 OA 
HETATM   52  C   UNL     1     -10.032  16.922  67.302  1.00  0.00    -0.277 C  
HETATM   53  C   UNL     1     -10.777  16.254  65.083  1.00  0.00    -0.350 C  
HETATM   54  C   UNL     1      -8.628  15.238  66.397  1.00  0.00    -0.197 C  
HETATM   55  C   UNL     1     -10.141  15.725  66.374  1.00  0.00    -0.291 C  
HETATM   56  O   UNL     1     -11.016  17.017  68.218  1.00  0.00    -0.365 OA 
ENDBRANCH  48  50
ENDBRANCH  38  48
ENDBRANCH  35  38
ENDBRANCH  33  34
ENDBRANCH  21  22
ENDBRANCH   9  21
TORSDOF 11
ENDMDL
MODEL       38
REMARK 921   NORMALIZED FREE ENERGY PREDICTED BY IDOCK:   -4.28 KCAL/MOL
REMARK 922        TOTAL FREE ENERGY PREDICTED BY IDOCK:  -10.82 KCAL/MOL
REMARK 923 INTER-LIGAND FREE ENERGY PREDICTED BY IDOCK:   -8.52 KCAL/MOL
REMARK 924 INTRA-LIGAND FREE ENERGY PREDICTED BY IDOCK:   -2.30 KCAL/MOL
REMARK 927      BINDING AFFINITY PREDICTED BY RF-SCORE:    0.00 PKD
ROOT
HETATM    1  C   UNL     1     -11.331  15.087  71.033  1.00  0.00    -0.273 C  
HETATM    2  N   UNL     1     -12.150  13.945  70.684  1.00  0.00    -0.348 NA 
HETATM    3  C   UNL     1     -12.916  13.221  71.584  1.00  0.00    -0.349 A  
HETATM    4  C   UNL     1     -12.965  11.861  71.207  1.00  0.00    -0.236 A  
HETATM    5  N   UNL     1     -13.509  13.711  72.699  1.00  0.00    -0.639 NA 
HETATM    6  C   UNL     1     -12.101  11.843  70.052  1.00  0.00    -0.291 A  
HETATM    7  H2  UNL     1     -13.379  14.704  72.895  1.00  0.00     0.000 HD 
HETATM    8  H1  UNL     1     -14.072  13.179  73.362  1.00  0.00     0.000 HD 
HETATM    9  N   UNL     1     -11.943  13.179  69.593  1.00  0.00    -0.317 NA 
ENDROOT
BRANCH   4  10
HETATM   10  N   UNL     1     -13.621  10.925  71.987  1.00  0.00    -0.367 N  
HETATM   11  H   UNL     1     -14.540  11.188  72.343  1.00  0.00     0.000 HD 
BRANCH  10  12
HETATM   12  C   UNL     1     -13.163   9.690  72.325  1.00  0.00    -0.404 C  
HETATM   13  O   UNL     1     -13.807   9.002  73.108  1.00  0.00    -0.287 OA 
BRANCH  12  14
HETATM   14  N   UNL     1     -11.912   9.393  71.875  1.00  0.00    -0.367 N  
HETATM   15  H   UNL     1     -11.404  10.055  71.288  1.00  0.00     0.000 HD 
BRANCH  14  16
HETATM   16  C   UNL     1     -11.310   8.121  72.239  1.00  0.00    -0.364 C  
BRANCH  16  17
HETATM   17  C   UNL     1      -9.798   8.230  72.470  1.00  0.00    -0.298 C  
HETATM   18  H2  UNL     1      -9.556   9.712  71.052  1.00  0.00     0.000 HD 
HETATM   19  N   UNL     1      -9.146   8.813  71.307  1.00  0.00    -0.213 NA 
HETATM   20  H1  UNL     1      -8.140   8.887  71.460  1.00  0.00     0.000 HD 
ENDBRANCH  16  17
ENDBRANCH  14  16
ENDBRANCH  12  14
ENDBRANCH  10  12
ENDBRANCH   4  10
BRANCH   9  21
HETATM   21  C   UNL     1     -11.432  13.763  68.318  1.00  0.00    -0.312 C  
BRANCH  21  22
HETATM   22  C   UNL     1     -10.279  12.831  67.344  1.00  0.00    -0.222 C  
HETATM   23  CA  UNL     1      -8.445  12.351  67.627  1.00  0.00    -0.169 C  
HETATM   24  C   UNL     1      -7.434  10.011  67.400  1.00  0.00    -0.091 C  
HETATM   25  C   UNL     1     -11.253  12.235  65.852  1.00  0.00    -0.381 C  
HETATM   26  C   UNL     1      -7.155  12.892  68.930  1.00  0.00    -0.063 C  
HETATM   27  N   UNL     1      -7.596  11.251  66.755  1.00  0.00    -0.147 N  
HETATM   28  O   UNL     1      -7.397   9.654  68.570  1.00  0.00    -0.077 OA 
HETATM   29  S   UNL     1     -10.171  10.821  64.478  1.00  0.00    -0.332 SA 
HETATM   30  C   UNL     1      -8.139  10.517  65.409  1.00  0.00    -0.141 C  
HETATM   31  O   UNL     1      -7.207  14.104  69.319  1.00  0.00    -0.112 OA 
HETATM   32  OXT UNL     1      -6.255  12.029  69.088  1.00  0.00    -0.072 OA 
HETATM   33  CA  UNL     1      -8.016   9.184  66.248  1.00  0.00    -0.103 C  
BRANCH  33  34
HETATM   34  N   UNL     1      -9.239   8.413  66.657  1.00  0.00    -0.167 N  
HETATM   35  C   UNL     1      -9.411   7.067  67.012  1.00  0.00    -0.149 C  
HETATM   36  H   UNL     1     -10.097   8.966  66.680  1.00  0.00     0.000 HD 
HETATM   37  O   UNL     1     -10.563   6.772  67.328  1.00  0.00    -0.238 OA 
BRANCH  35  38
HETATM   38  C   UNL     1      -8.291   5.938  67.070  1.00  0.00    -0.105 C  
HETATM   39  C   UNL     1      -7.948   5.142  65.914  1.00  0.00    -0.108 C  
HETATM   40  C   UNL     1      -6.899   3.204  63.716  1.00  0.00    -0.039 C  
HETATM   41  N   UNL     1      -8.671   5.815  64.606  1.00  0.00    -0.008 NA 
HETATM   42  N   UNL     1      -6.010   2.595  62.875  1.00  0.00    -0.009 NA 
HETATM   43  H   UNL     1      -6.284   3.146  66.082  1.00  0.00     0.000 HD 
HETATM   44  S   UNL     1      -8.373   4.607  62.547  1.00  0.00    -0.097 SA 
HETATM   45  H1  UNL     1      -5.369   1.985  63.382  1.00  0.00     0.000 HD 
HETATM   46  H2  UNL     1      -5.990   2.734  61.865  1.00  0.00     0.000 HD 
HETATM   47  N   UNL     1      -6.856   3.650  65.406  1.00  0.00    -0.048 NA 
BRANCH  38  48
HETATM   48  N   UNL     1      -7.489   5.726  68.056  1.00  0.00    -0.077 NA 
HETATM   49  H   UNL     1      -6.482   5.700  67.900  1.00  0.00     0.000 HD 
BRANCH  48  50
HETATM   50  O   UNL     1      -7.995   5.537  69.306  1.00  0.00    -0.092 OA 
HETATM   51  O   UNL     1      -8.411   2.022  69.446  1.00  0.00    -0.048 OA 
HETATM   52  C   UNL     1      -8.592   3.230  69.369  1.00  0.00    -0.067 C  
HETATM   53  C   UNL     1      -7.636   4.363  71.301  1.00  0.00    -0.064 C  
HETATM   54  C   UNL     1      -6.262   3.579  69.093  1.00  0.00    -0.028 C  
HETATM   55  C   UNL     1      -7.535   4.243  69.775  1.00  0.00    -0.050 C  
HETATM   56  O   UNL     1      -9.743   3.768  68.919  1.00  0.00    -0.151 OA 
ENDBRANCH  48  50
ENDBRANCH  38  48
ENDBRANCH  35  38
ENDBRANCH  33  34
ENDBRANCH  21  22
ENDBRANCH   9  21
TORSDOF 11
ENDMDL
MODEL       39
REMARK 921   NORMALIZED FREE ENERGY PREDICTED BY IDOCK:   -4.20 KCAL/MOL
REMARK 922        TOTAL FREE ENERGY PREDICTED BY IDOCK:  -10.69 KCAL/MOL
REMARK 923 INTER-LIGAND FREE ENERGY PREDICTED BY IDOCK:   -8.75 KCAL/MOL
REMARK 924 INTRA-LIGAND FREE ENERGY PREDICTED BY IDOCK:   -1.95 KCAL/MOL
REMARK 927      BINDING AFFINITY PREDICTED BY RF-SCORE:    0.00 PKD
ROOT
HETATM    1  C   UNL     1     -10.882   7.133  73.407  1.00  0.00    -0.319 C  
HETATM    2  N   UNL     1      -9.824   6.428  72.712  1.00  0.00    -0.169 NA 
HETATM    3  C   UNL     1      -9.792   5.057  72.512  1.00  0.00    -0.159 A  
HETATM    4  C   UNL     1      -8.460   4.588  72.531  1.00  0.00    -0.114 A  
HETATM    5  N   UNL     1     -10.869   4.249  72.361  1.00  0.00    -0.007 NA 
HETATM    6  C   UNL     1      -7.727   5.792  72.834  1.00  0.00    -0.097 A  
HETATM    7  H2  UNL     1     -11.788   4.690  72.398  1.00  0.00     0.000 HD 
HETATM    8  H1  UNL     1     -10.846   3.240  72.214  1.00  0.00     0.000 HD 
HETATM    9  N   UNL     1      -8.571   6.905  72.572  1.00  0.00    -0.121 NA 
ENDROOT
BRANCH   4  10
HETATM   10  N   UNL     1      -8.175   3.239  72.413  1.00  0.00    -0.074 N  
HETATM   11  H   UNL     1      -8.082   2.711  73.281  1.00  0.00     0.000 HD 
BRANCH  10  12
HETATM   12  C   UNL     1      -8.005   2.547  71.254  1.00  0.00    -0.043 C  
HETATM   13  O   UNL     1      -6.871   2.317  70.851  1.00  0.00    -0.031 OA 
BRANCH  12  14
HETATM   14  N   UNL     1      -9.145   2.310  70.549  1.00  0.00    -0.093 N  
HETATM   15  H   UNL     1     -10.054   2.337  71.012  1.00  0.00     0.000 HD 
BRANCH  14  16
HETATM   16  C   UNL     1      -9.054   2.017  69.128  1.00  0.00    -0.119 C  
BRANCH  16  17
HETATM   17  C   UNL     1      -9.527   3.185  68.254  1.00  0.00    -0.153 C  
HETATM   18  H2  UNL     1     -10.066   1.961  66.681  1.00  0.00     0.000 HD 
HETATM   19  N   UNL     1      -9.519   2.805  66.849  1.00  0.00    -0.400 NA 
HETATM   20  H1  UNL     1      -9.834   3.582  66.267  1.00  0.00     0.000 HD 
ENDBRANCH  16  17
ENDBRANCH  14  16
ENDBRANCH  12  14
ENDBRANCH  10  12
ENDBRANCH   4  10
BRANCH   9  21
HETATM   21  C   UNL     1      -8.308   8.366  72.411  1.00  0.00    -0.155 C  
BRANCH  21  22
HETATM   22  C   UNL     1      -7.815   8.984  70.824  1.00  0.00    -0.156 C  
HETATM   23  CA  UNL     1      -8.705   9.035  69.126  1.00  0.00    -0.135 C  
HETATM   24  C   UNL     1      -8.946  11.073  67.597  1.00  0.00    -0.142 C  
HETATM   25  C   UNL     1      -6.121   9.752  71.091  1.00  0.00    -0.038 C  
HETATM   26  C   UNL     1     -10.326   8.243  68.495  1.00  0.00    -0.199 C  
HETATM   27  N   UNL     1      -8.218   9.888  67.812  1.00  0.00    -0.113 N  
HETATM   28  O   UNL     1     -10.082  11.440  67.868  1.00  0.00    -0.176 OA 
HETATM   29  S   UNL     1      -5.252  10.845  69.327  1.00  0.00    -0.040 SA 
HETATM   30  C   UNL     1      -6.810  10.695  67.702  1.00  0.00    -0.074 C  
HETATM   31  O   UNL     1     -10.611   7.085  68.943  1.00  0.00    -0.206 OA 
HETATM   32  OXT UNL     1     -10.815   8.879  67.527  1.00  0.00    -0.218 OA 
HETATM   33  CA  UNL     1      -7.713  11.984  67.565  1.00  0.00    -0.155 C  
BRANCH  33  34
HETATM   34  N   UNL     1      -7.742  13.025  68.648  1.00  0.00    -0.250 N  
HETATM   35  C   UNL     1      -7.925  14.414  68.592  1.00  0.00    -0.145 C  
HETATM   36  H   UNL     1      -7.604  12.657  69.589  1.00  0.00     0.000 HD 
HETATM   37  O   UNL     1      -7.924  14.968  69.692  1.00  0.00    -0.184 OA 
BRANCH  35  38
HETATM   38  C   UNL     1      -8.155  15.303  67.291  1.00  0.00    -0.201 C  
HETATM   39  C   UNL     1      -9.355  15.194  66.494  1.00  0.00    -0.280 C  
HETATM   40  C   UNL     1     -11.737  15.293  64.492  1.00  0.00    -0.305 C  
HETATM   41  N   UNL     1     -10.432  14.281  67.325  1.00  0.00    -0.268 NA 
HETATM   42  N   UNL     1     -12.777  15.816  63.777  1.00  0.00    -0.544 NA 
HETATM   43  H   UNL     1      -9.615  16.482  64.245  1.00  0.00     0.000 HD 
HETATM   44  S   UNL     1     -12.488  13.825  66.164  1.00  0.00    -0.370 SA 
HETATM   45  H1  UNL     1     -12.451  16.454  63.051  1.00  0.00     0.000 HD 
HETATM   46  H2  UNL     1     -13.758  15.597  63.949  1.00  0.00     0.000 HD 
HETATM   47  N   UNL     1     -10.121  15.847  64.862  1.00  0.00    -0.337 NA 
BRANCH  38  48
HETATM   48  N   UNL     1      -7.413  16.285  66.913  1.00  0.00    -0.220 NA 
HETATM   49  H   UNL     1      -6.398  16.183  66.895  1.00  0.00     0.000 HD 
BRANCH  48  50
HETATM   50  O   UNL     1      -7.990  17.460  66.537  1.00  0.00    -0.235 OA 
HETATM   51  O   UNL     1      -7.255  19.589  69.271  1.00  0.00    -0.356 OA 
HETATM   52  C   UNL     1      -7.807  18.859  68.457  1.00  0.00    -0.337 C  
HETATM   53  C   UNL     1      -7.536  19.733  66.201  1.00  0.00    -0.330 C  
HETATM   54  C   UNL     1      -5.703  18.250  67.549  1.00  0.00    -0.151 C  
HETATM   55  C   UNL     1      -7.201  18.538  67.102  1.00  0.00    -0.208 C  
HETATM   56  O   UNL     1      -9.000  18.278  68.692  1.00  0.00    -0.319 OA 
ENDBRANCH  48  50
ENDBRANCH  38  48
ENDBRANCH  35  38
ENDBRANCH  33  34
ENDBRANCH  21  22
ENDBRANCH   9  21
TORSDOF 11
ENDMDL
MODEL       40
REMARK 921   NORMALIZED FREE ENERGY PREDICTED BY IDOCK:   -4.19 KCAL/MOL
REMARK 922        TOTAL FREE ENERGY PREDICTED BY IDOCK:  -10.67 KCAL/MOL
REMARK 923 INTER-LIGAND FREE ENERGY PREDICTED BY IDOCK:   -9.66 KCAL/MOL
REMARK 924 INTRA-LIGAND FREE ENERGY PREDICTED BY IDOCK:   -1.00 KCAL/MOL
REMARK 927      BINDING AFFINITY PREDICTED BY RF-SCORE:    0.00 PKD
ROOT
HETATM    1  C   UNL     1      -8.591   3.987  66.557  1.00  0.00    -0.110 C  
HETATM    2  N   UNL     1      -8.289   3.657  67.935  1.00  0.00    -0.091 NA 
HETATM    3  C   UNL     1      -9.053   2.816  68.727  1.00  0.00    -0.151 A  
HETATM    4  C   UNL     1      -9.016   3.240  70.074  1.00  0.00    -0.106 A  
HETATM    5  N   UNL     1      -9.780   1.757  68.295  1.00  0.00    -0.292 NA 
HETATM    6  C   UNL     1      -8.225   4.443  69.983  1.00  0.00    -0.062 A  
HETATM    7  H2  UNL     1      -9.762   1.560  67.295  1.00  0.00     0.000 HD 
HETATM    8  H1  UNL     1     -10.343   1.138  68.878  1.00  0.00     0.000 HD 
HETATM    9  N   UNL     1      -7.532   4.427  68.743  1.00  0.00    -0.059 NA 
ENDROOT
BRANCH   4  10
HETATM   10  N   UNL     1      -9.754   2.593  71.049  1.00  0.00    -0.136 N  
HETATM   11  H   UNL     1      -9.963   1.608  70.889  1.00  0.00     0.000 HD 
BRANCH  10  12
HETATM   12  C   UNL     1     -10.230   3.141  72.200  1.00  0.00    -0.073 C  
HETATM   13  O   UNL     1     -10.515   2.410  73.141  1.00  0.00    -0.126 OA 
BRANCH  12  14
HETATM   14  N   UNL     1     -10.504   4.473  72.137  1.00  0.00    -0.163 N  
HETATM   15  H   UNL     1     -10.283   5.006  71.297  1.00  0.00     0.000 HD 
BRANCH  14  16
HETATM   16  C   UNL     1     -11.116   5.127  73.283  1.00  0.00    -0.327 C  
BRANCH  16  17
HETATM   17  C   UNL     1     -10.276   6.295  73.813  1.00  0.00    -0.273 C  
HETATM   18  H2  UNL     1     -11.748   7.694  73.438  1.00  0.00     0.000 HD 
HETATM   19  N   UNL     1     -10.753   7.556  73.262  1.00  0.00    -0.393 NA 
HETATM   20  H1  UNL     1     -10.194   8.333  73.615  1.00  0.00     0.000 HD 
ENDBRANCH  16  17
ENDBRANCH  14  16
ENDBRANCH  12  14
ENDBRANCH  10  12
ENDBRANCH   4  10
BRANCH   9  21
HETATM   21  C   UNL     1      -6.376   5.210  68.212  1.00  0.00    -0.036 C  
BRANCH  21  22
HETATM   22  C   UNL     1      -6.442   6.982  68.258  1.00  0.00    -0.044 C  
HETATM   23  CA  UNL     1      -6.566   8.304  66.875  1.00  0.00    -0.057 C  
HETATM   24  C   UNL     1      -8.216  10.259  66.784  1.00  0.00    -0.124 C  
HETATM   25  C   UNL     1      -6.463   7.433  70.081  1.00  0.00    -0.035 C  
HETATM   26  C   UNL     1      -6.430   8.197  64.972  1.00  0.00    -0.048 C  
HETATM   27  N   UNL     1      -6.892   9.896  67.097  1.00  0.00    -0.082 N  
HETATM   28  O   UNL     1      -9.066   9.815  66.023  1.00  0.00    -0.147 OA 
HETATM   29  S   UNL     1      -6.764   9.613  70.547  1.00  0.00    -0.122 SA 
HETATM   30  C   UNL     1      -7.001  10.627  68.546  1.00  0.00    -0.067 C  
HETATM   31  O   UNL     1      -5.596   7.356  64.503  1.00  0.00    -0.032 OA 
HETATM   32  OXT UNL     1      -7.033   9.142  64.403  1.00  0.00    -0.088 OA 
HETATM   33  CA  UNL     1      -8.505  10.901  68.145  1.00  0.00    -0.131 C  
BRANCH  33  34
HETATM   34  N   UNL     1      -9.633  10.225  68.871  1.00  0.00    -0.180 N  
HETATM   35  C   UNL     1     -10.912  10.680  69.225  1.00  0.00    -0.245 C  
HETATM   36  H   UNL     1      -9.434   9.266  69.156  1.00  0.00     0.000 HD 
HETATM   37  O   UNL     1     -11.606   9.839  69.796  1.00  0.00    -0.160 OA 
BRANCH  35  38
HETATM   38  C   UNL     1     -11.533  12.118  68.942  1.00  0.00    -0.297 C  
HETATM   39  C   UNL     1     -11.601  12.672  67.609  1.00  0.00    -0.357 C  
HETATM   40  C   UNL     1     -11.942  14.253  64.950  1.00  0.00    -0.425 C  
HETATM   41  N   UNL     1     -11.226  11.481  66.548  1.00  0.00    -0.309 NA 
HETATM   42  N   UNL     1     -12.574  14.917  63.936  1.00  0.00    -0.977 NA 
HETATM   43  H   UNL     1     -12.405  15.114  67.191  1.00  0.00     0.000 HD 
HETATM   44  S   UNL     1     -11.133  12.166  64.244  1.00  0.00    -0.377 SA 
HETATM   45  H1  UNL     1     -12.926  15.824  64.242  1.00  0.00     0.000 HD 
HETATM   46  H2  UNL     1     -12.681  14.551  62.990  1.00  0.00     0.000 HD 
HETATM   47  N   UNL     1     -12.083  14.285  66.692  1.00  0.00    -0.436 NA 
BRANCH  38  48
HETATM   48  N   UNL     1     -12.163  12.845  69.798  1.00  0.00    -0.216 NA 
HETATM   49  H   UNL     1     -13.095  12.575  70.112  1.00  0.00     0.000 HD 
BRANCH  48  50
HETATM   50  O   UNL     1     -11.577  13.975  70.282  1.00  0.00    -0.251 OA 
HETATM   51  O   UNL     1     -14.309  15.699  71.735  1.00  0.00    -0.448 OA 
HETATM   52  C   UNL     1     -13.398  15.332  71.004  1.00  0.00    -0.474 C  
HETATM   53  C   UNL     1     -11.300  15.237  72.236  1.00  0.00    -0.393 C  
HETATM   54  C   UNL     1     -13.210  13.306  72.223  1.00  0.00    -0.567 C  
HETATM   55  C   UNL     1     -12.311  14.378  71.468  1.00  0.00    -0.353 C  
HETATM   56  O   UNL     1     -13.278  15.745  69.727  1.00  0.00     0.178 OA 
ENDBRANCH  48  50
ENDBRANCH  38  48
ENDBRANCH  35  38
ENDBRANCH  33  34
ENDBRANCH  21  22
ENDBRANCH   9  21
TORSDOF 11
ENDMDL
MODEL       41
REMARK 921   NORMALIZED FREE ENERGY PREDICTED BY IDOCK:   -4.16 KCAL/MOL
REMARK 922        TOTAL FREE ENERGY PREDICTED BY IDOCK:  -10.61 KCAL/MOL
REMARK 923 INTER-LIGAND FREE ENERGY PREDICTED BY IDOCK:   -8.94 KCAL/MOL
REMARK 924 INTRA-LIGAND FREE ENERGY PREDICTED BY IDOCK:   -1.67 KCAL/MOL
REMARK 927      BINDING AFFINITY PREDICTED BY RF-SCORE:    0.00 PKD
ROOT
HETATM    1  C   UNL     1     -13.264  14.457  72.948  1.00  0.00    -0.517 C  
HETATM    2  N   UNL     1     -12.440  14.431  71.757  1.00  0.00    -0.346 NA 
HETATM    3  C   UNL     1     -11.862  15.548  71.176  1.00  0.00    -0.387 A  
HETATM    4  C   UNL     1     -11.799  15.396  69.772  1.00  0.00    -0.347 A  
HETATM    5  N   UNL     1     -11.446  16.660  71.828  1.00  0.00    -0.393 NA 
HETATM    6  C   UNL     1     -12.459  14.128  69.582  1.00  0.00    -0.161 A  
HETATM    7  H2  UNL     1     -11.570  16.677  72.840  1.00  0.00     0.000 HD 
HETATM    8  H1  UNL     1     -11.021  17.483  71.401  1.00  0.00     0.000 HD 
HETATM    9  N   UNL     1     -12.489  13.451  70.832  1.00  0.00    -0.371 NA 
ENDROOT
BRANCH   4  10
HETATM   10  N   UNL     1     -11.316  16.410  68.964  1.00  0.00    -0.294 N  
HETATM   11  H   UNL     1     -12.005  16.940  68.430  1.00  0.00     0.000 HD 
BRANCH  10  12
HETATM   12  C   UNL     1     -10.013  16.770  68.810  1.00  0.00    -0.269 C  
HETATM   13  O   UNL     1      -9.728  17.954  68.674  1.00  0.00    -0.328 OA 
BRANCH  12  14
HETATM   14  N   UNL     1      -9.141  15.736  68.655  1.00  0.00    -0.193 N  
HETATM   15  H   UNL     1      -9.074  15.006  69.364  1.00  0.00     0.000 HD 
BRANCH  14  16
HETATM   16  C   UNL     1      -8.306  15.684  67.466  1.00  0.00    -0.169 C  
BRANCH  16  17
HETATM   17  C   UNL     1      -6.823  15.920  67.777  1.00  0.00    -0.153 C  
HETATM   18  H2  UNL     1      -6.656  17.484  66.439  1.00  0.00     0.000 HD 
HETATM   19  N   UNL     1      -6.175  16.615  66.674  1.00  0.00    -0.296 NA 
HETATM   20  H1  UNL     1      -5.189  16.772  66.881  1.00  0.00     0.000 HD 
ENDBRANCH  16  17
ENDBRANCH  14  16
ENDBRANCH  12  14
ENDBRANCH  10  12
ENDBRANCH   4  10
BRANCH   9  21
HETATM   21  C   UNL     1     -12.759  12.033  71.215  1.00  0.00    -0.279 C  
BRANCH  21  22
HETATM   22  C   UNL     1     -12.096  10.729  70.212  1.00  0.00    -0.433 C  
HETATM   23  CA  UNL     1     -11.366  10.709  68.439  1.00  0.00    -0.283 C  
HETATM   24  C   UNL     1      -9.148   9.655  67.719  1.00  0.00    -0.124 C  
HETATM   25  C   UNL     1     -12.135   9.196  71.297  1.00  0.00    -0.392 C  
HETATM   26  C   UNL     1     -11.308  12.024  67.053  1.00  0.00    -0.336 C  
HETATM   27  N   UNL     1     -10.543   9.467  67.754  1.00  0.00    -0.263 N  
HETATM   28  O   UNL     1      -8.419  10.637  67.686  1.00  0.00    -0.118 OA 
HETATM   29  S   UNL     1     -11.161   7.361  70.435  1.00  0.00    -0.257 SA 
HETATM   30  C   UNL     1     -10.359   7.996  68.424  1.00  0.00    -0.199 C  
HETATM   31  O   UNL     1     -12.319  12.792  66.948  1.00  0.00    -0.412 OA 
HETATM   32  OXT UNL     1     -10.356  11.826  66.256  1.00  0.00    -0.213 OA 
HETATM   33  CA  UNL     1      -8.817   8.339  68.432  1.00  0.00    -0.137 C  
BRANCH  33  34
HETATM   34  N   UNL     1      -8.081   8.556  69.724  1.00  0.00    -0.113 N  
HETATM   35  C   UNL     1      -7.588   7.649  70.673  1.00  0.00    -0.080 C  
HETATM   36  H   UNL     1      -7.910   9.536  69.950  1.00  0.00     0.000 HD 
HETATM   37  O   UNL     1      -6.997   8.177  71.615  1.00  0.00    -0.061 OA 
BRANCH  35  38
HETATM   38  C   UNL     1      -7.693   6.061  70.631  1.00  0.00    -0.101 C  
HETATM   39  C   UNL     1      -7.142   5.287  69.543  1.00  0.00    -0.060 C  
HETATM   40  C   UNL     1      -6.131   3.236  67.431  1.00  0.00    -0.028 C  
HETATM   41  N   UNL     1      -6.215   6.286  68.633  1.00  0.00    -0.034 NA 
HETATM   42  N   UNL     1      -5.440   2.174  66.918  1.00  0.00    -0.016 NA 
HETATM   43  H   UNL     1      -7.525   2.717  69.372  1.00  0.00     0.000 HD 
HETATM   44  S   UNL     1      -5.271   5.281  66.662  1.00  0.00    -0.009 SA 
HETATM   45  H1  UNL     1      -5.814   1.286  67.252  1.00  0.00     0.000 HD 
HETATM   46  H2  UNL     1      -4.650   2.260  66.279  1.00  0.00     0.000 HD 
HETATM   47  N   UNL     1      -7.057   3.486  68.893  1.00  0.00    -0.049 NA 
BRANCH  38  48
HETATM   48  N   UNL     1      -8.113   5.312  71.591  1.00  0.00    -0.114 NA 
HETATM   49  H   UNL     1      -9.075   5.394  71.922  1.00  0.00     0.000 HD 
BRANCH  48  50
HETATM   50  O   UNL     1      -7.267   4.409  72.160  1.00  0.00    -0.058 OA 
HETATM   51  O   UNL     1      -9.395   2.649  74.378  1.00  0.00    -0.080 OA 
HETATM   52  C   UNL     1      -8.552   3.390  73.889  1.00  0.00    -0.081 C  
HETATM   53  C   UNL     1      -6.974   2.117  72.542  1.00  0.00    -0.023 C  
HETATM   54  C   UNL     1      -9.417   2.972  71.720  1.00  0.00    -0.209 C  
HETATM   55  C   UNL     1      -8.037   3.219  72.470  1.00  0.00    -0.068 C  
HETATM   56  O   UNL     1      -8.006   4.419  74.566  1.00  0.00    -0.086 OA 
ENDBRANCH  48  50
ENDBRANCH  38  48
ENDBRANCH  35  38
ENDBRANCH  33  34
ENDBRANCH  21  22
ENDBRANCH   9  21
TORSDOF 11
ENDMDL
MODEL       42
REMARK 921   NORMALIZED FREE ENERGY PREDICTED BY IDOCK:   -4.12 KCAL/MOL
REMARK 922        TOTAL FREE ENERGY PREDICTED BY IDOCK:  -10.55 KCAL/MOL
REMARK 923 INTER-LIGAND FREE ENERGY PREDICTED BY IDOCK:   -8.51 KCAL/MOL
REMARK 924 INTRA-LIGAND FREE ENERGY PREDICTED BY IDOCK:   -2.05 KCAL/MOL
REMARK 927      BINDING AFFINITY PREDICTED BY RF-SCORE:    0.00 PKD
ROOT
HETATM    1  C   UNL     1     -12.254  13.412  66.941  1.00  0.00    -0.289 C  
HETATM    2  N   UNL     1     -11.225  14.331  66.499  1.00  0.00    -0.323 NA 
HETATM    3  C   UNL     1     -10.943  15.545  67.104  1.00  0.00    -0.295 A  
HETATM    4  C   UNL     1     -10.520  16.489  66.140  1.00  0.00    -0.294 A  
HETATM    5  N   UNL     1     -11.083  15.831  68.421  1.00  0.00    -0.323 NA 
HETATM    6  C   UNL     1     -10.654  15.740  64.915  1.00  0.00    -0.284 A  
HETATM    7  H2  UNL     1     -11.429  15.084  69.023  1.00  0.00     0.000 HD 
HETATM    8  H1  UNL     1     -10.875  16.724  68.866  1.00  0.00     0.000 HD 
HETATM    9  N   UNL     1     -10.733  14.359  65.243  1.00  0.00    -0.349 NA 
ENDROOT
BRANCH   4  10
HETATM   10  N   UNL     1     -10.239  17.796  66.495  1.00  0.00    -0.347 N  
HETATM   11  H   UNL     1     -10.951  18.494  66.280  1.00  0.00     0.000 HD 
BRANCH  10  12
HETATM   12  C   UNL     1      -9.106  18.244  67.101  1.00  0.00    -0.264 C  
HETATM   13  O   UNL     1      -8.384  17.448  67.688  1.00  0.00    -0.207 OA 
BRANCH  12  14
HETATM   14  N   UNL     1      -8.965  19.598  67.138  1.00  0.00    -0.304 N  
HETATM   15  H   UNL     1      -9.613  20.198  66.628  1.00  0.00     0.000 HD 
BRANCH  14  16
HETATM   16  C   UNL     1      -7.880  20.178  67.911  1.00  0.00    -0.242 C  
BRANCH  16  17
HETATM   17  C   UNL     1      -6.859  20.913  67.034  1.00  0.00    -0.333 C  
HETATM   18  H2  UNL     1      -8.026  20.779  65.336  1.00  0.00     0.000 HD 
HETATM   19  N   UNL     1      -7.067  20.590  65.630  1.00  0.00    -0.494 NA 
HETATM   20  H1  UNL     1      -6.389  21.079  65.046  1.00  0.00     0.000 HD 
ENDBRANCH  16  17
ENDBRANCH  14  16
ENDBRANCH  12  14
ENDBRANCH  10  12
ENDBRANCH   4  10
BRANCH   9  21
HETATM   21  C   UNL     1     -10.588  13.111  64.437  1.00  0.00    -0.421 C  
BRANCH  21  22
HETATM   22  C   UNL     1      -9.501  11.834  65.015  1.00  0.00    -0.080 C  
HETATM   23  CA  UNL     1      -8.508  11.624  66.641  1.00  0.00    -0.165 C  
HETATM   24  C   UNL     1      -8.460   9.548  68.136  1.00  0.00    -0.119 C  
HETATM   25  C   UNL     1      -9.531  10.512  63.681  1.00  0.00    -0.347 C  
HETATM   26  C   UNL     1      -8.156  12.808  68.100  1.00  0.00    -0.158 C  
HETATM   27  N   UNL     1      -7.760  10.251  67.138  1.00  0.00    -0.092 N  
HETATM   28  O   UNL     1      -9.252   9.869  69.013  1.00  0.00    -0.150 OA 
HETATM   29  S   UNL     1      -8.428   8.611  64.160  1.00  0.00    -0.008 SA 
HETATM   30  C   UNL     1      -7.613   8.900  66.244  1.00  0.00    -0.095 C  
HETATM   31  O   UNL     1      -7.999  14.039  67.814  1.00  0.00    -0.141 OA 
HETATM   32  OXT UNL     1      -7.899  12.184  69.161  1.00  0.00     0.091 OA 
HETATM   33  CA  UNL     1      -8.489   8.221  67.370  1.00  0.00    -0.125 C  
BRANCH  33  34
HETATM   34  N   UNL     1      -9.888   7.754  67.084  1.00  0.00    -0.185 N  
HETATM   35  C   UNL     1     -10.452   6.470  67.067  1.00  0.00    -0.295 C  
HETATM   36  H   UNL     1     -10.544   8.504  66.863  1.00  0.00     0.000 HD 
HETATM   37  O   UNL     1     -11.658   6.451  66.820  1.00  0.00     0.048 OA 
BRANCH  35  38
HETATM   38  C   UNL     1      -9.711   5.091  67.354  1.00  0.00    -0.158 C  
HETATM   39  C   UNL     1      -9.490   4.607  68.697  1.00  0.00    -0.152 C  
HETATM   40  C   UNL     1      -8.793   3.193  71.381  1.00  0.00    -0.085 C  
HETATM   41  N   UNL     1     -10.362   5.544  69.720  1.00  0.00    -0.270 NA 
HETATM   42  N   UNL     1      -8.774   2.217  72.337  1.00  0.00    -0.065 NA 
HETATM   43  H   UNL     1      -8.075   2.470  69.158  1.00  0.00     0.000 HD 
HETATM   44  S   UNL     1     -10.076   5.039  72.054  1.00  0.00    -0.201 SA 
HETATM   45  H1  UNL     1      -8.217   1.414  72.045  1.00  0.00     0.000 HD 
HETATM   46  H2  UNL     1      -9.258   2.283  73.233  1.00  0.00     0.000 HD 
HETATM   47  N   UNL     1      -8.614   3.188  69.642  1.00  0.00    -0.061 NA 
BRANCH  38  48
HETATM   48  N   UNL     1      -9.386   4.215  66.467  1.00  0.00    -0.160 NA 
HETATM   49  H   UNL     1      -9.741   3.261  66.534  1.00  0.00     0.000 HD 
BRANCH  48  50
HETATM   50  O   UNL     1      -8.566   4.570  65.439  1.00  0.00    -0.119 OA 
HETATM   51  O   UNL     1      -9.397   2.205  62.937  1.00  0.00    -0.090 OA 
HETATM   52  C   UNL     1      -8.843   2.838  63.826  1.00  0.00    -0.092 C  
HETATM   53  C   UNL     1      -8.572   5.169  63.175  1.00  0.00    -0.091 C  
HETATM   54  C   UNL     1     -10.830   4.073  64.212  1.00  0.00    -0.149 C  
HETATM   55  C   UNL     1      -9.251   4.252  64.200  1.00  0.00    -0.150 C  
HETATM   56  O   UNL     1      -7.821   2.338  64.548  1.00  0.00    -0.071 OA 
ENDBRANCH  48  50
ENDBRANCH  38  48
ENDBRANCH  35  38
ENDBRANCH  33  34
ENDBRANCH  21  22
ENDBRANCH   9  21
TORSDOF 11
ENDMDL
MODEL       43
REMARK 921   NORMALIZED FREE ENERGY PREDICTED BY IDOCK:   -4.11 KCAL/MOL
REMARK 922        TOTAL FREE ENERGY PREDICTED BY IDOCK:  -10.54 KCAL/MOL
REMARK 923 INTER-LIGAND FREE ENERGY PREDICTED BY IDOCK:   -8.40 KCAL/MOL
REMARK 924 INTRA-LIGAND FREE ENERGY PREDICTED BY IDOCK:   -2.15 KCAL/MOL
REMARK 927      BINDING AFFINITY PREDICTED BY RF-SCORE:    0.00 PKD
ROOT
HETATM    1  C   UNL     1     -11.980  15.446  68.160  1.00  0.00    -0.030 C  
HETATM    2  N   UNL     1     -10.601  15.586  68.580  1.00  0.00    -0.236 NA 
HETATM    3  C   UNL     1      -9.941  16.796  68.719  1.00  0.00    -0.269 A  
HETATM    4  C   UNL     1      -8.574  16.652  68.392  1.00  0.00    -0.221 A  
HETATM    5  N   UNL     1     -10.505  17.976  69.074  1.00  0.00    -0.414 NA 
HETATM    6  C   UNL     1      -8.513  15.271  67.979  1.00  0.00    -0.147 A  
HETATM    7  H2  UNL     1     -11.509  17.973  69.255  1.00  0.00     0.000 HD 
HETATM    8  H1  UNL     1     -10.020  18.866  69.175  1.00  0.00     0.000 HD 
HETATM    9  N   UNL     1      -9.677  14.611  68.460  1.00  0.00    -0.220 NA 
ENDROOT
BRANCH   4  10
HETATM   10  N   UNL     1      -7.718  17.739  68.395  1.00  0.00    -0.269 N  
HETATM   11  H   UNL     1      -7.739  18.338  69.221  1.00  0.00     0.000 HD 
BRANCH  10  12
HETATM   12  C   UNL     1      -6.852  18.090  67.407  1.00  0.00    -0.190 C  
HETATM   13  O   UNL     1      -5.786  17.496  67.302  1.00  0.00    -0.120 OA 
BRANCH  12  14
HETATM   14  N   UNL     1      -7.192  19.209  66.709  1.00  0.00    -0.207 N  
HETATM   15  H   UNL     1      -6.673  19.472  65.872  1.00  0.00     0.000 HD 
BRANCH  14  16
HETATM   16  C   UNL     1      -8.304  20.023  67.171  1.00  0.00    -0.332 C  
BRANCH  16  17
HETATM   17  C   UNL     1      -9.451  20.085  66.155  1.00  0.00    -0.350 C  
HETATM   18  H2  UNL     1     -10.367  18.386  66.889  1.00  0.00     0.000 HD 
HETATM   19  N   UNL     1     -10.062  18.773  65.996  1.00  0.00    -0.535 NA 
HETATM   20  H1  UNL     1     -10.825  18.814  65.321  1.00  0.00     0.000 HD 
ENDBRANCH  16  17
ENDBRANCH  14  16
ENDBRANCH  12  14
ENDBRANCH  10  12
ENDBRANCH   4  10
BRANCH   9  21
HETATM   21  C   UNL     1     -10.041  13.171  68.611  1.00  0.00    -0.139 C  
BRANCH  21  22
HETATM   22  C   UNL     1      -9.095  11.948  67.743  1.00  0.00    -0.180 C  
HETATM   23  CA  UNL     1      -7.679  10.779  68.298  1.00  0.00    -0.109 C  
HETATM   24  C   UNL     1      -7.544   8.256  67.892  1.00  0.00    -0.102 C  
HETATM   25  C   UNL     1      -9.822  11.890  66.012  1.00  0.00    -0.258 C  
HETATM   26  C   UNL     1      -6.641  10.680  69.899  1.00  0.00    -0.137 C  
HETATM   27  N   UNL     1      -7.092   9.510  67.441  1.00  0.00    -0.085 N  
HETATM   28  O   UNL     1      -7.923   7.822  68.972  1.00  0.00    -0.118 OA 
HETATM   29  S   UNL     1      -9.014  10.281  64.663  1.00  0.00    -0.230 SA 
HETATM   30  C   UNL     1      -7.516   9.148  65.913  1.00  0.00    -0.094 C  
HETATM   31  O   UNL     1      -6.351  11.785  70.464  1.00  0.00    -0.240 OA 
HETATM   32  OXT UNL     1      -6.174   9.528  70.087  1.00  0.00    -0.049 OA 
HETATM   33  CA  UNL     1      -8.084   7.809  66.529  1.00  0.00    -0.111 C  
BRANCH  33  34
HETATM   34  N   UNL     1      -9.561   7.537  66.557  1.00  0.00    -0.287 N  
HETATM   35  C   UNL     1     -10.291   6.433  67.020  1.00  0.00    -0.244 C  
HETATM   36  H   UNL     1     -10.134   8.288  66.171  1.00  0.00     0.000 HD 
HETATM   37  O   UNL     1     -11.512   6.557  66.919  1.00  0.00    -0.212 OA 
BRANCH  35  38
HETATM   38  C   UNL     1      -9.711   5.099  67.666  1.00  0.00    -0.148 C  
HETATM   39  C   UNL     1      -9.832   4.818  69.078  1.00  0.00    -0.168 C  
HETATM   40  C   UNL     1      -9.847   3.810  72.023  1.00  0.00    -0.173 C  
HETATM   41  N   UNL     1     -10.864   5.915  69.724  1.00  0.00    -0.350 NA 
HETATM   42  N   UNL     1     -10.101   2.989  73.086  1.00  0.00    -0.126 NA 
HETATM   43  H   UNL     1      -8.677   2.748  70.157  1.00  0.00     0.000 HD 
HETATM   44  S   UNL     1     -11.149   5.762  72.108  1.00  0.00    -0.259 SA 
HETATM   45  H1  UNL     1      -9.536   2.141  73.050  1.00  0.00     0.000 HD 
HETATM   46  H2  UNL     1     -10.774   3.199  73.824  1.00  0.00     0.000 HD 
HETATM   47  N   UNL     1      -9.274   3.541  70.394  1.00  0.00    -0.132 NA 
BRANCH  38  48
HETATM   48  N   UNL     1      -9.239   4.093  67.014  1.00  0.00    -0.144 NA 
HETATM   49  H   UNL     1      -8.488   3.531  67.413  1.00  0.00     0.000 HD 
BRANCH  48  50
HETATM   50  O   UNL     1      -9.749   3.786  65.789  1.00  0.00    -0.179 OA 
HETATM   51  O   UNL     1      -6.868   3.795  63.729  1.00  0.00    -0.042 OA 
HETATM   52  C   UNL     1      -7.921   4.074  64.289  1.00  0.00    -0.086 C  
HETATM   53  C   UNL     1      -9.539   2.276  64.011  1.00  0.00    -0.137 C  
HETATM   54  C   UNL     1      -7.560   2.343  65.870  1.00  0.00    -0.068 C  
HETATM   55  C   UNL     1      -8.733   3.049  65.062  1.00  0.00    -0.112 C  
HETATM   56  O   UNL     1      -8.452   5.312  64.266  1.00  0.00    -0.136 OA 
ENDBRANCH  48  50
ENDBRANCH  38  48
ENDBRANCH  35  38
ENDBRANCH  33  34
ENDBRANCH  21  22
ENDBRANCH   9  21
TORSDOF 11
ENDMDL
MODEL       44
REMARK 921   NORMALIZED FREE ENERGY PREDICTED BY IDOCK:   -4.11 KCAL/MOL
REMARK 922        TOTAL FREE ENERGY PREDICTED BY IDOCK:  -10.54 KCAL/MOL
REMARK 923 INTER-LIGAND FREE ENERGY PREDICTED BY IDOCK:   -8.56 KCAL/MOL
REMARK 924 INTRA-LIGAND FREE ENERGY PREDICTED BY IDOCK:   -1.98 KCAL/MOL
REMARK 927      BINDING AFFINITY PREDICTED BY RF-SCORE:    0.00 PKD
ROOT
HETATM    1  C   UNL     1     -10.923   6.102  66.897  1.00  0.00    -0.305 C  
HETATM    2  N   UNL     1      -9.783   5.215  66.790  1.00  0.00    -0.149 NA 
HETATM    3  C   UNL     1      -9.097   4.953  65.615  1.00  0.00    -0.151 A  
HETATM    4  C   UNL     1      -8.617   3.624  65.611  1.00  0.00    -0.113 A  
HETATM    5  N   UNL     1      -8.932   5.812  64.581  1.00  0.00    -0.353 NA 
HETATM    6  C   UNL     1      -9.147   3.114  66.852  1.00  0.00    -0.171 A  
HETATM    7  H2  UNL     1      -9.350   6.737  64.676  1.00  0.00     0.000 HD 
HETATM    8  H1  UNL     1      -8.427   5.620  63.716  1.00  0.00     0.000 HD 
HETATM    9  N   UNL     1      -9.523   4.220  67.663  1.00  0.00    -0.165 NA 
ENDROOT
BRANCH   4  10
HETATM   10  N   UNL     1      -7.951   3.107  64.514  1.00  0.00    -0.082 N  
HETATM   11  H   UNL     1      -7.172   2.477  64.704  1.00  0.00     0.000 HD 
BRANCH  10  12
HETATM   12  C   UNL     1      -8.232   3.357  63.207  1.00  0.00    -0.085 C  
HETATM   13  O   UNL     1      -9.358   3.133  62.780  1.00  0.00    -0.091 OA 
BRANCH  12  14
HETATM   14  N   UNL     1      -7.158   3.687  62.437  1.00  0.00    -0.035 N  
HETATM   15  H   UNL     1      -7.251   3.752  61.423  1.00  0.00     0.000 HD 
BRANCH  14  16
HETATM   16  C   UNL     1      -5.879   3.947  63.076  1.00  0.00    -0.014 C  
BRANCH  16  17
HETATM   17  C   UNL     1      -5.744   5.397  63.557  1.00  0.00    -0.014 C  
HETATM   18  H2  UNL     1      -4.812   4.864  65.320  1.00  0.00     0.000 HD 
HETATM   19  N   UNL     1      -5.591   5.442  65.003  1.00  0.00    -0.016 NA 
HETATM   20  H1  UNL     1      -5.501   6.406  65.324  1.00  0.00     0.000 HD 
ENDBRANCH  16  17
ENDBRANCH  14  16
ENDBRANCH  12  14
ENDBRANCH  10  12
ENDBRANCH   4  10
BRANCH   9  21
HETATM   21  C   UNL     1      -9.845   4.354  69.115  1.00  0.00    -0.128 C  
BRANCH  21  22
HETATM   22  C   UNL     1      -9.702   5.945  69.885  1.00  0.00    -0.208 C  
HETATM   23  CA  UNL     1      -8.217   7.138  70.116  1.00  0.00    -0.135 C  
HETATM   24  C   UNL     1      -8.178   9.638  69.574  1.00  0.00    -0.136 C  
HETATM   25  C   UNL     1     -11.441   6.392  70.436  1.00  0.00    -0.458 C  
HETATM   26  C   UNL     1      -6.342   6.937  69.808  1.00  0.00    -0.039 C  
HETATM   27  N   UNL     1      -8.309   8.698  70.613  1.00  0.00    -0.129 N  
HETATM   28  O   UNL     1      -7.622   9.635  68.483  1.00  0.00    -0.079 OA 
HETATM   29  S   UNL     1     -11.702   8.463  71.274  1.00  0.00    -0.290 SA 
HETATM   30  C   UNL     1      -9.665   9.424  71.142  1.00  0.00    -0.187 C  
HETATM   31  O   UNL     1      -5.840   5.791  70.048  1.00  0.00    -0.022 OA 
HETATM   32  OXT UNL     1      -5.777   8.043  69.611  1.00  0.00    -0.026 OA 
HETATM   33  CA  UNL     1      -9.487  10.370  69.890  1.00  0.00     0.099 C  
BRANCH  33  34
HETATM   34  N   UNL     1     -10.459  10.327  68.745  1.00  0.00    -0.191 N  
HETATM   35  C   UNL     1     -11.148  11.349  68.076  1.00  0.00    -0.257 C  
HETATM   36  H   UNL     1     -10.651   9.389  68.392  1.00  0.00     0.000 HD 
HETATM   37  O   UNL     1     -11.853  10.957  67.145  1.00  0.00    -0.310 OA 
BRANCH  35  38
HETATM   38  C   UNL     1     -11.084  12.910  68.378  1.00  0.00    -0.262 C  
HETATM   39  C   UNL     1     -11.806  13.505  69.479  1.00  0.00    -0.334 C  
HETATM   40  C   UNL     1     -13.180  15.206  71.695  1.00  0.00    -0.409 C  
HETATM   41  N   UNL     1     -12.379  12.293  70.421  1.00  0.00    -0.274 NA 
HETATM   42  N   UNL     1     -13.294  16.050  72.764  1.00  0.00    -0.469 NA 
HETATM   43  H   UNL     1     -11.879  16.086  69.821  1.00  0.00     0.000 HD 
HETATM   44  S   UNL     1     -13.743  13.001  72.271  1.00  0.00    -0.390 SA 
HETATM   45  H1  UNL     1     -13.049  17.008  72.514  1.00  0.00     0.000 HD 
HETATM   46  H2  UNL     1     -13.587  15.758  73.696  1.00  0.00     0.000 HD 
HETATM   47  N   UNL     1     -12.210  15.218  70.240  1.00  0.00    -0.340 NA 
BRANCH  38  48
HETATM   48  N   UNL     1     -10.294  13.753  67.808  1.00  0.00    -0.238 NA 
HETATM   49  H   UNL     1     -10.256  13.812  66.791  1.00  0.00     0.000 HD 
BRANCH  48  50
HETATM   50  O   UNL     1      -9.512  14.565  68.572  1.00  0.00    -0.202 OA 
HETATM   51  O   UNL     1      -7.824  16.516  66.145  1.00  0.00    -0.291 OA 
HETATM   52  C   UNL     1      -8.116  15.698  67.008  1.00  0.00    -0.241 C  
HETATM   53  C   UNL     1      -9.004  16.815  68.980  1.00  0.00    -0.188 C  
HETATM   54  C   UNL     1     -10.416  16.210  66.741  1.00  0.00    -0.294 C  
HETATM   55  C   UNL     1      -9.363  15.824  67.866  1.00  0.00    -0.200 C  
HETATM   56  O   UNL     1      -7.357  14.616  67.272  1.00  0.00    -0.193 OA 
ENDBRANCH  48  50
ENDBRANCH  38  48
ENDBRANCH  35  38
ENDBRANCH  33  34
ENDBRANCH  21  22
ENDBRANCH   9  21
TORSDOF 11
ENDMDL
MODEL       45
REMARK 921   NORMALIZED FREE ENERGY PREDICTED BY IDOCK:   -4.07 KCAL/MOL
REMARK 922        TOTAL FREE ENERGY PREDICTED BY IDOCK:  -10.48 KCAL/MOL
REMARK 923 INTER-LIGAND FREE ENERGY PREDICTED BY IDOCK:   -8.61 KCAL/MOL
REMARK 924 INTRA-LIGAND FREE ENERGY PREDICTED BY IDOCK:   -1.87 KCAL/MOL
REMARK 927      BINDING AFFINITY PREDICTED BY RF-SCORE:    0.00 PKD
ROOT
HETATM    1  C   UNL     1      -8.716   5.022  64.635  1.00  0.00    -0.141 C  
HETATM    2  N   UNL     1      -7.779   5.387  65.678  1.00  0.00    -0.089 NA 
HETATM    3  C   UNL     1      -7.177   4.489  66.544  1.00  0.00    -0.080 A  
HETATM    4  C   UNL     1      -6.974   5.084  67.809  1.00  0.00    -0.061 A  
HETATM    5  N   UNL     1      -6.856   3.203  66.261  1.00  0.00    -0.051 NA 
HETATM    6  C   UNL     1      -7.578   6.381  67.625  1.00  0.00    -0.101 A  
HETATM    7  H2  UNL     1      -7.079   2.865  65.325  1.00  0.00     0.000 HD 
HETATM    8  H1  UNL     1      -6.413   2.541  66.898  1.00  0.00     0.000 HD 
HETATM    9  N   UNL     1      -7.712   6.616  66.230  1.00  0.00    -0.096 NA 
ENDROOT
BRANCH   4  10
HETATM   10  N   UNL     1      -6.441   4.363  68.862  1.00  0.00    -0.039 N  
HETATM   11  H   UNL     1      -6.003   3.471  68.634  1.00  0.00     0.000 HD 
BRANCH  10  12
HETATM   12  C   UNL     1      -6.445   4.725  70.174  1.00  0.00    -0.035 C  
HETATM   13  O   UNL     1      -5.453   5.262  70.652  1.00  0.00    -0.004 OA 
BRANCH  12  14
HETATM   14  N   UNL     1      -7.520   4.296  70.891  1.00  0.00    -0.050 N  
HETATM   15  H   UNL     1      -7.514   3.375  71.328  1.00  0.00     0.000 HD 
BRANCH  14  16
HETATM   16  C   UNL     1      -8.677   5.166  71.024  1.00  0.00    -0.128 C  
BRANCH  16  17
HETATM   17  C   UNL     1      -8.426   6.336  71.983  1.00  0.00    -0.123 C  
HETATM   18  H2  UNL     1      -9.685   7.614  70.960  1.00  0.00     0.000 HD 
HETATM   19  N   UNL     1      -8.736   7.601  71.334  1.00  0.00    -0.122 NA 
HETATM   20  H1  UNL     1      -8.570   8.380  71.971  1.00  0.00     0.000 HD 
ENDBRANCH  16  17
ENDBRANCH  14  16
ENDBRANCH  12  14
ENDBRANCH  10  12
ENDBRANCH   4  10
BRANCH   9  21
HETATM   21  C   UNL     1      -7.980   7.845  65.426  1.00  0.00    -0.123 C  
BRANCH  21  22
HETATM   22  C   UNL     1      -9.234   8.975  65.971  1.00  0.00    -0.284 C  
HETATM   23  CA  UNL     1     -10.458   8.929  67.447  1.00  0.00    -0.277 C  
HETATM   24  C   UNL     1     -10.877  10.808  69.133  1.00  0.00    -0.237 C  
HETATM   25  C   UNL     1      -9.123  10.444  64.806  1.00  0.00    -0.247 C  
HETATM   26  C   UNL     1     -10.915   7.562  68.702  1.00  0.00     0.102 C  
HETATM   27  N   UNL     1     -11.373  10.184  67.973  1.00  0.00    -0.192 N  
HETATM   28  O   UNL     1     -10.191  10.436  70.077  1.00  0.00    -0.219 OA 
HETATM   29  S   UNL     1     -10.429  12.202  65.320  1.00  0.00    -0.285 SA 
HETATM   30  C   UNL     1     -11.500  11.619  67.218  1.00  0.00    -0.277 C  
HETATM   31  O   UNL     1     -10.933   6.365  68.265  1.00  0.00    -0.293 OA 
HETATM   32  OXT UNL     1     -11.365   8.040  69.774  1.00  0.00    -0.062 OA 
HETATM   33  CA  UNL     1     -10.846  12.215  68.527  1.00  0.00    -0.236 C  
BRANCH  33  34
HETATM   34  N   UNL     1      -9.462  12.799  68.501  1.00  0.00    -0.381 N  
HETATM   35  C   UNL     1      -8.998  14.096  68.761  1.00  0.00    -0.065 C  
HETATM   36  H   UNL     1      -8.730  12.133  68.251  1.00  0.00     0.000 HD 
HETATM   37  O   UNL     1      -7.776  14.222  68.679  1.00  0.00    -0.126 OA 
BRANCH  35  38
HETATM   38  C   UNL     1      -9.870  15.366  69.165  1.00  0.00    -0.247 C  
HETATM   39  C   UNL     1      -9.589  16.683  68.642  1.00  0.00    -0.248 C  
HETATM   40  C   UNL     1      -9.352  19.668  67.791  1.00  0.00    -0.337 C  
HETATM   41  N   UNL     1      -8.494  16.523  67.433  1.00  0.00    -0.174 NA 
HETATM   42  N   UNL     1      -9.719  20.872  67.259  1.00  0.00    -0.615 NA 
HETATM   43  H   UNL     1     -10.873  18.785  69.490  1.00  0.00     0.000 HD 
HETATM   44  S   UNL     1      -7.742  18.592  66.463  1.00  0.00    -0.265 SA 
HETATM   45  H1  UNL     1     -10.418  21.340  67.836  1.00  0.00     0.000 HD 
HETATM   46  H2  UNL     1      -9.340  21.256  66.394  1.00  0.00     0.000 HD 
HETATM   47  N   UNL     1     -10.150  18.507  68.826  1.00  0.00    -0.384 NA 
BRANCH  38  48
HETATM   48  N   UNL     1     -10.967  15.339  69.838  1.00  0.00    -0.271 NA 
HETATM   49  H   UNL     1     -11.651  16.089  69.734  1.00  0.00     0.000 HD 
BRANCH  48  50
HETATM   50  O   UNL     1     -11.209  14.304  70.690  1.00  0.00    -0.060 OA 
HETATM   51  O   UNL     1     -13.550  15.698  72.954  1.00  0.00    -0.529 OA 
HETATM   52  C   UNL     1     -12.540  15.253  72.424  1.00  0.00    -0.358 C  
HETATM   53  C   UNL     1     -12.934  12.999  71.591  1.00  0.00    -0.417 C  
HETATM   54  C   UNL     1     -13.607  15.296  70.307  1.00  0.00     0.310 C  
HETATM   55  C   UNL     1     -12.580  14.425  71.151  1.00  0.00    -0.352 C  
HETATM   56  O   UNL     1     -11.305  15.455  72.926  1.00  0.00    -0.338 OA 
ENDBRANCH  48  50
ENDBRANCH  38  48
ENDBRANCH  35  38
ENDBRANCH  33  34
ENDBRANCH  21  22
ENDBRANCH   9  21
TORSDOF 11
ENDMDL
MODEL       46
REMARK 921   NORMALIZED FREE ENERGY PREDICTED BY IDOCK:   -4.04 KCAL/MOL
REMARK 922        TOTAL FREE ENERGY PREDICTED BY IDOCK:  -10.43 KCAL/MOL
REMARK 923 INTER-LIGAND FREE ENERGY PREDICTED BY IDOCK:   -9.12 KCAL/MOL
REMARK 924 INTRA-LIGAND FREE ENERGY PREDICTED BY IDOCK:   -1.30 KCAL/MOL
REMARK 927      BINDING AFFINITY PREDICTED BY RF-SCORE:    0.00 PKD
ROOT
HETATM    1  C   UNL     1     -11.659   6.457  70.818  1.00  0.00    -0.338 C  
HETATM    2  N   UNL     1     -10.555   5.655  70.330  1.00  0.00    -0.290 NA 
HETATM    3  C   UNL     1      -9.865   4.724  71.087  1.00  0.00    -0.190 A  
HETATM    4  C   UNL     1      -8.509   4.676  70.692  1.00  0.00    -0.095 A  
HETATM    5  N   UNL     1     -10.377   3.981  72.098  1.00  0.00    -0.134 NA 
HETATM    6  C   UNL     1      -8.456   5.713  69.691  1.00  0.00    -0.110 A  
HETATM    7  H2  UNL     1     -11.362   4.121  72.322  1.00  0.00     0.000 HD 
HETATM    8  H1  UNL     1      -9.869   3.296  72.656  1.00  0.00     0.000 HD 
HETATM    9  N   UNL     1      -9.785   6.001  69.278  1.00  0.00    -0.138 NA 
ENDROOT
BRANCH   4  10
HETATM   10  N   UNL     1      -7.601   3.862  71.347  1.00  0.00    -0.055 N  
HETATM   11  H   UNL     1      -7.336   2.997  70.875  1.00  0.00     0.000 HD 
BRANCH  10  12
HETATM   12  C   UNL     1      -7.028   4.100  72.557  1.00  0.00    -0.052 C  
HETATM   13  O   UNL     1      -5.993   3.517  72.858  1.00  0.00    -0.007 OA 
BRANCH  12  14
HETATM   14  N   UNL     1      -7.769   4.861  73.409  1.00  0.00    -0.095 N  
HETATM   15  H   UNL     1      -8.634   4.497  73.807  1.00  0.00     0.000 HD 
BRANCH  14  16
HETATM   16  C   UNL     1      -7.312   6.200  73.744  1.00  0.00    -0.091 C  
BRANCH  16  17
HETATM   17  C   UNL     1      -8.426   7.249  73.627  1.00  0.00    -0.149 C  
HETATM   18  H2  UNL     1      -9.562   6.401  75.128  1.00  0.00     0.000 HD 
HETATM   19  N   UNL     1      -9.673   6.730  74.169  1.00  0.00    -0.266 NA 
HETATM   20  H1  UNL     1     -10.413   7.427  74.091  1.00  0.00     0.000 HD 
ENDBRANCH  16  17
ENDBRANCH  14  16
ENDBRANCH  12  14
ENDBRANCH  10  12
ENDBRANCH   4  10
BRANCH   9  21
HETATM   21  C   UNL     1     -10.350   6.736  68.108  1.00  0.00    -0.188 C  
BRANCH  21  22
HETATM   22  C   UNL     1      -9.626   8.284  67.631  1.00  0.00    -0.187 C  
HETATM   23  CA  UNL     1      -8.750   8.858  66.024  1.00  0.00    -0.160 C  
HETATM   24  C   UNL     1      -9.250  10.988  64.698  1.00  0.00    -0.168 C  
HETATM   25  C   UNL     1      -9.954   9.451  69.065  1.00  0.00    -0.182 C  
HETATM   26  C   UNL     1      -8.147   7.913  64.476  1.00  0.00    -0.114 C  
HETATM   27  N   UNL     1      -8.377  10.407  65.636  1.00  0.00    -0.158 N  
HETATM   28  O   UNL     1      -9.957  10.548  63.801  1.00  0.00    -0.323 OA 
HETATM   29  S   UNL     1      -9.366  11.597  68.736  1.00  0.00     0.032 SA 
HETATM   30  C   UNL     1      -8.550  11.679  66.634  1.00  0.00    -0.179 C  
HETATM   31  O   UNL     1      -7.684   6.741  64.663  1.00  0.00    -0.099 OA 
HETATM   32  OXT UNL     1      -8.076   8.660  63.467  1.00  0.00    -0.157 OA 
HETATM   33  CA  UNL     1      -9.591  12.204  65.567  1.00  0.00    -0.128 C  
BRANCH  33  34
HETATM   34  N   UNL     1     -11.055  12.285  65.892  1.00  0.00    -0.308 N  
HETATM   35  C   UNL     1     -11.791  13.226  66.625  1.00  0.00    -0.395 C  
HETATM   36  H   UNL     1     -11.613  11.520  65.511  1.00  0.00     0.000 HD 
HETATM   37  O   UNL     1     -13.001  13.000  66.668  1.00  0.00     0.341 OA 
BRANCH  35  38
HETATM   38  C   UNL     1     -11.233  14.526  67.356  1.00  0.00    -0.327 C  
HETATM   39  C   UNL     1     -11.602  14.857  68.713  1.00  0.00    -0.323 C  
HETATM   40  C   UNL     1     -12.122  15.963  71.576  1.00  0.00    -0.470 C  
HETATM   41  N   UNL     1     -12.382  13.566  69.353  1.00  0.00    -0.207 NA 
HETATM   42  N   UNL     1     -11.846  16.388  72.845  1.00  0.00    -0.493 NA 
HETATM   43  H   UNL     1     -10.869  17.101  69.812  1.00  0.00     0.000 HD 
HETATM   44  S   UNL     1     -13.231  13.894  71.580  1.00  0.00    -0.373 SA 
HETATM   45  H1  UNL     1     -11.364  17.287  72.844  1.00  0.00     0.000 HD 
HETATM   46  H2  UNL     1     -12.091  15.871  73.689  1.00  0.00     0.000 HD 
HETATM   47  N   UNL     1     -11.385  16.246  70.016  1.00  0.00    -0.318 NA 
BRANCH  38  48
HETATM   48  N   UNL     1     -10.309  15.302  66.905  1.00  0.00    -0.272 NA 
HETATM   49  H   UNL     1     -10.214  15.455  65.901  1.00  0.00     0.000 HD 
BRANCH  48  50
HETATM   50  O   UNL     1      -9.461  15.916  67.776  1.00  0.00    -0.214 OA 
HETATM   51  O   UNL     1      -7.354  17.775  65.619  1.00  0.00    -0.518 OA 
HETATM   52  C   UNL     1      -7.819  16.944  66.389  1.00  0.00    -0.313 C  
HETATM   53  C   UNL     1      -8.647  18.018  68.410  1.00  0.00    -0.298 C  
HETATM   54  C   UNL     1      -9.995  17.827  66.061  1.00  0.00    -0.219 C  
HETATM   55  C   UNL     1      -9.082  17.190  67.195  1.00  0.00    -0.228 C  
HETATM   56  O   UNL     1      -7.249  15.739  66.590  1.00  0.00    -0.168 OA 
ENDBRANCH  48  50
ENDBRANCH  38  48
ENDBRANCH  35  38
ENDBRANCH  33  34
ENDBRANCH  21  22
ENDBRANCH   9  21
TORSDOF 11
ENDMDL
MODEL       47
REMARK 921   NORMALIZED FREE ENERGY PREDICTED BY IDOCK:   -4.04 KCAL/MOL
REMARK 922        TOTAL FREE ENERGY PREDICTED BY IDOCK:  -10.42 KCAL/MOL
REMARK 923 INTER-LIGAND FREE ENERGY PREDICTED BY IDOCK:   -8.41 KCAL/MOL
REMARK 924 INTRA-LIGAND FREE ENERGY PREDICTED BY IDOCK:   -2.01 KCAL/MOL
REMARK 927      BINDING AFFINITY PREDICTED BY RF-SCORE:    0.00 PKD
ROOT
HETATM    1  C   UNL     1     -11.666  14.449  68.083  1.00  0.00    -0.342 C  
HETATM    2  N   UNL     1     -10.281  14.611  67.692  1.00  0.00    -0.232 NA 
HETATM    3  C   UNL     1      -9.436  15.593  68.181  1.00  0.00    -0.195 A  
HETATM    4  C   UNL     1      -8.517  15.994  67.185  1.00  0.00    -0.196 A  
HETATM    5  N   UNL     1      -9.485  16.143  69.418  1.00  0.00    -0.234 NA 
HETATM    6  C   UNL     1      -8.950  15.213  66.052  1.00  0.00    -0.056 A  
HETATM    7  H2  UNL     1     -10.212  15.803  70.048  1.00  0.00     0.000 HD 
HETATM    8  H1  UNL     1      -8.863  16.866  69.779  1.00  0.00     0.000 HD 
HETATM    9  N   UNL     1      -9.771  14.155  66.529  1.00  0.00    -0.285 NA 
ENDROOT
BRANCH   4  10
HETATM   10  N   UNL     1      -7.607  17.010  67.417  1.00  0.00    -0.162 N  
HETATM   11  H   UNL     1      -6.622  16.749  67.437  1.00  0.00     0.000 HD 
BRANCH  10  12
HETATM   12  C   UNL     1      -7.897  18.323  67.622  1.00  0.00    -0.229 C  
HETATM   13  O   UNL     1      -8.104  19.051  66.658  1.00  0.00    -0.254 OA 
BRANCH  12  14
HETATM   14  N   UNL     1      -7.765  18.752  68.908  1.00  0.00    -0.298 N  
HETATM   15  H   UNL     1      -8.168  18.214  69.675  1.00  0.00     0.000 HD 
BRANCH  14  16
HETATM   16  C   UNL     1      -7.045  19.986  69.174  1.00  0.00    -0.193 C  
BRANCH  16  17
HETATM   17  C   UNL     1      -5.840  19.776  70.101  1.00  0.00    -0.285 C  
HETATM   18  H2  UNL     1      -6.944  20.078  71.820  1.00  0.00     0.000 HD 
HETATM   19  N   UNL     1      -6.077  20.403  71.393  1.00  0.00    -0.628 NA 
HETATM   20  H1  UNL     1      -5.276  20.264  72.010  1.00  0.00     0.000 HD 
ENDBRANCH  16  17
ENDBRANCH  14  16
ENDBRANCH  12  14
ENDBRANCH  10  12
ENDBRANCH   4  10
BRANCH   9  21
HETATM   21  C   UNL     1     -10.261  12.888  65.909  1.00  0.00    -0.290 C  
BRANCH  21  22
HETATM   22  C   UNL     1      -9.157  11.505  65.790  1.00  0.00    -0.164 C  
HETATM   23  CA  UNL     1      -7.923  10.728  67.036  1.00  0.00    -0.124 C  
HETATM   24  C   UNL     1      -7.732   8.250  67.643  1.00  0.00    -0.099 C  
HETATM   25  C   UNL     1      -9.466  10.763  64.092  1.00  0.00    -0.309 C  
HETATM   26  C   UNL     1      -7.282  11.300  68.744  1.00  0.00    -0.104 C  
HETATM   27  N   UNL     1      -7.171   9.281  66.866  1.00  0.00    -0.086 N  
HETATM   28  O   UNL     1      -8.355   8.215  68.696  1.00  0.00    -0.124 OA 
HETATM   29  S   UNL     1      -8.391   8.836  63.654  1.00  0.00    -0.098 SA 
HETATM   30  C   UNL     1      -7.236   8.354  65.531  1.00  0.00    -0.079 C  
HETATM   31  O   UNL     1      -7.115  12.553  68.904  1.00  0.00    -0.101 OA 
HETATM   32  OXT UNL     1      -6.887  10.335  69.445  1.00  0.00    -0.059 OA 
HETATM   33  CA  UNL     1      -7.948   7.295  66.463  1.00  0.00    -0.115 C  
BRANCH  33  34
HETATM   34  N   UNL     1      -9.396   6.945  66.267  1.00  0.00    -0.307 N  
HETATM   35  C   UNL     1     -10.223   6.021  66.923  1.00  0.00    -0.210 C  
HETATM   36  H   UNL     1      -9.860   7.471  65.526  1.00  0.00     0.000 HD 
HETATM   37  O   UNL     1     -11.387   6.014  66.524  1.00  0.00    -0.042 OA 
BRANCH  35  38
HETATM   38  C   UNL     1      -9.816   5.040  68.109  1.00  0.00    -0.146 C  
HETATM   39  C   UNL     1     -10.245   5.268  69.470  1.00  0.00    -0.268 C  
HETATM   40  C   UNL     1     -10.914   5.363  72.508  1.00  0.00    -0.256 C  
HETATM   41  N   UNL     1     -11.377   6.453  69.451  1.00  0.00    -0.402 NA 
HETATM   42  N   UNL     1     -11.406   4.954  73.717  1.00  0.00    -0.413 NA 
HETATM   43  H   UNL     1      -9.383   3.789  71.433  1.00  0.00     0.000 HD 
HETATM   44  S   UNL     1     -12.175   7.131  71.616  1.00  0.00    -0.367 SA 
HETATM   45  H1  UNL     1     -10.858   4.186  74.105  1.00  0.00     0.000 HD 
HETATM   46  H2  UNL     1     -12.219   5.366  74.173  1.00  0.00     0.000 HD 
HETATM   47  N   UNL     1     -10.005   4.574  71.241  1.00  0.00    -0.195 NA 
BRANCH  38  48
HETATM   48  N   UNL     1      -9.229   3.902  67.973  1.00  0.00    -0.150 NA 
HETATM   49  H   UNL     1      -9.717   3.041  68.217  1.00  0.00     0.000 HD 
BRANCH  48  50
HETATM   50  O   UNL     1      -7.951   3.856  67.503  1.00  0.00    -0.089 OA 
HETATM   51  O   UNL     1      -6.065   3.281  70.446  1.00  0.00    -0.018 OA 
HETATM   52  C   UNL     1      -6.594   3.779  69.460  1.00  0.00    -0.034 C  
HETATM   53  C   UNL     1      -6.032   2.514  67.457  1.00  0.00    -0.020 C  
HETATM   54  C   UNL     1      -7.992   1.878  69.225  1.00  0.00    -0.056 C  
HETATM   55  C   UNL     1      -7.204   2.944  68.348  1.00  0.00    -0.049 C  
HETATM   56  O   UNL     1      -6.678   5.111  69.274  1.00  0.00    -0.048 OA 
ENDBRANCH  48  50
ENDBRANCH  38  48
ENDBRANCH  35  38
ENDBRANCH  33  34
ENDBRANCH  21  22
ENDBRANCH   9  21
TORSDOF 11
ENDMDL
MODEL       48
REMARK 921   NORMALIZED FREE ENERGY PREDICTED BY IDOCK:   -3.99 KCAL/MOL
REMARK 922        TOTAL FREE ENERGY PREDICTED BY IDOCK:  -10.34 KCAL/MOL
REMARK 923 INTER-LIGAND FREE ENERGY PREDICTED BY IDOCK:   -9.01 KCAL/MOL
REMARK 924 INTRA-LIGAND FREE ENERGY PREDICTED BY IDOCK:   -1.33 KCAL/MOL
REMARK 927      BINDING AFFINITY PREDICTED BY RF-SCORE:    0.00 PKD
ROOT
HETATM    1  C   UNL     1     -12.640  13.819  63.866  1.00  0.00    -0.042 C  
HETATM    2  N   UNL     1     -11.833  14.373  64.934  1.00  0.00    -0.396 NA 
HETATM    3  C   UNL     1     -11.130  15.563  64.851  1.00  0.00    -0.416 A  
HETATM    4  C   UNL     1      -9.940  15.486  65.609  1.00  0.00    -0.360 A  
HETATM    5  N   UNL     1     -11.484  16.649  64.121  1.00  0.00    -1.440 NA 
HETATM    6  C   UNL     1      -9.977  14.123  66.078  1.00  0.00    -0.322 A  
HETATM    7  H2  UNL     1     -12.348  16.583  63.583  1.00  0.00     0.000 HD 
HETATM    8  H1  UNL     1     -10.966  17.525  64.060  1.00  0.00     0.000 HD 
HETATM    9  N   UNL     1     -11.305  13.637  65.933  1.00  0.00    -0.306 NA 
ENDROOT
BRANCH   4  10
HETATM   10  N   UNL     1      -9.037  16.534  65.633  1.00  0.00     0.023 N  
HETATM   11  H   UNL     1      -8.755  16.917  64.731  1.00  0.00     0.000 HD 
BRANCH  10  12
HETATM   12  C   UNL     1      -8.489  17.104  66.740  1.00  0.00    -0.235 C  
HETATM   13  O   UNL     1      -9.110  17.973  67.339  1.00  0.00    -0.247 OA 
BRANCH  12  14
HETATM   14  N   UNL     1      -7.195  16.760  66.988  1.00  0.00    -0.179 N  
HETATM   15  H   UNL     1      -6.640  16.291  66.272  1.00  0.00     0.000 HD 
BRANCH  14  16
HETATM   16  C   UNL     1      -6.615  17.067  68.285  1.00  0.00    -0.156 C  
BRANCH  16  17
HETATM   17  C   UNL     1      -6.682  15.882  69.256  1.00  0.00    -0.176 C  
HETATM   18  H2  UNL     1      -5.933  16.971  70.842  1.00  0.00     0.000 HD 
HETATM   19  N   UNL     1      -5.766  16.083  70.369  1.00  0.00    -0.143 NA 
HETATM   20  H1  UNL     1      -5.811  15.295  71.016  1.00  0.00     0.000 HD 
ENDBRANCH  16  17
ENDBRANCH  14  16
ENDBRANCH  12  14
ENDBRANCH  10  12
ENDBRANCH   4  10
BRANCH   9  21
HETATM   21  C   UNL     1     -12.022  12.452  66.490  1.00  0.00    -0.252 C  
BRANCH  21  22
HETATM   22  C   UNL     1     -11.257  11.513  67.785  1.00  0.00    -0.343 C  
HETATM   23  CA  UNL     1     -11.611  11.382  69.666  1.00  0.00    -0.330 C  
HETATM   24  C   UNL     1     -11.882   9.225  71.016  1.00  0.00    -0.307 C  
HETATM   25  C   UNL     1      -9.944  10.470  66.938  1.00  0.00    -0.246 C  
HETATM   26  C   UNL     1     -12.747  12.378  70.837  1.00  0.00    -0.185 C  
HETATM   27  N   UNL     1     -10.986  10.259  70.684  1.00  0.00    -0.285 N  
HETATM   28  O   UNL     1     -13.101   9.140  71.084  1.00  0.00    -0.271 OA 
HETATM   29  S   UNL     1      -8.893   8.968  68.242  1.00  0.00    -0.133 SA 
HETATM   30  C   UNL     1      -9.839   9.178  70.280  1.00  0.00    -0.207 C  
HETATM   31  O   UNL     1     -12.864  13.624  70.599  1.00  0.00    -0.253 OA 
HETATM   32  OXT UNL     1     -13.075  11.713  71.852  1.00  0.00    -0.478 OA 
HETATM   33  CA  UNL     1     -10.946   8.091  70.583  1.00  0.00    -0.245 C  
BRANCH  33  34
HETATM   34  N   UNL     1     -11.529   7.255  69.480  1.00  0.00    -0.492 N  
HETATM   35  C   UNL     1     -11.136   6.019  68.947  1.00  0.00    -0.279 C  
HETATM   36  H   UNL     1     -12.358   7.657  69.041  1.00  0.00     0.000 HD 
HETATM   37  O   UNL     1     -11.872   5.596  68.055  1.00  0.00     1.802 OA 
BRANCH  35  38
HETATM   38  C   UNL     1      -9.891   5.132  69.391  1.00  0.00    -0.199 C  
HETATM   39  C   UNL     1      -8.856   4.746  68.460  1.00  0.00    -0.100 C  
HETATM   40  C   UNL     1      -6.432   3.680  66.824  1.00  0.00    -0.041 C  
HETATM   41  N   UNL     1      -9.076   5.602  67.079  1.00  0.00    -0.113 NA 
HETATM   42  N   UNL     1      -5.129   3.485  66.461  1.00  0.00    -0.008 NA 
HETATM   43  H   UNL     1      -6.952   3.107  69.144  1.00  0.00     0.000 HD 
HETATM   44  S   UNL     1      -7.559   5.058  65.294  1.00  0.00    -0.083 SA 
HETATM   45  H1  UNL     1      -4.639   2.886  67.126  1.00  0.00     0.000 HD 
HETATM   46  H2  UNL     1      -4.699   3.888  65.629  1.00  0.00     0.000 HD 
HETATM   47  N   UNL     1      -7.279   3.662  68.354  1.00  0.00    -0.051 NA 
BRANCH  38  48
HETATM   48  N   UNL     1      -9.591   4.812  70.603  1.00  0.00    -0.170 NA 
HETATM   49  H   UNL     1      -9.543   3.831  70.876  1.00  0.00     0.000 HD 
BRANCH  48  50
HETATM   50  O   UNL     1      -9.341   5.792  71.515  1.00  0.00    -0.146 OA 
HETATM   51  O   UNL     1     -10.921   4.552  74.432  1.00  0.00    -0.304 OA 
HETATM   52  C   UNL     1     -10.632   5.180  73.422  1.00  0.00    -0.255 C  
HETATM   53  C   UNL     1      -8.417   6.169  73.634  1.00  0.00    -0.121 C  
HETATM   54  C   UNL     1      -8.936   3.605  72.905  1.00  0.00    -0.109 C  
HETATM   55  C   UNL     1      -9.238   5.163  72.819  1.00  0.00    -0.136 C  
HETATM   56  O   UNL     1     -11.523   5.943  72.759  1.00  0.00    -0.278 OA 
ENDBRANCH  48  50
ENDBRANCH  38  48
ENDBRANCH  35  38
ENDBRANCH  33  34
ENDBRANCH  21  22
ENDBRANCH   9  21
TORSDOF 11
ENDMDL
MODEL       49
REMARK 921   NORMALIZED FREE ENERGY PREDICTED BY IDOCK:   -3.95 KCAL/MOL
REMARK 922        TOTAL FREE ENERGY PREDICTED BY IDOCK:  -10.27 KCAL/MOL
REMARK 923 INTER-LIGAND FREE ENERGY PREDICTED BY IDOCK:   -9.52 KCAL/MOL
REMARK 924 INTRA-LIGAND FREE ENERGY PREDICTED BY IDOCK:   -0.75 KCAL/MOL
REMARK 927      BINDING AFFINITY PREDICTED BY RF-SCORE:    0.00 PKD
ROOT
HETATM    1  C   UNL     1     -13.080  14.726  72.214  1.00  0.00    -0.356 C  
HETATM    2  N   UNL     1     -12.263  14.563  71.028  1.00  0.00    -0.318 NA 
HETATM    3  C   UNL     1     -11.733  15.608  70.289  1.00  0.00    -0.357 A  
HETATM    4  C   UNL     1     -11.674  15.263  68.921  1.00  0.00    -0.342 A  
HETATM    5  N   UNL     1     -11.356  16.816  70.774  1.00  0.00    -0.374 NA 
HETATM    6  C   UNL     1     -12.285  13.956  68.919  1.00  0.00    -0.222 A  
HETATM    7  H2  UNL     1     -11.474  16.970  71.775  1.00  0.00     0.000 HD 
HETATM    8  H1  UNL     1     -10.966  17.585  70.230  1.00  0.00     0.000 HD 
HETATM    9  N   UNL     1     -12.281  13.461  70.251  1.00  0.00    -0.346 NA 
ENDROOT
BRANCH   4  10
HETATM   10  N   UNL     1     -11.236  16.170  67.972  1.00  0.00    -0.329 N  
HETATM   11  H   UNL     1     -11.836  16.311  67.160  1.00  0.00     0.000 HD 
BRANCH  10  12
HETATM   12  C   UNL     1     -10.083  16.891  68.015  1.00  0.00    -0.293 C  
HETATM   13  O   UNL     1      -9.006  16.308  67.982  1.00  0.00    -0.184 OA 
BRANCH  12  14
HETATM   14  N   UNL     1     -10.241  18.221  68.263  1.00  0.00    -0.376 N  
HETATM   15  H   UNL     1     -10.135  18.586  69.209  1.00  0.00     0.000 HD 
BRANCH  14  16
HETATM   16  C   UNL     1     -10.564  19.115  67.162  1.00  0.00    -0.470 C  
BRANCH  16  17
HETATM   17  C   UNL     1      -9.316  19.733  66.521  1.00  0.00    -0.394 C  
HETATM   18  H2  UNL     1      -8.149  18.067  66.871  1.00  0.00     0.000 HD 
HETATM   19  N   UNL     1      -8.113  19.077  67.010  1.00  0.00    -0.260 NA 
HETATM   20  H1  UNL     1      -7.283  19.488  66.583  1.00  0.00     0.000 HD 
ENDBRANCH  16  17
ENDBRANCH  14  16
ENDBRANCH  12  14
ENDBRANCH  10  12
ENDBRANCH   4  10
BRANCH   9  21
HETATM   21  C   UNL     1     -12.493  12.102  70.833  1.00  0.00    -0.279 C  
BRANCH  21  22
HETATM   22  C   UNL     1     -11.971  10.680  69.911  1.00  0.00    -0.385 C  
HETATM   23  CA  UNL     1     -11.307  10.473  68.123  1.00  0.00    -0.254 C  
HETATM   24  C   UNL     1      -9.206   9.193  67.421  1.00  0.00    -0.130 C  
HETATM   25  C   UNL     1     -12.093   9.237  71.107  1.00  0.00    -0.389 C  
HETATM   26  C   UNL     1     -11.192  11.676  66.643  1.00  0.00    -0.299 C  
HETATM   27  N   UNL     1     -10.609   9.122  67.510  1.00  0.00    -0.273 N  
HETATM   28  O   UNL     1      -8.402  10.107  67.294  1.00  0.00    -0.121 OA 
HETATM   29  S   UNL     1     -11.298   7.271  70.356  1.00  0.00    -0.245 SA 
HETATM   30  C   UNL     1     -10.520   7.693  68.281  1.00  0.00    -0.174 C  
HETATM   31  O   UNL     1     -12.142  12.515  66.511  1.00  0.00    -0.572 OA 
HETATM   32  OXT UNL     1     -10.288  11.345  65.836  1.00  0.00    -0.236 OA 
HETATM   33  CA  UNL     1      -8.956   7.908  68.220  1.00  0.00    -0.132 C  
BRANCH  33  34
HETATM   34  N   UNL     1      -8.161   8.157  69.470  1.00  0.00    -0.117 N  
HETATM   35  C   UNL     1      -7.502   7.276  70.339  1.00  0.00    -0.083 C  
HETATM   36  H   UNL     1      -8.087   9.140  69.733  1.00  0.00     0.000 HD 
HETATM   37  O   UNL     1      -6.910   7.829  71.266  1.00  0.00    -0.048 OA 
BRANCH  35  38
HETATM   38  C   UNL     1      -7.428   5.689  70.227  1.00  0.00    -0.080 C  
HETATM   39  C   UNL     1      -8.131   4.825  71.147  1.00  0.00    -0.092 C  
HETATM   40  C   UNL     1      -9.445   2.600  72.882  1.00  0.00    -0.092 C  
HETATM   41  N   UNL     1      -9.154   5.752  72.029  1.00  0.00    -0.138 NA 
HETATM   42  N   UNL     1     -10.214   1.512  73.188  1.00  0.00    -0.094 NA 
HETATM   43  H   UNL     1      -7.815   2.241  71.095  1.00  0.00     0.000 HD 
HETATM   44  S   UNL     1     -10.366   4.580  73.744  1.00  0.00    -0.233 SA 
HETATM   45  H1  UNL     1      -9.814   0.652  72.814  1.00  0.00     0.000 HD 
HETATM   46  H2  UNL     1     -11.081   1.556  73.724  1.00  0.00     0.000 HD 
HETATM   47  N   UNL     1      -8.330   2.970  71.588  1.00  0.00    -0.063 NA 
BRANCH  38  48
HETATM   48  N   UNL     1      -6.897   5.030  69.257  1.00  0.00    -0.052 NA 
HETATM   49  H   UNL     1      -5.913   4.765  69.296  1.00  0.00     0.000 HD 
BRANCH  48  50
HETATM   50  O   UNL     1      -7.657   4.688  68.179  1.00  0.00    -0.075 OA 
HETATM   51  O   UNL     1      -5.416   2.748  66.239  1.00  0.00    -0.015 OA 
HETATM   52  C   UNL     1      -6.132   3.640  66.678  1.00  0.00    -0.024 C  
HETATM   53  C   UNL     1      -8.418   2.848  66.947  1.00  0.00    -0.102 C  
HETATM   54  C   UNL     1      -6.395   2.452  68.714  1.00  0.00    -0.029 C  
HETATM   55  C   UNL     1      -7.208   3.387  67.719  1.00  0.00    -0.054 C  
HETATM   56  O   UNL     1      -6.028   4.921  66.275  1.00  0.00    -0.022 OA 
ENDBRANCH  48  50
ENDBRANCH  38  48
ENDBRANCH  35  38
ENDBRANCH  33  34
ENDBRANCH  21  22
ENDBRANCH   9  21
TORSDOF 11
ENDMDL
MODEL       50
REMARK 921   NORMALIZED FREE ENERGY PREDICTED BY IDOCK:   -3.94 KCAL/MOL
REMARK 922        TOTAL FREE ENERGY PREDICTED BY IDOCK:  -10.26 KCAL/MOL
REMARK 923 INTER-LIGAND FREE ENERGY PREDICTED BY IDOCK:   -8.18 KCAL/MOL
REMARK 924 INTRA-LIGAND FREE ENERGY PREDICTED BY IDOCK:   -2.08 KCAL/MOL
REMARK 927      BINDING AFFINITY PREDICTED BY RF-SCORE:    0.00 PKD
ROOT
HETATM    1  C   UNL     1      -5.773  14.668  67.848  1.00  0.00    -0.118 C  
HETATM    2  N   UNL     1      -7.134  14.209  67.662  1.00  0.00    -0.175 NA 
HETATM    3  C   UNL     1      -8.260  14.890  68.095  1.00  0.00    -0.139 A  
HETATM    4  C   UNL     1      -9.272  13.980  68.471  1.00  0.00    -0.170 A  
HETATM    5  N   UNL     1      -8.387  16.235  68.195  1.00  0.00    -0.169 NA 
HETATM    6  C   UNL     1      -8.611  12.711  68.290  1.00  0.00    -0.167 A  
HETATM    7  H2  UNL     1      -7.579  16.798  67.929  1.00  0.00     0.000 HD 
HETATM    8  H1  UNL     1      -9.215  16.737  68.514  1.00  0.00     0.000 HD 
HETATM    9  N   UNL     1      -7.470  12.917  67.469  1.00  0.00    -0.149 NA 
ENDROOT
BRANCH   4  10
HETATM   10  N   UNL     1     -10.474  14.422  68.995  1.00  0.00    -0.277 N  
HETATM   11  H   UNL     1     -10.576  14.381  70.009  1.00  0.00     0.000 HD 
BRANCH  10  12
HETATM   12  C   UNL     1     -11.533  14.908  68.293  1.00  0.00    -0.324 C  
HETATM   13  O   UNL     1     -11.897  16.063  68.474  1.00  0.00    -0.343 OA 
BRANCH  12  14
HETATM   14  N   UNL     1     -12.208  13.986  67.553  1.00  0.00    -0.535 N  
HETATM   15  H   UNL     1     -12.636  13.176  68.002  1.00  0.00     0.000 HD 
BRANCH  14  16
HETATM   16  C   UNL     1     -12.313  14.168  66.114  1.00  0.00    -0.436 C  
BRANCH  16  17
HETATM   17  C   UNL     1     -11.137  13.544  65.354  1.00  0.00    -0.293 C  
HETATM   18  H2  UNL     1      -9.886  15.148  65.707  1.00  0.00     0.000 HD 
HETATM   19  N   UNL     1     -10.202  14.574  64.925  1.00  0.00    -0.477 NA 
HETATM   20  H1  UNL     1      -9.420  14.158  64.420  1.00  0.00     0.000 HD 
ENDBRANCH  16  17
ENDBRANCH  14  16
ENDBRANCH  12  14
ENDBRANCH  10  12
ENDBRANCH   4  10
BRANCH   9  21
HETATM   21  C   UNL     1      -6.581  11.988  66.709  1.00  0.00     0.041 C  
BRANCH  21  22
HETATM   22  C   UNL     1      -6.133  10.435  67.439  1.00  0.00    -0.053 C  
HETATM   23  CA  UNL     1      -6.027   9.849  69.262  1.00  0.00    -0.037 C  
HETATM   24  C   UNL     1      -7.050   7.716  70.236  1.00  0.00    -0.058 C  
HETATM   25  C   UNL     1      -5.823   9.275  65.994  1.00  0.00    -0.054 C  
HETATM   26  C   UNL     1      -6.138  10.784  70.926  1.00  0.00     0.074 C  
HETATM   27  N   UNL     1      -5.858   8.297  69.763  1.00  0.00    -0.026 N  
HETATM   28  O   UNL     1      -8.070   8.155  70.750  1.00  0.00    -0.095 OA 
HETATM   29  S   UNL     1      -5.437   7.125  66.530  1.00  0.00    -0.024 SA 
HETATM   30  C   UNL     1      -5.594   7.029  68.778  1.00  0.00    -0.018 C  
HETATM   31  O   UNL     1      -5.636  11.955  70.961  1.00  0.00    -0.308 OA 
HETATM   32  OXT UNL     1      -6.505  10.032  71.864  1.00  0.00    -0.097 OA 
HETATM   33  CA  UNL     1      -6.991   6.505  69.297  1.00  0.00    -0.071 C  
BRANCH  33  34
HETATM   34  N   UNL     1      -8.178   6.433  68.380  1.00  0.00    -0.113 N  
HETATM   35  C   UNL     1      -9.534   6.182  68.636  1.00  0.00    -0.124 C  
HETATM   36  H   UNL     1      -7.960   6.596  67.396  1.00  0.00     0.000 HD 
HETATM   37  O   UNL     1     -10.254   6.229  67.639  1.00  0.00    -0.136 OA 
BRANCH  35  38
HETATM   38  C   UNL     1     -10.206   5.881  70.048  1.00  0.00    -0.224 C  
HETATM   39  C   UNL     1     -10.994   6.871  70.745  1.00  0.00    -0.259 C  
HETATM   40  C   UNL     1     -12.737   8.669  72.593  1.00  0.00    -0.204 C  
HETATM   41  N   UNL     1     -11.266   8.116  69.715  1.00  0.00    -0.056 NA 
HETATM   42  N   UNL     1     -13.822   9.073  73.321  1.00  0.00    -1.163 NA 
HETATM   43  H   UNL     1     -11.890   6.445  73.153  1.00  0.00     0.000 HD 
HETATM   44  S   UNL     1     -12.454   9.979  70.666  1.00  0.00    -0.195 SA 
HETATM   45  H1  UNL     1     -13.945   8.504  74.159  1.00  0.00     0.000 HD 
HETATM   46  H2  UNL     1     -14.432   9.847  73.059  1.00  0.00     0.000 HD 
HETATM   47  N   UNL     1     -11.898   7.146  72.413  1.00  0.00    -0.229 NA 
BRANCH  38  48
HETATM   48  N   UNL     1     -10.259   4.730  70.623  1.00  0.00    -0.215 NA 
HETATM   49  H   UNL     1     -11.161   4.292  70.810  1.00  0.00     0.000 HD 
BRANCH  48  50
HETATM   50  O   UNL     1      -9.105   4.101  70.979  1.00  0.00    -0.104 OA 
HETATM   51  O   UNL     1      -8.982   4.638  74.478  1.00  0.00    -0.110 OA 
HETATM   52  C   UNL     1      -8.790   4.677  73.269  1.00  0.00    -0.106 C  
HETATM   53  C   UNL     1      -8.245   2.463  72.416  1.00  0.00    -0.055 C  
HETATM   54  C   UNL     1     -10.750   3.395  72.897  1.00  0.00    -0.178 C  
HETATM   55  C   UNL     1      -9.279   3.592  72.327  1.00  0.00    -0.109 C  
HETATM   56  O   UNL     1      -8.126   5.686  72.670  1.00  0.00    -0.102 OA 
ENDBRANCH  48  50
ENDBRANCH  38  48
ENDBRANCH  35  38
ENDBRANCH  33  34
ENDBRANCH  21  22
ENDBRANCH   9  21
TORSDOF 11
ENDMDL
MODEL       51
REMARK 921   NORMALIZED FREE ENERGY PREDICTED BY IDOCK:   -3.94 KCAL/MOL
REMARK 922        TOTAL FREE ENERGY PREDICTED BY IDOCK:  -10.25 KCAL/MOL
REMARK 923 INTER-LIGAND FREE ENERGY PREDICTED BY IDOCK:  -10.08 KCAL/MOL
REMARK 924 INTRA-LIGAND FREE ENERGY PREDICTED BY IDOCK:   -0.18 KCAL/MOL
REMARK 927      BINDING AFFINITY PREDICTED BY RF-SCORE:    0.00 PKD
ROOT
HETATM    1  C   UNL     1      -5.594   3.796  71.114  1.00  0.00    -0.012 C  
HETATM    2  N   UNL     1      -6.563   4.871  71.182  1.00  0.00    -0.030 NA 
HETATM    3  C   UNL     1      -7.377   5.127  72.273  1.00  0.00    -0.092 A  
HETATM    4  C   UNL     1      -8.625   5.636  71.848  1.00  0.00    -0.131 A  
HETATM    5  N   UNL     1      -7.067   4.894  73.571  1.00  0.00    -0.075 NA 
HETATM    6  C   UNL     1      -8.492   5.582  70.413  1.00  0.00    -0.122 A  
HETATM    7  H2  UNL     1      -6.150   4.492  73.763  1.00  0.00     0.000 HD 
HETATM    8  H1  UNL     1      -7.666   5.083  74.374  1.00  0.00     0.000 HD 
HETATM    9  N   UNL     1      -7.112   5.455  70.098  1.00  0.00    -0.063 NA 
ENDROOT
BRANCH   4  10
HETATM   10  N   UNL     1      -9.632   5.912  72.755  1.00  0.00    -0.156 N  
HETATM   11  H   UNL     1      -9.464   6.674  73.412  1.00  0.00     0.000 HD 
BRANCH  10  12
HETATM   12  C   UNL     1     -10.826   5.267  72.859  1.00  0.00    -0.270 C  
HETATM   13  O   UNL     1     -10.842   4.065  73.095  1.00  0.00    -0.186 OA 
BRANCH  12  14
HETATM   14  N   UNL     1     -11.916   6.009  72.520  1.00  0.00    -0.517 N  
HETATM   15  H   UNL     1     -12.762   5.974  73.090  1.00  0.00     0.000 HD 
BRANCH  14  16
HETATM   16  C   UNL     1     -11.862   6.851  71.336  1.00  0.00    -0.330 C  
BRANCH  16  17
HETATM   17  C   UNL     1     -11.754   8.342  71.679  1.00  0.00    -0.298 C  
HETATM   18  H2  UNL     1      -9.915   8.554  70.763  1.00  0.00     0.000 HD 
HETATM   19  N   UNL     1     -10.364   8.772  71.653  1.00  0.00    -0.292 NA 
HETATM   20  H1  UNL     1     -10.292   9.763  71.881  1.00  0.00     0.000 HD 
ENDBRANCH  16  17
ENDBRANCH  14  16
ENDBRANCH  12  14
ENDBRANCH  10  12
ENDBRANCH   4  10
BRANCH   9  21
HETATM   21  C   UNL     1      -6.335   5.639  68.836  1.00  0.00    -0.037 C  
BRANCH  21  22
HETATM   22  C   UNL     1      -6.974   6.716  67.580  1.00  0.00    -0.083 C  
HETATM   23  CA  UNL     1      -8.714   6.891  66.794  1.00  0.00    -0.122 C  
HETATM   24  C   UNL     1     -10.033   9.063  66.486  1.00  0.00    -0.285 C  
HETATM   25  C   UNL     1      -5.553   7.861  67.133  1.00  0.00    -0.036 C  
HETATM   26  C   UNL     1     -10.298   5.828  66.916  1.00  0.00    -0.251 C  
HETATM   27  N   UNL     1      -9.214   8.123  65.833  1.00  0.00    -0.142 N  
HETATM   28  O   UNL     1     -10.797   9.013  67.441  1.00  0.00    -0.230 OA 
HETATM   29  S   UNL     1      -6.049   9.529  65.708  1.00  0.00    -0.062 SA 
HETATM   30  C   UNL     1      -8.251   9.306  65.269  1.00  0.00    -0.134 C  
HETATM   31  O   UNL     1     -10.137   4.566  67.001  1.00  0.00    -0.199 OA 
HETATM   32  OXT UNL     1     -11.334   6.496  66.672  1.00  0.00    -0.171 OA 
HETATM   33  CA  UNL     1      -9.170  10.274  66.114  1.00  0.00    -0.158 C  
BRANCH  33  34
HETATM   34  N   UNL     1      -8.634  10.989  67.322  1.00  0.00    -0.129 N  
HETATM   35  C   UNL     1      -9.002  12.203  67.920  1.00  0.00    -0.184 C  
HETATM   36  H   UNL     1      -7.867  10.506  67.790  1.00  0.00     0.000 HD 
HETATM   37  O   UNL     1      -8.363  12.480  68.935  1.00  0.00     0.068 OA 
BRANCH  35  38
HETATM   38  C   UNL     1     -10.144  13.203  67.441  1.00  0.00    -0.229 C  
HETATM   39  C   UNL     1     -10.059  14.627  67.672  1.00  0.00    -0.228 C  
HETATM   40  C   UNL     1     -10.308  17.716  67.957  1.00  0.00    -0.375 C  
HETATM   41  N   UNL     1      -8.543  14.963  68.195  1.00  0.00    -0.154 NA 
HETATM   42  N   UNL     1     -10.436  19.023  67.577  1.00  0.00    -0.429 NA 
HETATM   43  H   UNL     1     -12.037  16.219  67.093  1.00  0.00     0.000 HD 
HETATM   44  S   UNL     1      -8.159  17.263  68.787  1.00  0.00    -0.201 SA 
HETATM   45  H1  UNL     1     -11.369  19.220  67.217  1.00  0.00     0.000 HD 
HETATM   46  H2  UNL     1      -9.690  19.715  67.646  1.00  0.00     0.000 HD 
HETATM   47  N   UNL     1     -11.089  16.231  67.467  1.00  0.00    -0.207 NA 
BRANCH  38  48
HETATM   48  N   UNL     1     -11.142  12.896  66.687  1.00  0.00    -0.276 NA 
HETATM   49  H   UNL     1     -12.077  13.236  66.912  1.00  0.00     0.000 HD 
BRANCH  48  50
HETATM   50  O   UNL     1     -10.942  12.116  65.589  1.00  0.00    -0.276 OA 
HETATM   51  O   UNL     1     -12.763  13.831  63.081  1.00  0.00    -0.743 OA 
HETATM   52  C   UNL     1     -12.386  13.033  63.930  1.00  0.00    -0.375 C  
HETATM   53  C   UNL     1     -10.175  12.177  63.377  1.00  0.00    -0.422 C  
HETATM   54  C   UNL     1     -10.687  14.539  64.617  1.00  0.00    -0.332 C  
HETATM   55  C   UNL     1     -10.951  12.983  64.426  1.00  0.00    -0.374 C  
HETATM   56  O   UNL     1     -13.209  12.129  64.497  1.00  0.00    -0.724 OA 
ENDBRANCH  48  50
ENDBRANCH  38  48
ENDBRANCH  35  38
ENDBRANCH  33  34
ENDBRANCH  21  22
ENDBRANCH   9  21
TORSDOF 11
ENDMDL
MODEL       52
REMARK 921   NORMALIZED FREE ENERGY PREDICTED BY IDOCK:   -3.93 KCAL/MOL
REMARK 922        TOTAL FREE ENERGY PREDICTED BY IDOCK:  -10.25 KCAL/MOL
REMARK 923 INTER-LIGAND FREE ENERGY PREDICTED BY IDOCK:   -7.64 KCAL/MOL
REMARK 924 INTRA-LIGAND FREE ENERGY PREDICTED BY IDOCK:   -2.60 KCAL/MOL
REMARK 927      BINDING AFFINITY PREDICTED BY RF-SCORE:    0.00 PKD
ROOT
HETATM    1  C   UNL     1      -6.915   4.039  68.718  1.00  0.00    -0.047 C  
HETATM    2  N   UNL     1      -7.068   4.901  69.872  1.00  0.00    -0.052 NA 
HETATM    3  C   UNL     1      -7.757   4.558  71.024  1.00  0.00    -0.072 A  
HETATM    4  C   UNL     1      -8.373   5.698  71.587  1.00  0.00    -0.124 A  
HETATM    5  N   UNL     1      -7.877   3.311  71.538  1.00  0.00    -0.055 NA 
HETATM    6  C   UNL     1      -8.045   6.719  70.622  1.00  0.00    -0.119 A  
HETATM    7  H2  UNL     1      -7.419   2.554  71.031  1.00  0.00     0.000 HD 
HETATM    8  H1  UNL     1      -8.384   3.058  72.386  1.00  0.00     0.000 HD 
HETATM    9  N   UNL     1      -6.970   6.246  69.822  1.00  0.00    -0.068 NA 
ENDROOT
BRANCH   4  10
HETATM   10  N   UNL     1      -9.172   5.597  72.712  1.00  0.00    -0.133 N  
HETATM   11  H   UNL     1      -8.714   5.734  73.614  1.00  0.00     0.000 HD 
BRANCH  10  12
HETATM   12  C   UNL     1     -10.506   5.334  72.736  1.00  0.00    -0.217 C  
HETATM   13  O   UNL     1     -10.902   4.206  72.466  1.00  0.00    -0.093 OA 
BRANCH  12  14
HETATM   14  N   UNL     1     -11.308   6.421  72.903  1.00  0.00    -0.440 N  
HETATM   15  H   UNL     1     -11.344   6.903  73.802  1.00  0.00     0.000 HD 
BRANCH  14  16
HETATM   16  C   UNL     1     -12.114   6.888  71.787  1.00  0.00    -0.346 C  
BRANCH  16  17
HETATM   17  C   UNL     1     -12.204   8.417  71.724  1.00  0.00    -0.330 C  
HETATM   18  H2  UNL     1     -10.638   8.585  70.389  1.00  0.00     0.000 HD 
HETATM   19  N   UNL     1     -10.940   8.984  71.278  1.00  0.00    -0.285 NA 
HETATM   20  H1  UNL     1     -10.999  10.002  71.235  1.00  0.00     0.000 HD 
ENDBRANCH  16  17
ENDBRANCH  14  16
ENDBRANCH  12  14
ENDBRANCH  10  12
ENDBRANCH   4  10
BRANCH   9  21
HETATM   21  C   UNL     1      -6.023   6.922  68.887  1.00  0.00    -0.026 C  
BRANCH  21  22
HETATM   22  C   UNL     1      -6.670   7.999  67.635  1.00  0.00    -0.069 C  
HETATM   23  CA  UNL     1      -8.453   8.573  67.223  1.00  0.00    -0.123 C  
HETATM   24  C   UNL     1      -9.226  10.983  66.846  1.00  0.00    -0.155 C  
HETATM   25  C   UNL     1      -5.170   8.646  66.708  1.00  0.00    -0.031 C  
HETATM   26  C   UNL     1     -10.167   8.015  67.859  1.00  0.00    -0.212 C  
HETATM   27  N   UNL     1      -8.857   9.788  66.199  1.00  0.00    -0.138 N  
HETATM   28  O   UNL     1      -9.713  11.249  67.937  1.00  0.00    -0.170 OA 
HETATM   29  S   UNL     1      -5.580  10.229  65.164  1.00  0.00    -0.136 SA 
HETATM   30  C   UNL     1      -7.806  10.589  65.251  1.00  0.00    -0.100 C  
HETATM   31  O   UNL     1     -10.307   6.775  68.117  1.00  0.00    -0.164 OA 
HETATM   32  OXT UNL     1     -11.032   8.918  67.735  1.00  0.00    -0.112 OA 
HETATM   33  CA  UNL     1      -8.213  11.858  66.100  1.00  0.00     0.236 C  
BRANCH  33  34
HETATM   34  N   UNL     1      -7.230  12.515  67.027  1.00  0.00    -0.370 N  
HETATM   35  C   UNL     1      -7.306  13.703  67.768  1.00  0.00    -0.166 C  
HETATM   36  H   UNL     1      -6.351  12.008  67.136  1.00  0.00     0.000 HD 
HETATM   37  O   UNL     1      -6.315  13.930  68.461  1.00  0.00    -0.080 OA 
BRANCH  35  38
HETATM   38  C   UNL     1      -8.523  14.729  67.817  1.00  0.00    -0.164 C  
HETATM   39  C   UNL     1      -8.385  16.098  67.375  1.00  0.00    -0.171 C  
HETATM   40  C   UNL     1      -8.551  19.095  66.554  1.00  0.00    -0.322 C  
HETATM   41  N   UNL     1      -6.945  16.237  66.606  1.00  0.00    -0.218 NA 
HETATM   42  N   UNL     1      -8.979  20.212  65.892  1.00  0.00    -0.535 NA 
HETATM   43  H   UNL     1     -10.311  17.824  67.677  1.00  0.00     0.000 HD 
HETATM   44  S   UNL     1      -6.395  18.462  65.875  1.00  0.00    -0.270 SA 
HETATM   45  H1  UNL     1      -9.916  20.488  66.187  1.00  0.00     0.000 HD 
HETATM   46  H2  UNL     1      -8.430  20.708  65.190  1.00  0.00     0.000 HD 
HETATM   47  N   UNL     1      -9.367  17.742  67.302  1.00  0.00    -0.250 NA 
BRANCH  38  48
HETATM   48  N   UNL     1      -9.746  14.430  68.087  1.00  0.00    -0.217 NA 
HETATM   49  H   UNL     1     -10.476  14.586  67.392  1.00  0.00     0.000 HD 
BRANCH  48  50
HETATM   50  O   UNL     1     -10.058  13.906  69.304  1.00  0.00    -0.001 OA 
HETATM   51  O   UNL     1     -12.966  15.719  70.202  1.00  0.00    -0.266 OA 
HETATM   52  C   UNL     1     -11.824  15.285  70.116  1.00  0.00    -0.323 C  
HETATM   53  C   UNL     1     -11.792  12.881  70.500  1.00  0.00    -0.152 C  
HETATM   54  C   UNL     1     -12.406  14.094  68.149  1.00  0.00    -0.007 C  
HETATM   55  C   UNL     1     -11.501  13.959  69.449  1.00  0.00    -0.280 C  
HETATM   56  O   UNL     1     -10.756  15.943  70.607  1.00  0.00    -0.269 OA 
ENDBRANCH  48  50
ENDBRANCH  38  48
ENDBRANCH  35  38
ENDBRANCH  33  34
ENDBRANCH  21  22
ENDBRANCH   9  21
TORSDOF 11
ENDMDL
MODEL       53
REMARK 921   NORMALIZED FREE ENERGY PREDICTED BY IDOCK:   -3.92 KCAL/MOL
REMARK 922        TOTAL FREE ENERGY PREDICTED BY IDOCK:  -10.23 KCAL/MOL
REMARK 923 INTER-LIGAND FREE ENERGY PREDICTED BY IDOCK:   -7.88 KCAL/MOL
REMARK 924 INTRA-LIGAND FREE ENERGY PREDICTED BY IDOCK:   -2.35 KCAL/MOL
REMARK 927      BINDING AFFINITY PREDICTED BY RF-SCORE:    0.00 PKD
ROOT
HETATM    1  C   UNL     1     -11.381  15.600  68.228  1.00  0.00    -0.356 C  
HETATM    2  N   UNL     1     -10.001  15.619  67.788  1.00  0.00    -0.222 NA 
HETATM    3  C   UNL     1      -9.076  16.588  68.140  1.00  0.00    -0.207 A  
HETATM    4  C   UNL     1      -8.165  16.806  67.082  1.00  0.00    -0.184 A  
HETATM    5  N   UNL     1      -9.050  17.278  69.306  1.00  0.00     0.038 NA 
HETATM    6  C   UNL     1      -8.686  15.933  66.059  1.00  0.00    -0.188 A  
HETATM    7  H2  UNL     1      -9.778  17.064  69.987  1.00  0.00     0.000 HD 
HETATM    8  H1  UNL     1      -8.370  17.992  69.565  1.00  0.00     0.000 HD 
HETATM    9  N   UNL     1      -9.561  14.998  66.675  1.00  0.00    -0.249 NA 
ENDROOT
BRANCH   4  10
HETATM   10  N   UNL     1      -7.182  17.776  67.174  1.00  0.00    -0.177 N  
HETATM   11  H   UNL     1      -6.239  17.500  66.901  1.00  0.00     0.000 HD 
BRANCH  10  12
HETATM   12  C   UNL     1      -7.349  19.060  67.591  1.00  0.00    -0.224 C  
HETATM   13  O   UNL     1      -7.017  19.370  68.729  1.00  0.00    -0.302 OA 
BRANCH  12  14
HETATM   14  N   UNL     1      -8.039  19.862  66.735  1.00  0.00    -0.302 N  
HETATM   15  H   UNL     1      -7.688  20.034  65.793  1.00  0.00     0.000 HD 
BRANCH  14  16
HETATM   16  C   UNL     1      -9.281  20.472  67.179  1.00  0.00    -0.351 C  
BRANCH  16  17
HETATM   17  C   UNL     1     -10.510  19.885  66.474  1.00  0.00    -0.471 C  
HETATM   18  H2  UNL     1     -11.524  19.548  68.241  1.00  0.00     0.000 HD 
HETATM   19  N   UNL     1     -11.270  19.046  67.390  1.00  0.00    -0.095 NA 
HETATM   20  H1  UNL     1     -12.088  18.656  66.922  1.00  0.00     0.000 HD 
ENDBRANCH  16  17
ENDBRANCH  14  16
ENDBRANCH  12  14
ENDBRANCH  10  12
ENDBRANCH   4  10
BRANCH   9  21
HETATM   21  C   UNL     1     -10.154  13.706  66.218  1.00  0.00    -0.299 C  
BRANCH  21  22
HETATM   22  C   UNL     1      -9.227  12.209  66.432  1.00  0.00    -0.207 C  
HETATM   23  CA  UNL     1      -7.567  11.835  67.317  1.00  0.00    -0.150 C  
HETATM   24  C   UNL     1      -7.132   9.963  69.007  1.00  0.00    -0.068 C  
HETATM   25  C   UNL     1     -10.270  10.859  65.648  1.00  0.00    -0.323 C  
HETATM   26  C   UNL     1      -6.224  12.967  68.072  1.00  0.00    -0.110 C  
HETATM   27  N   UNL     1      -6.977  10.344  67.660  1.00  0.00    -0.082 N  
HETATM   28  O   UNL     1      -7.214  10.574  70.064  1.00  0.00    -0.159 OA 
HETATM   29  S   UNL     1      -9.515   8.757  65.915  1.00  0.00    -0.163 SA 
HETATM   30  C   UNL     1      -7.640   8.947  67.156  1.00  0.00    -0.092 C  
HETATM   31  O   UNL     1      -5.998  14.068  67.472  1.00  0.00    -0.334 OA 
HETATM   32  OXT UNL     1      -5.558  12.378  68.961  1.00  0.00    -0.062 OA 
HETATM   33  CA  UNL     1      -7.861   8.651  68.692  1.00  0.00    -0.107 C  
BRANCH  33  34
HETATM   34  N   UNL     1      -9.242   8.608  69.280  1.00  0.00    -0.149 N  
HETATM   35  C   UNL     1      -9.957   7.568  69.891  1.00  0.00    -0.189 C  
HETATM   36  H   UNL     1      -9.751   9.491  69.224  1.00  0.00     0.000 HD 
HETATM   37  O   UNL     1     -11.074   7.892  70.295  1.00  0.00    -0.257 OA 
BRANCH  35  38
HETATM   38  C   UNL     1      -9.465   6.072  70.128  1.00  0.00    -0.158 C  
HETATM   39  C   UNL     1      -9.496   5.082  69.077  1.00  0.00    -0.137 C  
HETATM   40  C   UNL     1      -9.393   2.644  67.144  1.00  0.00    -0.075 C  
HETATM   41  N   UNL     1      -9.818   5.853  67.667  1.00  0.00    -0.115 NA 
HETATM   42  N   UNL     1      -8.857   1.613  66.424  1.00  0.00    -0.120 NA 
HETATM   43  H   UNL     1      -8.909   2.588  69.540  1.00  0.00     0.000 HD 
HETATM   44  S   UNL     1     -10.060   4.415  65.754  1.00  0.00    -0.225 SA 
HETATM   45  H1  UNL     1      -8.568   0.844  67.027  1.00  0.00     0.000 HD 
HETATM   46  H2  UNL     1      -8.760   1.613  65.409  1.00  0.00     0.000 HD 
HETATM   47  N   UNL     1      -9.183   3.214  68.784  1.00  0.00    -0.152 NA 
BRANCH  38  48
HETATM   48  N   UNL     1      -8.860   5.639  71.180  1.00  0.00    -0.134 NA 
HETATM   49  H   UNL     1      -7.855   5.468  71.160  1.00  0.00     0.000 HD 
BRANCH  48  50
HETATM   50  O   UNL     1      -9.571   5.412  72.319  1.00  0.00    -0.153 OA 
HETATM   51  O   UNL     1      -8.656   2.093  73.151  1.00  0.00    -0.065 OA 
HETATM   52  C   UNL     1      -9.250   3.095  72.774  1.00  0.00    -0.091 C  
HETATM   53  C   UNL     1      -9.343   4.753  74.555  1.00  0.00    -0.134 C  
HETATM   54  C   UNL     1      -7.240   4.350  72.884  1.00  0.00    -0.074 C  
HETATM   55  C   UNL     1      -8.802   4.499  73.143  1.00  0.00    -0.110 C  
HETATM   56  O   UNL     1     -10.354   3.041  72.003  1.00  0.00    -0.097 OA 
ENDBRANCH  48  50
ENDBRANCH  38  48
ENDBRANCH  35  38
ENDBRANCH  33  34
ENDBRANCH  21  22
ENDBRANCH   9  21
TORSDOF 11
ENDMDL
MODEL       54
REMARK 921   NORMALIZED FREE ENERGY PREDICTED BY IDOCK:   -3.85 KCAL/MOL
REMARK 922        TOTAL FREE ENERGY PREDICTED BY IDOCK:  -10.11 KCAL/MOL
REMARK 923 INTER-LIGAND FREE ENERGY PREDICTED BY IDOCK:   -8.20 KCAL/MOL
REMARK 924 INTRA-LIGAND FREE ENERGY PREDICTED BY IDOCK:   -1.90 KCAL/MOL
REMARK 927      BINDING AFFINITY PREDICTED BY RF-SCORE:    0.00 PKD
ROOT
HETATM    1  C   UNL     1      -6.663   2.846  66.784  1.00  0.00    -0.041 C  
HETATM    2  N   UNL     1      -6.482   3.474  68.077  1.00  0.00    -0.036 NA 
HETATM    3  C   UNL     1      -6.859   2.909  69.285  1.00  0.00    -0.037 A  
HETATM    4  C   UNL     1      -7.269   3.913  70.191  1.00  0.00    -0.042 A  
HETATM    5  N   UNL     1      -6.883   1.586  69.572  1.00  0.00    -0.032 NA 
HETATM    6  C   UNL     1      -7.169   5.102  69.380  1.00  0.00    -0.057 A  
HETATM    7  H2  UNL     1      -6.598   0.945  68.832  1.00  0.00     0.000 HD 
HETATM    8  H1  UNL     1      -7.161   1.170  70.461  1.00  0.00     0.000 HD 
HETATM    9  N   UNL     1      -6.355   4.805  68.254  1.00  0.00    -0.035 NA 
ENDROOT
BRANCH   4  10
HETATM   10  N   UNL     1      -7.750   3.590  71.447  1.00  0.00    -0.055 N  
HETATM   11  H   UNL     1      -7.057   3.395  72.169  1.00  0.00     0.000 HD 
BRANCH  10  12
HETATM   12  C   UNL     1      -9.057   3.506  71.815  1.00  0.00    -0.111 C  
HETATM   13  O   UNL     1      -9.806   2.749  71.209  1.00  0.00    -0.155 OA 
BRANCH  12  14
HETATM   14  N   UNL     1      -9.457   4.419  72.744  1.00  0.00    -0.130 N  
HETATM   15  H   UNL     1      -9.610   4.137  73.712  1.00  0.00     0.000 HD 
BRANCH  14  16
HETATM   16  C   UNL     1      -9.663   5.800  72.339  1.00  0.00    -0.159 C  
BRANCH  16  17
HETATM   17  C   UNL     1     -11.116   6.086  71.940  1.00  0.00    -0.277 C  
HETATM   18  H2  UNL     1     -11.829   5.843  73.863  1.00  0.00     0.000 HD 
HETATM   19  N   UNL     1     -12.034   5.519  72.917  1.00  0.00    -0.530 NA 
HETATM   20  H1  UNL     1     -13.000   5.709  72.652  1.00  0.00     0.000 HD 
ENDBRANCH  16  17
ENDBRANCH  14  16
ENDBRANCH  12  14
ENDBRANCH  10  12
ENDBRANCH   4  10
BRANCH   9  21
HETATM   21  C   UNL     1      -5.661   5.660  67.245  1.00  0.00    -0.012 C  
BRANCH  21  22
HETATM   22  C   UNL     1      -6.633   6.663  66.152  1.00  0.00    -0.044 C  
HETATM   23  CA  UNL     1      -8.524   6.935  65.990  1.00  0.00    -0.139 C  
HETATM   24  C   UNL     1      -9.731   9.189  65.867  1.00  0.00    -0.266 C  
HETATM   25  C   UNL     1      -5.392   7.603  65.101  1.00  0.00    -0.029 C  
HETATM   26  C   UNL     1     -10.026   6.059  66.784  1.00  0.00    -0.174 C  
HETATM   27  N   UNL     1      -9.252   8.107  65.104  1.00  0.00     0.290 N  
HETATM   28  O   UNL     1     -10.113   9.316  67.023  1.00  0.00    -0.209 OA 
HETATM   29  S   UNL     1      -6.254   9.159  63.724  1.00  0.00    -0.090 SA 
HETATM   30  C   UNL     1      -8.478   9.121  64.094  1.00  0.00    -0.185 C  
HETATM   31  O   UNL     1      -9.923   4.804  66.974  1.00  0.00    -0.188 OA 
HETATM   32  OXT UNL     1     -11.038   6.803  66.822  1.00  0.00    -0.338 OA 
HETATM   33  CA  UNL     1      -8.981  10.260  65.067  1.00  0.00    -0.196 C  
BRANCH  33  34
HETATM   34  N   UNL     1      -8.013  11.035  65.914  1.00  0.00    -0.315 N  
HETATM   35  C   UNL     1      -8.216  12.048  66.862  1.00  0.00    -0.146 C  
HETATM   36  H   UNL     1      -7.035  10.780  65.775  1.00  0.00     0.000 HD 
HETATM   37  O   UNL     1      -7.184  12.448  67.403  1.00  0.00    -0.132 OA 
BRANCH  35  38
HETATM   38  C   UNL     1      -9.606  12.684  67.308  1.00  0.00    -0.203 C  
HETATM   39  C   UNL     1     -10.412  12.102  68.355  1.00  0.00    -0.231 C  
HETATM   40  C   UNL     1     -12.461  11.201  70.518  1.00  0.00    -0.327 C  
HETATM   41  N   UNL     1      -9.513  10.955  69.105  1.00  0.00    -0.142 NA 
HETATM   42  N   UNL     1     -13.247  11.272  71.634  1.00  0.00    -0.393 NA 
HETATM   43  H   UNL     1     -12.786  13.015  68.912  1.00  0.00     0.000 HD 
HETATM   44  S   UNL     1     -10.663   9.722  70.821  1.00  0.00    -0.292 SA 
HETATM   45  H1  UNL     1     -14.028  11.915  71.504  1.00  0.00     0.000 HD 
HETATM   46  H2  UNL     1     -13.074  10.748  72.492  1.00  0.00     0.000 HD 
HETATM   47  N   UNL     1     -12.117  12.305  69.207  1.00  0.00    -0.221 NA 
BRANCH  38  48
HETATM   48  N   UNL     1     -10.068  13.822  66.920  1.00  0.00    -0.256 NA 
HETATM   49  H   UNL     1     -10.507  13.912  66.004  1.00  0.00     0.000 HD 
BRANCH  48  50
HETATM   50  O   UNL     1      -9.968  14.904  67.741  1.00  0.00    -0.220 OA 
HETATM   51  O   UNL     1      -8.274  17.260  65.708  1.00  0.00    -0.533 OA 
HETATM   52  C   UNL     1      -8.569  16.428  66.557  1.00  0.00    -0.294 C  
HETATM   53  C   UNL     1     -10.467  17.189  67.879  1.00  0.00    -0.369 C  
HETATM   54  C   UNL     1     -10.619  15.993  65.445  1.00  0.00    -0.428 C  
HETATM   55  C   UNL     1     -10.008  16.093  66.910  1.00  0.00    -0.254 C  
HETATM   56  O   UNL     1      -7.644  15.738  67.253  1.00  0.00    -0.170 OA 
ENDBRANCH  48  50
ENDBRANCH  38  48
ENDBRANCH  35  38
ENDBRANCH  33  34
ENDBRANCH  21  22
ENDBRANCH   9  21
TORSDOF 11
ENDMDL
MODEL       55
REMARK 921   NORMALIZED FREE ENERGY PREDICTED BY IDOCK:   -3.78 KCAL/MOL
REMARK 922        TOTAL FREE ENERGY PREDICTED BY IDOCK:  -10.00 KCAL/MOL
REMARK 923 INTER-LIGAND FREE ENERGY PREDICTED BY IDOCK:   -8.91 KCAL/MOL
REMARK 924 INTRA-LIGAND FREE ENERGY PREDICTED BY IDOCK:   -1.08 KCAL/MOL
REMARK 927      BINDING AFFINITY PREDICTED BY RF-SCORE:    0.00 PKD
ROOT
HETATM    1  C   UNL     1     -11.599  15.484  68.063  1.00  0.00    -0.268 C  
HETATM    2  N   UNL     1     -10.201  15.575  67.694  1.00  0.00    -0.252 NA 
HETATM    3  C   UNL     1      -9.345  16.587  68.098  1.00  0.00    -0.218 A  
HETATM    4  C   UNL     1      -8.393  16.859  67.089  1.00  0.00    -0.193 A  
HETATM    5  N   UNL     1      -9.412  17.268  69.267  1.00  0.00    -0.035 NA 
HETATM    6  C   UNL     1      -8.817  15.969  66.036  1.00  0.00    -0.279 A  
HETATM    7  H2  UNL     1     -10.162  17.012  69.909  1.00  0.00     0.000 HD 
HETATM    8  H1  UNL     1      -8.783  18.013  69.564  1.00  0.00     0.000 HD 
HETATM    9  N   UNL     1      -9.674  14.986  66.601  1.00  0.00    -0.246 NA 
ENDROOT
BRANCH   4  10
HETATM   10  N   UNL     1      -7.466  17.875  67.235  1.00  0.00    -0.195 N  
HETATM   11  H   UNL     1      -6.518  17.682  66.913  1.00  0.00     0.000 HD 
BRANCH  10  12
HETATM   12  C   UNL     1      -7.694  19.107  67.767  1.00  0.00    -0.262 C  
HETATM   13  O   UNL     1      -7.350  19.338  68.920  1.00  0.00    -0.335 OA 
BRANCH  12  14
HETATM   14  N   UNL     1      -8.451  19.938  66.999  1.00  0.00    -0.315 N  
HETATM   15  H   UNL     1      -8.086  20.303  66.119  1.00  0.00     0.000 HD 
BRANCH  14  16
HETATM   16  C   UNL     1      -9.786  20.299  67.446  1.00  0.00    -0.444 C  
BRANCH  16  17
HETATM   17  C   UNL     1     -10.873  19.401  66.844  1.00  0.00    -0.404 C  
HETATM   18  H2  UNL     1      -9.853  19.136  65.068  1.00  0.00     0.000 HD 
HETATM   19  N   UNL     1     -10.784  19.399  65.391  1.00  0.00    -0.438 NA 
HETATM   20  H1  UNL     1     -11.507  18.801  64.990  1.00  0.00     0.000 HD 
ENDBRANCH  16  17
ENDBRANCH  14  16
ENDBRANCH  12  14
ENDBRANCH  10  12
ENDBRANCH   4  10
BRANCH   9  21
HETATM   21  C   UNL     1     -10.177  13.670  66.108  1.00  0.00    -0.304 C  
BRANCH  21  22
HETATM   22  C   UNL     1      -9.187  12.220  66.360  1.00  0.00    -0.203 C  
HETATM   23  CA  UNL     1      -7.532  11.933  67.284  1.00  0.00    -0.151 C  
HETATM   24  C   UNL     1      -7.049  10.102  69.006  1.00  0.00    -0.072 C  
HETATM   25  C   UNL     1     -10.151  10.814  65.571  1.00  0.00    -0.335 C  
HETATM   26  C   UNL     1      -6.259  13.133  68.053  1.00  0.00    -0.117 C  
HETATM   27  N   UNL     1      -6.882  10.474  67.658  1.00  0.00    -0.073 N  
HETATM   28  O   UNL     1      -7.181  10.721  70.053  1.00  0.00    -0.121 OA 
HETATM   29  S   UNL     1      -9.306   8.752  65.880  1.00  0.00    -0.188 SA 
HETATM   30  C   UNL     1      -7.470   9.042  67.157  1.00  0.00    -0.087 C  
HETATM   31  O   UNL     1      -6.070  14.237  67.444  1.00  0.00    -0.342 OA 
HETATM   32  OXT UNL     1      -5.586  12.586  68.963  1.00  0.00    -0.062 OA 
HETATM   33  CA  UNL     1      -7.709   8.755  68.692  1.00  0.00    -0.098 C  
BRANCH  33  34
HETATM   34  N   UNL     1      -9.100   8.654  69.251  1.00  0.00    -0.148 N  
HETATM   35  C   UNL     1      -9.858   7.547  69.657  1.00  0.00    -0.180 C  
HETATM   36  H   UNL     1      -9.578   9.550  69.353  1.00  0.00     0.000 HD 
HETATM   37  O   UNL     1     -10.969   7.831  70.104  1.00  0.00    -0.256 OA 
BRANCH  35  38
HETATM   38  C   UNL     1      -9.420   6.016  69.621  1.00  0.00    -0.144 C  
HETATM   39  C   UNL     1      -9.563   5.154  70.771  1.00  0.00    -0.179 C  
HETATM   40  C   UNL     1      -9.671   2.954  72.971  1.00  0.00    -0.109 C  
HETATM   41  N   UNL     1     -10.470   5.943  71.885  1.00  0.00    -0.213 NA 
HETATM   42  N   UNL     1     -10.006   1.776  73.577  1.00  0.00    -0.079 NA 
HETATM   43  H   UNL     1      -8.630   2.722  70.771  1.00  0.00     0.000 HD 
HETATM   44  S   UNL     1     -10.758   4.780  73.970  1.00  0.00    -0.257 SA 
HETATM   45  H1  UNL     1      -9.534   0.983  73.143  1.00  0.00     0.000 HD 
HETATM   46  H2  UNL     1     -10.649   1.699  74.365  1.00  0.00     0.000 HD 
HETATM   47  N   UNL     1      -9.138   3.380  71.362  1.00  0.00    -0.102 NA 
BRANCH  38  48
HETATM   48  N   UNL     1      -9.061   5.364  68.571  1.00  0.00    -0.107 NA 
HETATM   49  H   UNL     1      -8.328   5.732  67.964  1.00  0.00     0.000 HD 
BRANCH  48  50
HETATM   50  O   UNL     1      -9.665   4.179  68.274  1.00  0.00    -0.148 OA 
HETATM   51  O   UNL     1      -9.080   3.864  64.795  1.00  0.00    -0.127 OA 
HETATM   52  C   UNL     1      -9.584   4.043  65.897  1.00  0.00    -0.193 C  
HETATM   53  C   UNL     1      -9.275   2.082  67.307  1.00  0.00    -0.115 C  
HETATM   54  C   UNL     1      -7.435   4.038  66.900  1.00  0.00    -0.073 C  
HETATM   55  C   UNL     1      -8.928   3.571  67.183  1.00  0.00    -0.149 C  
HETATM   56  O   UNL     1     -10.764   4.672  66.065  1.00  0.00    -0.295 OA 
ENDBRANCH  48  50
ENDBRANCH  38  48
ENDBRANCH  35  38
ENDBRANCH  33  34
ENDBRANCH  21  22
ENDBRANCH   9  21
TORSDOF 11
ENDMDL
MODEL       56
REMARK 921   NORMALIZED FREE ENERGY PREDICTED BY IDOCK:   -3.75 KCAL/MOL
REMARK 922        TOTAL FREE ENERGY PREDICTED BY IDOCK:   -9.95 KCAL/MOL
REMARK 923 INTER-LIGAND FREE ENERGY PREDICTED BY IDOCK:   -7.99 KCAL/MOL
REMARK 924 INTRA-LIGAND FREE ENERGY PREDICTED BY IDOCK:   -1.96 KCAL/MOL
REMARK 927      BINDING AFFINITY PREDICTED BY RF-SCORE:    0.00 PKD
ROOT
HETATM    1  C   UNL     1      -5.692  10.360  64.848  1.00  0.00    -0.139 C  
HETATM    2  N   UNL     1      -6.464   9.246  64.339  1.00  0.00    -0.080 NA 
HETATM    3  C   UNL     1      -6.069   7.920  64.403  1.00  0.00    -0.052 A  
HETATM    4  C   UNL     1      -6.536   7.211  63.274  1.00  0.00    -0.052 A  
HETATM    5  N   UNL     1      -5.306   7.363  65.375  1.00  0.00    -0.028 NA 
HETATM    6  C   UNL     1      -7.173   8.257  62.511  1.00  0.00    -0.095 A  
HETATM    7  H2  UNL     1      -4.994   7.976  66.127  1.00  0.00     0.000 HD 
HETATM    8  H1  UNL     1      -5.015   6.387  65.422  1.00  0.00     0.000 HD 
HETATM    9  N   UNL     1      -7.402   9.362  63.375  1.00  0.00    -0.100 NA 
ENDROOT
BRANCH   4  10
HETATM   10  N   UNL     1      -6.215   5.879  63.082  1.00  0.00    -0.021 N  
HETATM   11  H   UNL     1      -5.336   5.682  62.604  1.00  0.00     0.000 HD 
BRANCH  10  12
HETATM   12  C   UNL     1      -6.956   4.805  63.469  1.00  0.00    -0.044 C  
HETATM   13  O   UNL     1      -7.935   4.480  62.808  1.00  0.00    -0.065 OA 
BRANCH  12  14
HETATM   14  N   UNL     1      -6.624   4.278  64.679  1.00  0.00    -0.042 N  
HETATM   15  H   UNL     1      -5.651   4.068  64.902  1.00  0.00     0.000 HD 
BRANCH  14  16
HETATM   16  C   UNL     1      -7.672   4.017  65.652  1.00  0.00    -0.089 C  
BRANCH  16  17
HETATM   17  C   UNL     1      -8.183   5.296  66.326  1.00  0.00    -0.109 C  
HETATM   18  H2  UNL     1      -9.964   5.292  65.282  1.00  0.00     0.000 HD 
HETATM   19  N   UNL     1      -9.202   5.933  65.505  1.00  0.00    -0.360 NA 
HETATM   20  H1  UNL     1      -9.542   6.783  65.953  1.00  0.00     0.000 HD 
ENDBRANCH  16  17
ENDBRANCH  14  16
ENDBRANCH  12  14
ENDBRANCH  10  12
ENDBRANCH   4  10
BRANCH   9  21
HETATM   21  C   UNL     1      -8.257  10.581  63.265  1.00  0.00    -0.111 C  
BRANCH  21  22
HETATM   22  C   UNL     1      -9.491  10.883  64.502  1.00  0.00    -0.284 C  
HETATM   23  CA  UNL     1      -9.488  10.661  66.407  1.00  0.00    -0.171 C  
HETATM   24  C   UNL     1     -10.215  12.398  68.141  1.00  0.00    -0.225 C  
HETATM   25  C   UNL     1     -10.951  11.622  63.581  1.00  0.00    -0.507 C  
HETATM   26  C   UNL     1      -8.255   9.830  67.608  1.00  0.00    -0.114 C  
HETATM   27  N   UNL     1     -10.619  11.244  67.442  1.00  0.00    -0.212 N  
HETATM   28  O   UNL     1      -9.133  12.850  68.491  1.00  0.00    -0.155 OA 
HETATM   29  S   UNL     1     -12.652  12.346  64.863  1.00  0.00    -0.098 SA 
HETATM   30  C   UNL     1     -12.005  11.965  66.990  1.00  0.00     0.056 C  
HETATM   31  O   UNL     1      -7.663   8.783  67.187  1.00  0.00    -0.094 OA 
HETATM   32  OXT UNL     1      -8.342  10.299  68.771  1.00  0.00    -0.110 OA 
HETATM   33  CA  UNL     1     -11.423  13.241  67.717  1.00  0.00    -0.317 C  
BRANCH  33  34
HETATM   34  N   UNL     1     -11.025  14.461  66.935  1.00  0.00    -0.302 N  
HETATM   35  C   UNL     1     -10.460  15.678  67.342  1.00  0.00    -0.291 C  
HETATM   36  H   UNL     1     -11.196  14.391  65.932  1.00  0.00     0.000 HD 
HETATM   37  O   UNL     1     -10.228  16.460  66.420  1.00  0.00    -0.291 OA 
BRANCH  35  38
HETATM   38  C   UNL     1     -10.080  16.114  68.825  1.00  0.00    -0.237 C  
HETATM   39  C   UNL     1     -11.026  16.027  69.913  1.00  0.00    -0.353 C  
HETATM   40  C   UNL     1     -12.712  16.025  72.530  1.00  0.00    -0.428 C  
HETATM   41  N   UNL     1     -12.323  15.175  69.387  1.00  0.00    -0.187 NA 
HETATM   42  N   UNL     1     -13.070  15.720  73.813  1.00  0.00    -0.700 NA 
HETATM   43  H   UNL     1     -10.466  16.959  72.280  1.00  0.00     0.000 HD 
HETATM   44  S   UNL     1     -14.125  14.987  70.969  1.00  0.00    -0.100 SA 
HETATM   45  H1  UNL     1     -12.456  16.171  74.492  1.00  0.00     0.000 HD 
HETATM   46  H2  UNL     1     -13.853  15.116  74.062  1.00  0.00     0.000 HD 
HETATM   47  N   UNL     1     -11.206  16.480  71.767  1.00  0.00     0.122 NA 
BRANCH  38  48
HETATM   48  N   UNL     1      -8.899  16.423  69.237  1.00  0.00    -0.186 NA 
HETATM   49  H   UNL     1      -8.655  17.398  69.408  1.00  0.00     0.000 HD 
BRANCH  48  50
HETATM   50  O   UNL     1      -7.980  15.440  69.442  1.00  0.00    -0.216 OA 
HETATM   51  O   UNL     1      -5.513  16.169  67.007  1.00  0.00    -0.339 OA 
HETATM   52  C   UNL     1      -6.436  15.676  67.642  1.00  0.00    -0.165 C  
HETATM   53  C   UNL     1      -5.708  15.079  69.887  1.00  0.00    -0.121 C  
HETATM   54  C   UNL     1      -6.474  17.558  69.085  1.00  0.00    -0.240 C  
HETATM   55  C   UNL     1      -6.675  15.981  69.111  1.00  0.00    -0.174 C  
HETATM   56  O   UNL     1      -7.320  14.818  67.094  1.00  0.00    -0.166 OA 
ENDBRANCH  48  50
ENDBRANCH  38  48
ENDBRANCH  35  38
ENDBRANCH  33  34
ENDBRANCH  21  22
ENDBRANCH   9  21
TORSDOF 11
ENDMDL
MODEL       57
REMARK 921   NORMALIZED FREE ENERGY PREDICTED BY IDOCK:   -3.66 KCAL/MOL
REMARK 922        TOTAL FREE ENERGY PREDICTED BY IDOCK:   -9.80 KCAL/MOL
REMARK 923 INTER-LIGAND FREE ENERGY PREDICTED BY IDOCK:   -8.07 KCAL/MOL
REMARK 924 INTRA-LIGAND FREE ENERGY PREDICTED BY IDOCK:   -1.73 KCAL/MOL
REMARK 927      BINDING AFFINITY PREDICTED BY RF-SCORE:    0.00 PKD
ROOT
HETATM    1  C   UNL     1     -10.374   5.732  69.562  1.00  0.00    -0.263 C  
HETATM    2  N   UNL     1      -9.364   4.705  69.718  1.00  0.00    -0.130 NA 
HETATM    3  C   UNL     1      -9.186   3.944  70.861  1.00  0.00    -0.129 A  
HETATM    4  C   UNL     1      -7.819   3.633  71.039  1.00  0.00    -0.051 A  
HETATM    5  N   UNL     1     -10.157   3.571  71.729  1.00  0.00    -0.129 NA 
HETATM    6  C   UNL     1      -7.210   4.343  69.940  1.00  0.00    -0.049 A  
HETATM    7  H2  UNL     1     -11.107   3.880  71.522  1.00  0.00     0.000 HD 
HETATM    8  H1  UNL     1     -10.026   3.011  72.571  1.00  0.00     0.000 HD 
HETATM    9  N   UNL     1      -8.225   4.658  68.997  1.00  0.00    -0.080 NA 
ENDROOT
BRANCH   4  10
HETATM   10  N   UNL     1      -7.382   2.931  72.148  1.00  0.00    -0.045 N  
HETATM   11  H   UNL     1      -7.303   1.919  72.049  1.00  0.00     0.000 HD 
BRANCH  10  12
HETATM   12  C   UNL     1      -7.049   3.456  73.358  1.00  0.00    -0.046 C  
HETATM   13  O   UNL     1      -6.647   2.714  74.246  1.00  0.00    -0.026 OA 
BRANCH  12  14
HETATM   14  N   UNL     1      -7.357   4.772  73.523  1.00  0.00    -0.081 N  
HETATM   15  H   UNL     1      -6.870   5.488  72.983  1.00  0.00     0.000 HD 
BRANCH  14  16
HETATM   16  C   UNL     1      -8.388   5.146  74.477  1.00  0.00    -0.100 C  
BRANCH  16  17
HETATM   17  C   UNL     1      -9.104   6.446  74.091  1.00  0.00    -0.158 C  
HETATM   18  H2  UNL     1     -10.979   5.693  74.515  1.00  0.00     0.000 HD 
HETATM   19  N   UNL     1     -10.497   6.182  73.761  1.00  0.00    -0.273 NA 
HETATM   20  H1  UNL     1     -10.974   7.046  73.505  1.00  0.00     0.000 HD 
ENDBRANCH  16  17
ENDBRANCH  14  16
ENDBRANCH  12  14
ENDBRANCH  10  12
ENDBRANCH   4  10
BRANCH   9  21
HETATM   21  C   UNL     1      -8.187   5.104  67.572  1.00  0.00    -0.103 C  
BRANCH  21  22
HETATM   22  C   UNL     1      -7.337   6.606  67.162  1.00  0.00    -0.083 C  
HETATM   23  CA  UNL     1      -7.187   7.598  65.528  1.00  0.00    -0.068 C  
HETATM   24  C   UNL     1      -7.571  10.111  65.234  1.00  0.00    -0.144 C  
HETATM   25  C   UNL     1      -6.581   7.208  68.773  1.00  0.00    -0.044 C  
HETATM   26  C   UNL     1      -7.700   7.206  63.729  1.00  0.00    -0.119 C  
HETATM   27  N   UNL     1      -6.586   9.117  65.379  1.00  0.00    -0.068 N  
HETATM   28  O   UNL     1      -8.712  10.126  64.790  1.00  0.00    -0.161 OA 
HETATM   29  S   UNL     1      -5.592   9.226  68.696  1.00  0.00    -0.040 SA 
HETATM   30  C   UNL     1      -5.874   9.953  66.579  1.00  0.00    -0.055 C  
HETATM   31  O   UNL     1      -7.587   5.995  63.351  1.00  0.00    -0.069 OA 
HETATM   32  OXT UNL     1      -7.885   8.251  63.054  1.00  0.00    -0.133 OA 
HETATM   33  CA  UNL     1      -7.076  10.964  66.408  1.00  0.00    -0.133 C  
BRANCH  33  34
HETATM   34  N   UNL     1      -8.114  11.119  67.483  1.00  0.00    -0.116 N  
HETATM   35  C   UNL     1      -8.903  12.216  67.857  1.00  0.00    -0.177 C  
HETATM   36  H   UNL     1      -8.272  10.278  68.039  1.00  0.00     0.000 HD 
HETATM   37  O   UNL     1      -9.688  11.983  68.776  1.00  0.00    -0.141 OA 
BRANCH  35  38
HETATM   38  C   UNL     1      -8.899  13.670  67.208  1.00  0.00    -0.224 C  
HETATM   39  C   UNL     1      -8.102  14.746  67.751  1.00  0.00    -0.152 C  
HETATM   40  C   UNL     1      -6.577  17.333  68.569  1.00  0.00    -0.174 C  
HETATM   41  N   UNL     1      -7.081  14.107  68.862  1.00  0.00    -0.107 NA 
HETATM   42  N   UNL     1      -5.736  18.404  68.455  1.00  0.00    -0.179 NA 
HETATM   43  H   UNL     1      -8.282  17.173  66.823  1.00  0.00     0.000 HD 
HETATM   44  S   UNL     1      -5.716  15.708  70.027  1.00  0.00    -0.149 SA 
HETATM   45  H1  UNL     1      -6.110  19.111  67.822  1.00  0.00     0.000 HD 
HETATM   46  H2  UNL     1      -4.844  18.487  68.943  1.00  0.00     0.000 HD 
HETATM   47  N   UNL     1      -7.780  16.621  67.519  1.00  0.00    -0.160 NA 
BRANCH  38  48
HETATM   48  N   UNL     1      -9.447  13.994  66.089  1.00  0.00    -0.470 NA 
HETATM   49  H   UNL     1      -9.402  14.956  65.756  1.00  0.00     0.000 HD 
BRANCH  48  50
HETATM   50  O   UNL     1     -10.088  13.043  65.353  1.00  0.00    -0.290 OA 
HETATM   51  O   UNL     1     -13.474  14.065  65.554  1.00  0.00    -0.677 OA 
HETATM   52  C   UNL     1     -12.405  13.483  65.693  1.00  0.00    -0.476 C  
HETATM   53  C   UNL     1     -11.538  12.760  63.536  1.00  0.00    -0.565 C  
HETATM   54  C   UNL     1     -11.277  15.251  64.585  1.00  0.00    -0.366 C  
HETATM   55  C   UNL     1     -11.242  13.669  64.735  1.00  0.00    -0.360 C  
HETATM   56  O   UNL     1     -12.169  12.626  66.706  1.00  0.00    -0.506 OA 
ENDBRANCH  48  50
ENDBRANCH  38  48
ENDBRANCH  35  38
ENDBRANCH  33  34
ENDBRANCH  21  22
ENDBRANCH   9  21
TORSDOF 11
ENDMDL
MODEL       58
REMARK 921   NORMALIZED FREE ENERGY PREDICTED BY IDOCK:   -3.66 KCAL/MOL
REMARK 922        TOTAL FREE ENERGY PREDICTED BY IDOCK:   -9.80 KCAL/MOL
REMARK 923 INTER-LIGAND FREE ENERGY PREDICTED BY IDOCK:   -8.77 KCAL/MOL
REMARK 924 INTRA-LIGAND FREE ENERGY PREDICTED BY IDOCK:   -1.03 KCAL/MOL
REMARK 927      BINDING AFFINITY PREDICTED BY RF-SCORE:    0.00 PKD
ROOT
HETATM    1  C   UNL     1      -8.856  16.056  66.236  1.00  0.00    -0.344 C  
HETATM    2  N   UNL     1      -8.790  17.134  67.201  1.00  0.00    -0.215 NA 
HETATM    3  C   UNL     1      -8.517  18.455  66.886  1.00  0.00    -0.265 A  
HETATM    4  C   UNL     1      -7.801  19.074  67.935  1.00  0.00    -0.271 A  
HETATM    5  N   UNL     1      -8.840  19.081  65.728  1.00  0.00    -0.320 NA 
HETATM    6  C   UNL     1      -7.617  17.978  68.854  1.00  0.00    -0.218 A  
HETATM    7  H2  UNL     1      -9.327  18.529  65.023  1.00  0.00     0.000 HD 
HETATM    8  H1  UNL     1      -8.639  20.053  65.496  1.00  0.00     0.000 HD 
HETATM    9  N   UNL     1      -8.540  16.952  68.514  1.00  0.00    -0.242 NA 
ENDROOT
BRANCH   4  10
HETATM   10  N   UNL     1      -7.361  20.381  67.827  1.00  0.00    -0.295 N  
HETATM   11  H   UNL     1      -8.024  21.061  67.457  1.00  0.00     0.000 HD 
BRANCH  10  12
HETATM   12  C   UNL     1      -6.129  20.850  68.166  1.00  0.00    -0.350 C  
HETATM   13  O   UNL     1      -5.845  20.996  69.349  1.00  0.00    -0.321 OA 
BRANCH  12  14
HETATM   14  N   UNL     1      -5.365  21.278  67.123  1.00  0.00    -0.251 N  
HETATM   15  H   UNL     1      -4.452  21.699  67.291  1.00  0.00     0.000 HD 
BRANCH  14  16
HETATM   16  C   UNL     1      -5.868  21.129  65.767  1.00  0.00    -0.244 C  
BRANCH  16  17
HETATM   17  C   UNL     1      -5.218  19.955  65.024  1.00  0.00    -0.156 C  
HETATM   18  H2  UNL     1      -6.730  19.835  63.623  1.00  0.00     0.000 HD 
HETATM   19  N   UNL     1      -6.215  19.224  64.257  1.00  0.00    -0.435 NA 
HETATM   20  H1  UNL     1      -5.784  18.443  63.762  1.00  0.00     0.000 HD 
ENDBRANCH  16  17
ENDBRANCH  14  16
ENDBRANCH  12  14
ENDBRANCH  10  12
ENDBRANCH   4  10
BRANCH   9  21
HETATM   21  C   UNL     1      -9.027  15.740  69.237  1.00  0.00    -0.266 C  
BRANCH  21  22
HETATM   22  C   UNL     1      -9.134  14.200  68.363  1.00  0.00    -0.191 C  
HETATM   23  CA  UNL     1      -7.805  12.925  67.830  1.00  0.00    -0.158 C  
HETATM   24  C   UNL     1      -7.884  10.396  68.213  1.00  0.00    -0.105 C  
HETATM   25  C   UNL     1     -10.968  13.917  68.073  1.00  0.00    -0.267 C  
HETATM   26  C   UNL     1      -5.894  12.970  67.844  1.00  0.00    -0.128 C  
HETATM   27  N   UNL     1      -8.098  11.413  67.264  1.00  0.00    -0.141 N  
HETATM   28  O   UNL     1      -7.167  10.283  69.198  1.00  0.00    -0.067 OA 
HETATM   29  S   UNL     1     -11.522  11.933  67.169  1.00  0.00    -0.292 SA 
HETATM   30  C   UNL     1      -9.574  10.824  66.918  1.00  0.00    -0.171 C  
HETATM   31  O   UNL     1      -5.345  14.092  67.594  1.00  0.00    -0.304 OA 
HETATM   32  OXT UNL     1      -5.397  11.816  67.884  1.00  0.00    -0.045 OA 
HETATM   33  CA  UNL     1      -9.281   9.782  68.069  1.00  0.00    -0.124 C  
BRANCH  33  34
HETATM   34  N   UNL     1     -10.057   9.814  69.355  1.00  0.00    -0.195 N  
HETATM   35  C   UNL     1     -10.155   8.885  70.401  1.00  0.00    -0.196 C  
HETATM   36  H   UNL     1     -10.610  10.660  69.491  1.00  0.00     0.000 HD 
HETATM   37  O   UNL     1     -10.867   9.251  71.336  1.00  0.00    -0.314 OA 
BRANCH  35  38
HETATM   38  C   UNL     1      -9.434   7.469  70.501  1.00  0.00    -0.164 C  
HETATM   39  C   UNL     1      -9.608   6.451  69.490  1.00  0.00    -0.144 C  
HETATM   40  C   UNL     1      -9.694   3.987  67.590  1.00  0.00    -0.109 C  
HETATM   41  N   UNL     1     -10.372   7.134  68.212  1.00  0.00    -0.188 NA 
HETATM   42  N   UNL     1      -9.235   3.008  66.754  1.00  0.00    -0.262 NA 
HETATM   43  H   UNL     1      -8.613   4.062  69.782  1.00  0.00     0.000 HD 
HETATM   44  S   UNL     1     -10.910   5.620  66.422  1.00  0.00     0.045 SA 
HETATM   45  H1  UNL     1      -8.707   2.298  67.262  1.00  0.00     0.000 HD 
HETATM   46  H2  UNL     1      -9.400   2.989  65.748  1.00  0.00     0.000 HD 
HETATM   47  N   UNL     1      -9.147   4.627  69.122  1.00  0.00    -0.109 NA 
BRANCH  38  48
HETATM   48  N   UNL     1      -8.533   7.145  71.361  1.00  0.00    -0.116 NA 
HETATM   49  H   UNL     1      -7.552   7.100  71.084  1.00  0.00     0.000 HD 
BRANCH  48  50
HETATM   50  O   UNL     1      -8.896   6.862  72.643  1.00  0.00    -0.125 OA 
HETATM   51  O   UNL     1      -8.805   3.321  72.707  1.00  0.00    -0.084 OA 
HETATM   52  C   UNL     1      -9.158   4.493  72.683  1.00  0.00    -0.122 C  
HETATM   53  C   UNL     1      -8.205   5.712  74.563  1.00  0.00    -0.105 C  
HETATM   54  C   UNL     1      -6.933   5.174  72.225  1.00  0.00    -0.079 C  
HETATM   55  C   UNL     1      -8.222   5.637  73.031  1.00  0.00    -0.118 C  
HETATM   56  O   UNL     1     -10.408   4.871  72.348  1.00  0.00    -0.192 OA 
ENDBRANCH  48  50
ENDBRANCH  38  48
ENDBRANCH  35  38
ENDBRANCH  33  34
ENDBRANCH  21  22
ENDBRANCH   9  21
TORSDOF 11
ENDMDL
MODEL       59
REMARK 921   NORMALIZED FREE ENERGY PREDICTED BY IDOCK:   -3.65 KCAL/MOL
REMARK 922        TOTAL FREE ENERGY PREDICTED BY IDOCK:   -9.78 KCAL/MOL
REMARK 923 INTER-LIGAND FREE ENERGY PREDICTED BY IDOCK:   -8.27 KCAL/MOL
REMARK 924 INTRA-LIGAND FREE ENERGY PREDICTED BY IDOCK:   -1.51 KCAL/MOL
REMARK 927      BINDING AFFINITY PREDICTED BY RF-SCORE:    0.00 PKD
ROOT
HETATM    1  C   UNL     1      -6.578   2.811  68.097  1.00  0.00    -0.036 C  
HETATM    2  N   UNL     1      -6.150   3.481  69.308  1.00  0.00    -0.027 NA 
HETATM    3  C   UNL     1      -6.386   3.014  70.590  1.00  0.00    -0.023 A  
HETATM    4  C   UNL     1      -6.567   4.095  71.482  1.00  0.00    -0.026 A  
HETATM    5  N   UNL     1      -6.480   1.714  70.960  1.00  0.00    -0.022 NA 
HETATM    6  C   UNL     1      -6.489   5.228  70.593  1.00  0.00    -0.027 A  
HETATM    7  H2  UNL     1      -6.367   1.014  70.226  1.00  0.00     0.000 HD 
HETATM    8  H1  UNL     1      -6.655   1.370  71.904  1.00  0.00     0.000 HD 
HETATM    9  N   UNL     1      -5.884   4.801  69.380  1.00  0.00    -0.016 NA 
ENDROOT
BRANCH   4  10
HETATM   10  N   UNL     1      -6.878   3.880  72.813  1.00  0.00    -0.041 N  
HETATM   11  H   UNL     1      -6.100   3.677  73.440  1.00  0.00     0.000 HD 
BRANCH  10  12
HETATM   12  C   UNL     1      -8.120   3.911  73.368  1.00  0.00    -0.088 C  
HETATM   13  O   UNL     1      -8.622   2.872  73.778  1.00  0.00    -0.072 OA 
BRANCH  12  14
HETATM   14  N   UNL     1      -8.770   5.103  73.265  1.00  0.00    -0.116 N  
HETATM   15  H   UNL     1      -8.505   5.889  73.859  1.00  0.00     0.000 HD 
BRANCH  14  16
HETATM   16  C   UNL     1      -9.848   5.243  72.299  1.00  0.00    -0.168 C  
BRANCH  16  17
HETATM   17  C   UNL     1     -11.172   5.658  72.950  1.00  0.00    -0.290 C  
HETATM   18  H2  UNL     1     -10.432   7.471  73.606  1.00  0.00     0.000 HD 
HETATM   19  N   UNL     1     -10.943   6.668  73.973  1.00  0.00    -0.329 NA 
HETATM   20  H1  UNL     1     -11.823   6.945  74.406  1.00  0.00     0.000 HD 
ENDBRANCH  16  17
ENDBRANCH  14  16
ENDBRANCH  12  14
ENDBRANCH  10  12
ENDBRANCH   4  10
BRANCH   9  21
HETATM   21  C   UNL     1      -5.280   5.537  68.230  1.00  0.00    -0.004 C  
BRANCH  21  22
HETATM   22  C   UNL     1      -6.347   6.212  66.984  1.00  0.00    -0.038 C  
HETATM   23  CA  UNL     1      -8.250   6.171  66.755  1.00  0.00    -0.109 C  
HETATM   24  C   UNL     1      -9.768   8.175  66.277  1.00  0.00    -0.153 C  
HETATM   25  C   UNL     1      -5.218   7.163  65.822  1.00  0.00    -0.024 C  
HETATM   26  C   UNL     1      -9.636   5.205  67.649  1.00  0.00    -0.140 C  
HETATM   27  N   UNL     1      -9.108   7.078  65.692  1.00  0.00     0.048 N  
HETATM   28  O   UNL     1     -10.207   8.412  67.395  1.00  0.00    -0.215 OA 
HETATM   29  S   UNL     1      -6.246   8.354  64.214  1.00  0.00    -0.067 SA 
HETATM   30  C   UNL     1      -8.454   8.037  64.553  1.00  0.00     0.042 C  
HETATM   31  O   UNL     1      -9.358   4.021  68.027  1.00  0.00    -0.145 OA 
HETATM   32  OXT UNL     1     -10.747   5.786  67.560  1.00  0.00    -0.252 OA 
HETATM   33  CA  UNL     1      -9.153   9.218  65.336  1.00  0.00    -0.222 C  
BRANCH  33  34
HETATM   34  N   UNL     1      -8.341  10.245  66.071  1.00  0.00    -0.137 N  
HETATM   35  C   UNL     1      -8.722  11.291  66.924  1.00  0.00    -0.157 C  
HETATM   36  H   UNL     1      -7.334  10.169  65.924  1.00  0.00     0.000 HD 
HETATM   37  O   UNL     1      -7.779  11.933  67.388  1.00  0.00    -0.139 OA 
BRANCH  35  38
HETATM   38  C   UNL     1     -10.202  11.691  67.354  1.00  0.00    -0.203 C  
HETATM   39  C   UNL     1     -10.826  11.150  68.539  1.00  0.00    -0.203 C  
HETATM   40  C   UNL     1     -12.556  10.245  70.963  1.00  0.00    -0.390 C  
HETATM   41  N   UNL     1      -9.673  10.371  69.405  1.00  0.00    -0.219 NA 
HETATM   42  N   UNL     1     -13.301  10.348  72.104  1.00  0.00    -0.567 NA 
HETATM   43  H   UNL     1     -13.322  11.632  69.101  1.00  0.00     0.000 HD 
HETATM   44  S   UNL     1     -10.469   9.254  71.381  1.00  0.00    -0.292 SA 
HETATM   45  H1  UNL     1     -14.208  10.779  71.923  1.00  0.00     0.000 HD 
HETATM   46  H2  UNL     1     -12.989  10.035  73.023  1.00  0.00     0.000 HD 
HETATM   47  N   UNL     1     -12.505  11.141  69.463  1.00  0.00    -0.265 NA 
BRANCH  38  48
HETATM   48  N   UNL     1     -10.914  12.619  66.814  1.00  0.00    -0.254 NA 
HETATM   49  H   UNL     1     -11.925  12.634  66.952  1.00  0.00     0.000 HD 
BRANCH  48  50
HETATM   50  O   UNL     1     -10.311  13.578  66.060  1.00  0.00    -0.289 OA 
HETATM   51  O   UNL     1     -12.292  13.610  63.123  1.00  0.00    -0.729 OA 
HETATM   52  C   UNL     1     -11.396  13.447  63.943  1.00  0.00    -0.260 C  
HETATM   53  C   UNL     1     -10.726  15.577  64.912  1.00  0.00    -0.415 C  
HETATM   54  C   UNL     1     -12.858  14.089  65.696  1.00  0.00    -0.442 C  
HETATM   55  C   UNL     1     -11.336  14.213  65.253  1.00  0.00    -0.328 C  
HETATM   56  O   UNL     1     -10.385  12.577  63.752  1.00  0.00    -0.418 OA 
ENDBRANCH  48  50
ENDBRANCH  38  48
ENDBRANCH  35  38
ENDBRANCH  33  34
ENDBRANCH  21  22
ENDBRANCH   9  21
TORSDOF 11
ENDMDL
MODEL       60
REMARK 921   NORMALIZED FREE ENERGY PREDICTED BY IDOCK:   -3.65 KCAL/MOL
REMARK 922        TOTAL FREE ENERGY PREDICTED BY IDOCK:   -9.78 KCAL/MOL
REMARK 923 INTER-LIGAND FREE ENERGY PREDICTED BY IDOCK:   -8.54 KCAL/MOL
REMARK 924 INTRA-LIGAND FREE ENERGY PREDICTED BY IDOCK:   -1.24 KCAL/MOL
REMARK 927      BINDING AFFINITY PREDICTED BY RF-SCORE:    0.00 PKD
ROOT
HETATM    1  C   UNL     1     -10.467  16.484  65.215  1.00  0.00    -0.213 C  
HETATM    2  N   UNL     1     -10.215  17.116  66.494  1.00  0.00    -0.316 NA 
HETATM    3  C   UNL     1      -9.805  18.429  66.656  1.00  0.00    -0.353 A  
HETATM    4  C   UNL     1      -8.960  18.546  67.782  1.00  0.00    -0.275 A  
HETATM    5  N   UNL     1     -10.117  19.467  65.842  1.00  0.00    -0.464 NA 
HETATM    6  C   UNL     1      -8.855  17.174  68.216  1.00  0.00    -0.245 A  
HETATM    7  H2  UNL     1     -10.708  19.262  65.037  1.00  0.00     0.000 HD 
HETATM    8  H1  UNL     1      -9.815  20.433  65.961  1.00  0.00     0.000 HD 
HETATM    9  N   UNL     1      -9.913  16.436  67.619  1.00  0.00    -0.248 NA 
ENDROOT
BRANCH   4  10
HETATM   10  N   UNL     1      -8.372  19.754  68.113  1.00  0.00    -0.310 N  
HETATM   11  H   UNL     1      -8.937  20.592  67.977  1.00  0.00     0.000 HD 
BRANCH  10  12
HETATM   12  C   UNL     1      -7.116  19.935  68.603  1.00  0.00    -0.303 C  
HETATM   13  O   UNL     1      -6.788  19.373  69.641  1.00  0.00    -0.292 OA 
BRANCH  12  14
HETATM   14  N   UNL     1      -6.374  20.879  67.960  1.00  0.00    -0.335 N  
HETATM   15  H   UNL     1      -5.768  21.506  68.488  1.00  0.00     0.000 HD 
BRANCH  14  16
HETATM   16  C   UNL     1      -6.457  20.982  66.512  1.00  0.00    -0.272 C  
BRANCH  16  17
HETATM   17  C   UNL     1      -5.647  19.894  65.796  1.00  0.00    -0.170 C  
HETATM   18  H2  UNL     1      -7.033  19.676  64.281  1.00  0.00     0.000 HD 
HETATM   19  N   UNL     1      -6.512  19.096  64.940  1.00  0.00    -0.470 NA 
HETATM   20  H1  UNL     1      -5.974  18.372  64.463  1.00  0.00     0.000 HD 
ENDBRANCH  16  17
ENDBRANCH  14  16
ENDBRANCH  12  14
ENDBRANCH  10  12
ENDBRANCH   4  10
BRANCH   9  21
HETATM   21  C   UNL     1     -10.498  15.091  67.897  1.00  0.00    -0.247 C  
BRANCH  21  22
HETATM   22  C   UNL     1      -9.737  13.656  67.184  1.00  0.00    -0.245 C  
HETATM   23  CA  UNL     1      -8.008  12.862  67.419  1.00  0.00    -0.178 C  
HETATM   24  C   UNL     1      -7.520  10.396  67.898  1.00  0.00    -0.087 C  
HETATM   25  C   UNL     1     -11.057  12.880  66.096  1.00  0.00    -0.314 C  
HETATM   26  C   UNL     1      -6.428  13.454  68.316  1.00  0.00    -0.102 C  
HETATM   27  N   UNL     1      -7.554  11.377  66.890  1.00  0.00    -0.146 N  
HETATM   28  O   UNL     1      -7.344  10.420  69.109  1.00  0.00    -0.082 OA 
HETATM   29  S   UNL     1     -10.528  10.895  65.180  1.00  0.00    -0.205 SA 
HETATM   30  C   UNL     1      -8.459  10.416  65.940  1.00  0.00    -0.156 C  
HETATM   31  O   UNL     1      -6.176  14.702  68.272  1.00  0.00    -0.101 OA 
HETATM   32  OXT UNL     1      -5.696  12.493  68.663  1.00  0.00    -0.053 OA 
HETATM   33  CA  UNL     1      -8.446   9.418  67.165  1.00  0.00    -0.128 C  
BRANCH  33  34
HETATM   34  N   UNL     1      -9.701   9.128  67.939  1.00  0.00    -0.150 N  
HETATM   35  C   UNL     1     -10.026   8.088  68.821  1.00  0.00    -0.189 C  
HETATM   36  H   UNL     1     -10.449   9.807  67.796  1.00  0.00     0.000 HD 
HETATM   37  O   UNL     1     -11.151   8.176  69.312  1.00  0.00    -0.036 OA 
BRANCH  35  38
HETATM   38  C   UNL     1      -9.099   6.868  69.253  1.00  0.00    -0.140 C  
HETATM   39  C   UNL     1      -8.972   6.454  70.631  1.00  0.00    -0.144 C  
HETATM   40  C   UNL     1      -8.390   5.233  73.434  1.00  0.00    -0.114 C  
HETATM   41  N   UNL     1     -10.119   7.239  71.500  1.00  0.00    -0.186 NA 
HETATM   42  N   UNL     1      -8.325   4.293  74.424  1.00  0.00    -0.090 NA 
HETATM   43  H   UNL     1      -7.277   4.612  71.348  1.00  0.00     0.000 HD 
HETATM   44  S   UNL     1     -10.051   6.834  73.870  1.00  0.00    -0.366 SA 
HETATM   45  H1  UNL     1      -7.603   3.598  74.235  1.00  0.00     0.000 HD 
HETATM   46  H2  UNL     1      -8.924   4.287  75.250  1.00  0.00     0.000 HD 
HETATM   47  N   UNL     1      -7.991   5.230  71.732  1.00  0.00    -0.110 NA 
BRANCH  38  48
HETATM   48  N   UNL     1      -8.515   6.049  68.448  1.00  0.00    -0.112 NA 
HETATM   49  H   UNL     1      -7.679   5.546  68.746  1.00  0.00     0.000 HD 
BRANCH  48  50
HETATM   50  O   UNL     1      -9.021   5.857  67.198  1.00  0.00    -0.115 OA 
HETATM   51  O   UNL     1      -6.141   4.993  65.326  1.00  0.00    -0.028 OA 
HETATM   52  C   UNL     1      -7.103   5.573  65.813  1.00  0.00    -0.067 C  
HETATM   53  C   UNL     1      -9.143   4.293  65.459  1.00  0.00    -0.138 C  
HETATM   54  C   UNL     1      -7.335   3.863  67.439  1.00  0.00    -0.068 C  
HETATM   55  C   UNL     1      -8.213   4.843  66.548  1.00  0.00    -0.107 C  
HETATM   56  O   UNL     1      -7.261   6.909  65.738  1.00  0.00    -0.070 OA 
ENDBRANCH  48  50
ENDBRANCH  38  48
ENDBRANCH  35  38
ENDBRANCH  33  34
ENDBRANCH  21  22
ENDBRANCH   9  21
TORSDOF 11
ENDMDL
MODEL       61
REMARK 921   NORMALIZED FREE ENERGY PREDICTED BY IDOCK:   -3.58 KCAL/MOL
REMARK 922        TOTAL FREE ENERGY PREDICTED BY IDOCK:   -9.66 KCAL/MOL
REMARK 923 INTER-LIGAND FREE ENERGY PREDICTED BY IDOCK:   -8.55 KCAL/MOL
REMARK 924 INTRA-LIGAND FREE ENERGY PREDICTED BY IDOCK:   -1.11 KCAL/MOL
REMARK 927      BINDING AFFINITY PREDICTED BY RF-SCORE:    0.00 PKD
ROOT
HETATM    1  C   UNL     1     -10.788   6.943  67.186  1.00  0.00    -0.377 C  
HETATM    2  N   UNL     1      -9.610   7.707  67.546  1.00  0.00    -0.139 NA 
HETATM    3  C   UNL     1      -8.733   7.367  68.563  1.00  0.00    -0.127 A  
HETATM    4  C   UNL     1      -8.205   8.530  69.168  1.00  0.00    -0.119 A  
HETATM    5  N   UNL     1      -8.437   6.110  68.972  1.00  0.00    -0.118 NA 
HETATM    6  C   UNL     1      -8.909   9.574  68.463  1.00  0.00    -0.124 A  
HETATM    7  H2  UNL     1      -8.903   5.343  68.488  1.00  0.00     0.000 HD 
HETATM    8  H1  UNL     1      -7.792   5.859  69.721  1.00  0.00     0.000 HD 
HETATM    9  N   UNL     1      -9.455   9.019  67.275  1.00  0.00    -0.145 NA 
ENDROOT
BRANCH   4  10
HETATM   10  N   UNL     1      -7.350   8.448  70.252  1.00  0.00    -0.054 N  
HETATM   11  H   UNL     1      -6.353   8.385  70.047  1.00  0.00     0.000 HD 
BRANCH  10  12
HETATM   12  C   UNL     1      -7.707   8.441  71.565  1.00  0.00    -0.103 C  
HETATM   13  O   UNL     1      -7.026   9.056  72.377  1.00  0.00    -0.320 OA 
BRANCH  12  14
HETATM   14  N   UNL     1      -8.724   7.593  71.884  1.00  0.00    -0.110 N  
HETATM   15  H   UNL     1      -8.588   6.584  71.836  1.00  0.00     0.000 HD 
BRANCH  14  16
HETATM   16  C   UNL     1     -10.005   8.144  72.294  1.00  0.00    -0.263 C  
BRANCH  16  17
HETATM   17  C   UNL     1     -11.193   7.362  71.719  1.00  0.00    -0.246 C  
HETATM   18  H2  UNL     1     -12.594   8.667  72.492  1.00  0.00     0.000 HD 
HETATM   19  N   UNL     1     -12.408   7.664  72.461  1.00  0.00    -0.547 NA 
HETATM   20  H1  UNL     1     -13.199   7.144  72.079  1.00  0.00     0.000 HD 
ENDBRANCH  16  17
ENDBRANCH  14  16
ENDBRANCH  12  14
ENDBRANCH  10  12
ENDBRANCH   4  10
BRANCH   9  21
HETATM   21  C   UNL     1     -10.014   9.627  66.031  1.00  0.00    -0.274 C  
BRANCH  21  22
HETATM   22  C   UNL     1     -10.854  11.186  66.136  1.00  0.00    -0.247 C  
HETATM   23  CA  UNL     1     -11.524  12.192  67.625  1.00  0.00    -0.331 C  
HETATM   24  C   UNL     1     -11.108  14.673  68.094  1.00  0.00    -0.274 C  
HETATM   25  C   UNL     1     -10.927  11.834  64.374  1.00  0.00    -0.397 C  
HETATM   26  C   UNL     1     -11.731  11.771  69.478  1.00  0.00    -0.343 C  
HETATM   27  N   UNL     1     -12.036  13.750  67.578  1.00  0.00    -0.373 N  
HETATM   28  O   UNL     1     -10.211  14.609  68.925  1.00  0.00    -0.234 OA 
HETATM   29  S   UNL     1     -11.739  13.917  64.130  1.00  0.00    -0.292 SA 
HETATM   30  C   UNL     1     -12.203  14.629  66.219  1.00  0.00    -0.145 C  
HETATM   31  O   UNL     1     -12.056  10.572  69.761  1.00  0.00    -0.274 OA 
HETATM   32  OXT UNL     1     -11.737  12.803  70.196  1.00  0.00    -0.269 OA 
HETATM   33  CA  UNL     1     -11.082  15.554  66.840  1.00  0.00    -0.221 C  
BRANCH  33  34
HETATM   34  N   UNL     1      -9.716  15.633  66.222  1.00  0.00    -0.277 N  
HETATM   35  C   UNL     1      -8.476  16.007  66.760  1.00  0.00    -0.260 C  
HETATM   36  H   UNL     1      -9.684  15.367  65.237  1.00  0.00     0.000 HD 
HETATM   37  O   UNL     1      -7.537  15.925  65.968  1.00  0.00     0.359 OA 
BRANCH  35  38
HETATM   38  C   UNL     1      -8.177  16.482  68.250  1.00  0.00    -0.185 C  
HETATM   39  C   UNL     1      -7.506  15.630  69.203  1.00  0.00    -0.201 C  
HETATM   40  C   UNL     1      -6.120  14.156  71.569  1.00  0.00     0.077 C  
HETATM   41  N   UNL     1      -6.910  14.336  68.392  1.00  0.00    -0.094 NA 
HETATM   42  N   UNL     1      -5.211  13.916  72.561  1.00  0.00    -0.248 NA 
HETATM   43  H   UNL     1      -7.233  16.330  71.697  1.00  0.00     0.000 HD 
HETATM   44  S   UNL     1      -5.848  12.675  69.769  1.00  0.00    -0.132 SA 
HETATM   45  H1  UNL     1      -5.329  14.559  73.344  1.00  0.00     0.000 HD 
HETATM   46  H2  UNL     1      -4.502  13.183  72.524  1.00  0.00     0.000 HD 
HETATM   47  N   UNL     1      -7.001  15.575  71.052  1.00  0.00     1.216 NA 
BRANCH  38  48
HETATM   48  N   UNL     1      -8.343  17.676  68.704  1.00  0.00    -0.286 NA 
HETATM   49  H   UNL     1      -8.777  17.822  69.615  1.00  0.00     0.000 HD 
BRANCH  48  50
HETATM   50  O   UNL     1      -7.935  18.742  67.960  1.00  0.00    -0.267 OA 
HETATM   51  O   UNL     1     -10.990  20.019  66.702  1.00  0.00    -0.291 OA 
HETATM   52  C   UNL     1      -9.902  19.472  66.830  1.00  0.00    -0.369 C  
HETATM   53  C   UNL     1      -8.250  21.046  67.681  1.00  0.00     0.057 C  
HETATM   54  C   UNL     1     -10.053  19.684  69.188  1.00  0.00    -0.386 C  
HETATM   55  C   UNL     1      -8.985  19.741  68.011  1.00  0.00    -0.311 C  
HETATM   56  O   UNL     1      -9.421  18.587  65.935  1.00  0.00    -0.488 OA 
ENDBRANCH  48  50
ENDBRANCH  38  48
ENDBRANCH  35  38
ENDBRANCH  33  34
ENDBRANCH  21  22
ENDBRANCH   9  21
TORSDOF 11
ENDMDL
MODEL       62
REMARK 921   NORMALIZED FREE ENERGY PREDICTED BY IDOCK:   -3.51 KCAL/MOL
REMARK 922        TOTAL FREE ENERGY PREDICTED BY IDOCK:   -9.55 KCAL/MOL
REMARK 923 INTER-LIGAND FREE ENERGY PREDICTED BY IDOCK:   -7.31 KCAL/MOL
REMARK 924 INTRA-LIGAND FREE ENERGY PREDICTED BY IDOCK:   -2.25 KCAL/MOL
REMARK 927      BINDING AFFINITY PREDICTED BY RF-SCORE:    0.00 PKD
ROOT
HETATM    1  C   UNL     1      -5.474   6.061  68.864  1.00  0.00    -0.007 C  
HETATM    2  N   UNL     1      -6.879   5.762  69.052  1.00  0.00    -0.060 NA 
HETATM    3  C   UNL     1      -7.532   4.672  68.502  1.00  0.00    -0.065 A  
HETATM    4  C   UNL     1      -8.872   5.002  68.199  1.00  0.00    -0.102 A  
HETATM    5  N   UNL     1      -6.980   3.463  68.238  1.00  0.00    -0.049 NA 
HETATM    6  C   UNL     1      -8.919   6.399  68.552  1.00  0.00    -0.125 A  
HETATM    7  H2  UNL     1      -5.993   3.344  68.466  1.00  0.00     0.000 HD 
HETATM    8  H1  UNL     1      -7.460   2.660  67.833  1.00  0.00     0.000 HD 
HETATM    9  N   UNL     1      -7.804   6.686  69.385  1.00  0.00    -0.111 NA 
ENDROOT
BRANCH   4  10
HETATM   10  N   UNL     1      -9.711   4.091  67.582  1.00  0.00    -0.151 N  
HETATM   11  H   UNL     1     -10.079   3.338  68.163  1.00  0.00     0.000 HD 
BRANCH  10  12
HETATM   12  C   UNL     1     -10.094   4.100  66.276  1.00  0.00    -0.104 C  
HETATM   13  O   UNL     1     -10.915   4.925  65.896  1.00  0.00    -0.248 OA 
BRANCH  12  14
HETATM   14  N   UNL     1      -9.636   3.056  65.531  1.00  0.00    -0.357 N  
HETATM   15  H   UNL     1      -9.851   2.096  65.802  1.00  0.00     0.000 HD 
BRANCH  14  16
HETATM   16  C   UNL     1      -8.839   3.325  64.346  1.00  0.00    -0.103 C  
BRANCH  16  17
HETATM   17  C   UNL     1      -9.632   3.136  63.047  1.00  0.00    -0.094 C  
HETATM   18  H2  UNL     1     -11.379   2.643  64.031  1.00  0.00     0.000 HD 
HETATM   19  N   UNL     1     -10.791   2.287  63.277  1.00  0.00    -0.251 NA 
HETATM   20  H1  UNL     1     -11.319   2.162  62.413  1.00  0.00     0.000 HD 
ENDBRANCH  16  17
ENDBRANCH  14  16
ENDBRANCH  12  14
ENDBRANCH  10  12
ENDBRANCH   4  10
BRANCH   9  21
HETATM   21  C   UNL     1      -7.471   7.833  70.281  1.00  0.00    -0.079 C  
BRANCH  21  22
HETATM   22  C   UNL     1      -6.804   9.315  69.571  1.00  0.00    -0.048 C  
HETATM   23  CA  UNL     1      -6.738   9.966  67.768  1.00  0.00    -0.072 C  
HETATM   24  C   UNL     1      -7.424  12.297  66.967  1.00  0.00    -0.063 C  
HETATM   25  C   UNL     1      -6.169  10.323  71.024  1.00  0.00     0.066 C  
HETATM   26  C   UNL     1      -7.154   9.155  66.088  1.00  0.00    -0.087 C  
HETATM   27  N   UNL     1      -6.327  11.486  67.311  1.00  0.00    -0.094 N  
HETATM   28  O   UNL     1      -8.546  12.077  66.530  1.00  0.00    -0.177 OA 
HETATM   29  S   UNL     1      -5.436  12.392  70.534  1.00  0.00    -0.168 SA 
HETATM   30  C   UNL     1      -5.754  12.632  68.314  1.00  0.00    -0.062 C  
HETATM   31  O   UNL     1      -6.881   7.916  65.966  1.00  0.00    -0.056 OA 
HETATM   32  OXT UNL     1      -7.450  10.008  65.214  1.00  0.00    -0.125 OA 
HETATM   33  CA  UNL     1      -7.068  13.426  67.940  1.00  0.00    -0.137 C  
BRANCH  33  34
HETATM   34  N   UNL     1      -8.143  13.664  68.962  1.00  0.00    -0.341 N  
HETATM   35  C   UNL     1      -9.398  14.281  68.860  1.00  0.00    -0.053 C  
HETATM   36  H   UNL     1      -7.921  13.315  69.895  1.00  0.00     0.000 HD 
HETATM   37  O   UNL     1     -10.050  14.276  69.904  1.00  0.00     0.332 OA 
BRANCH  35  38
HETATM   38  C   UNL     1     -10.044  14.937  67.561  1.00  0.00    -0.228 C  
HETATM   39  C   UNL     1      -9.941  16.352  67.287  1.00  0.00    -0.258 C  
HETATM   40  C   UNL     1      -9.983  19.305  66.306  1.00  0.00    -0.413 C  
HETATM   41  N   UNL     1      -8.858  16.991  68.338  1.00  0.00    -0.239 NA 
HETATM   42  N   UNL     1      -9.771  20.376  65.483  1.00  0.00    -0.456 NA 
HETATM   43  H   UNL     1     -11.198  17.445  65.286  1.00  0.00     0.000 HD 
HETATM   44  S   UNL     1      -8.586  19.376  68.192  1.00  0.00    -0.343 SA 
HETATM   45  H1  UNL     1     -10.377  20.346  64.664  1.00  0.00     0.000 HD 
HETATM   46  H2  UNL     1      -9.091  21.114  65.666  1.00  0.00     0.000 HD 
HETATM   47  N   UNL     1     -10.564  17.677  66.050  1.00  0.00    -0.346 NA 
BRANCH  38  48
HETATM   48  N   UNL     1     -10.563  14.292  66.574  1.00  0.00    -0.283 NA 
HETATM   49  H   UNL     1     -10.940  13.355  66.716  1.00  0.00     0.000 HD 
BRANCH  48  50
HETATM   50  O   UNL     1     -10.607  14.870  65.341  1.00  0.00    -0.318 OA 
HETATM   51  O   UNL     1     -12.196  12.383  63.381  1.00  0.00    -0.520 OA 
HETATM   52  C   UNL     1     -11.383  13.141  63.897  1.00  0.00    -0.374 C  
HETATM   53  C   UNL     1     -12.074  15.458  63.613  1.00  0.00     0.643 C  
HETATM   54  C   UNL     1     -12.979  13.767  65.535  1.00  0.00    -0.363 C  
HETATM   55  C   UNL     1     -11.797  14.382  64.669  1.00  0.00    -0.451 C  
HETATM   56  O   UNL     1     -10.053  12.941  63.823  1.00  0.00    -0.368 OA 
ENDBRANCH  48  50
ENDBRANCH  38  48
ENDBRANCH  35  38
ENDBRANCH  33  34
ENDBRANCH  21  22
ENDBRANCH   9  21
TORSDOF 11
ENDMDL
MODEL       63
REMARK 921   NORMALIZED FREE ENERGY PREDICTED BY IDOCK:   -3.38 KCAL/MOL
REMARK 922        TOTAL FREE ENERGY PREDICTED BY IDOCK:   -9.35 KCAL/MOL
REMARK 923 INTER-LIGAND FREE ENERGY PREDICTED BY IDOCK:   -8.73 KCAL/MOL
REMARK 924 INTRA-LIGAND FREE ENERGY PREDICTED BY IDOCK:   -0.62 KCAL/MOL
REMARK 927      BINDING AFFINITY PREDICTED BY RF-SCORE:    0.00 PKD
ROOT
HETATM    1  C   UNL     1     -11.669  11.007  67.875  1.00  0.00    -0.135 C  
HETATM    2  N   UNL     1     -11.368  12.390  67.567  1.00  0.00    -0.294 NA 
HETATM    3  C   UNL     1     -11.473  13.437  68.466  1.00  0.00    -0.310 A  
HETATM    4  C   UNL     1     -11.860  14.622  67.800  1.00  0.00    -0.329 A  
HETATM    5  N   UNL     1     -11.282  13.360  69.806  1.00  0.00    -0.477 NA 
HETATM    6  C   UNL     1     -12.042  14.154  66.448  1.00  0.00    -0.451 A  
HETATM    7  H2  UNL     1     -11.039  12.445  70.186  1.00  0.00     0.000 HD 
HETATM    8  H1  UNL     1     -11.360  14.130  70.468  1.00  0.00     0.000 HD 
HETATM    9  N   UNL     1     -11.386  12.901  66.318  1.00  0.00    -0.309 NA 
ENDROOT
BRANCH   4  10
HETATM   10  N   UNL     1     -12.091  15.793  68.499  1.00  0.00    -0.472 N  
HETATM   11  H   UNL     1     -13.023  16.199  68.422  1.00  0.00     0.000 HD 
BRANCH  10  12
HETATM   12  C   UNL     1     -11.197  16.459  69.280  1.00  0.00    -0.272 C  
HETATM   13  O   UNL     1     -11.251  16.334  70.497  1.00  0.00    -0.376 OA 
BRANCH  12  14
HETATM   14  N   UNL     1     -10.407  17.353  68.623  1.00  0.00    -0.353 N  
HETATM   15  H   UNL     1     -10.802  17.959  67.905  1.00  0.00     0.000 HD 
BRANCH  14  16
HETATM   16  C   UNL     1      -8.994  17.432  68.957  1.00  0.00    -0.062 C  
BRANCH  16  17
HETATM   17  C   UNL     1      -8.088  17.180  67.746  1.00  0.00    -0.193 C  
HETATM   18  H2  UNL     1      -8.004  15.142  68.068  1.00  0.00     0.000 HD 
HETATM   19  N   UNL     1      -7.369  15.923  67.900  1.00  0.00    -0.126 NA 
HETATM   20  H1  UNL     1      -6.767  15.755  67.095  1.00  0.00     0.000 HD 
ENDBRANCH  16  17
ENDBRANCH  14  16
ENDBRANCH  12  14
ENDBRANCH  10  12
ENDBRANCH   4  10
BRANCH   9  21
HETATM   21  C   UNL     1     -10.976  12.084  65.137  1.00  0.00    -0.310 C  
BRANCH  21  22
HETATM   22  C   UNL     1      -9.538  11.052  65.261  1.00  0.00    -0.270 C  
HETATM   23  CA  UNL     1      -8.205  10.856  66.625  1.00  0.00    -0.145 C  
HETATM   24  C   UNL     1      -7.389   8.656  67.648  1.00  0.00    -0.089 C  
HETATM   25  C   UNL     1      -9.554   9.987  63.714  1.00  0.00    -0.191 C  
HETATM   26  C   UNL     1      -7.826  11.852  68.212  1.00  0.00    -0.141 C  
HETATM   27  N   UNL     1      -7.086   9.659  66.708  1.00  0.00    -0.085 N  
HETATM   28  O   UNL     1      -8.032   8.627  68.690  1.00  0.00    -0.111 OA 
HETATM   29  S   UNL     1      -7.983   8.380  63.616  1.00  0.00    -0.146 SA 
HETATM   30  C   UNL     1      -6.835   8.544  65.551  1.00  0.00    -0.071 C  
HETATM   31  O   UNL     1      -8.008  13.112  68.155  1.00  0.00    -0.134 OA 
HETATM   32  OXT UNL     1      -7.222  11.159  69.069  1.00  0.00    -0.100 OA 
HETATM   33  CA  UNL     1      -7.284   7.499  66.648  1.00  0.00    -0.083 C  
BRANCH  33  34
HETATM   34  N   UNL     1      -8.574   6.741  66.511  1.00  0.00    -0.123 N  
HETATM   35  C   UNL     1      -9.243   5.882  67.394  1.00  0.00    -0.108 C  
HETATM   36  H   UNL     1      -9.048   6.876  65.617  1.00  0.00     0.000 HD 
HETATM   37  O   UNL     1     -10.313   5.450  66.966  1.00  0.00    -0.205 OA 
BRANCH  35  38
HETATM   38  C   UNL     1      -8.777   5.453  68.855  1.00  0.00    -0.097 C  
HETATM   39  C   UNL     1      -9.245   6.137  70.038  1.00  0.00    -0.151 C  
HETATM   40  C   UNL     1      -9.970   7.307  72.830  1.00  0.00    -0.194 C  
HETATM   41  N   UNL     1     -10.470   7.132  69.594  1.00  0.00    -0.222 NA 
HETATM   42  N   UNL     1     -10.446   7.341  74.111  1.00  0.00    -0.516 NA 
HETATM   43  H   UNL     1      -8.298   5.577  72.398  1.00  0.00     0.000 HD 
HETATM   44  S   UNL     1     -11.357   8.502  71.360  1.00  0.00    -0.290 SA 
HETATM   45  H1  UNL     1      -9.844   6.822  74.749  1.00  0.00     0.000 HD 
HETATM   46  H2  UNL     1     -11.298   7.826  74.393  1.00  0.00     0.000 HD 
HETATM   47  N   UNL     1      -8.979   6.179  71.936  1.00  0.00    -0.140 NA 
BRANCH  38  48
HETATM   48  N   UNL     1      -8.096   4.399  69.146  1.00  0.00    -0.068 NA 
HETATM   49  H   UNL     1      -7.757   3.787  68.404  1.00  0.00     0.000 HD 
BRANCH  48  50
HETATM   50  O   UNL     1      -7.831   4.107  70.450  1.00  0.00    -0.051 OA 
HETATM   51  O   UNL     1     -10.103   1.475  71.128  1.00  0.00    -0.086 OA 
HETATM   52  C   UNL     1      -9.529   2.555  71.073  1.00  0.00    -0.152 C  
HETATM   53  C   UNL     1      -7.241   2.349  71.881  1.00  0.00    -0.039 C  
HETATM   54  C   UNL     1      -8.092   1.727  69.378  1.00  0.00    -0.060 C  
HETATM   55  C   UNL     1      -8.079   2.691  70.642  1.00  0.00    -0.045 C  
HETATM   56  O   UNL     1     -10.132   3.717  71.393  1.00  0.00    -0.145 OA 
ENDBRANCH  48  50
ENDBRANCH  38  48
ENDBRANCH  35  38
ENDBRANCH  33  34
ENDBRANCH  21  22
ENDBRANCH   9  21
TORSDOF 11
ENDMDL
MODEL       64
REMARK 921   NORMALIZED FREE ENERGY PREDICTED BY IDOCK:   -3.31 KCAL/MOL
REMARK 922        TOTAL FREE ENERGY PREDICTED BY IDOCK:   -9.23 KCAL/MOL
REMARK 923 INTER-LIGAND FREE ENERGY PREDICTED BY IDOCK:   -7.98 KCAL/MOL
REMARK 924 INTRA-LIGAND FREE ENERGY PREDICTED BY IDOCK:   -1.24 KCAL/MOL
REMARK 927      BINDING AFFINITY PREDICTED BY RF-SCORE:    0.00 PKD
ROOT
HETATM    1  C   UNL     1     -12.098  13.225  68.971  1.00  0.00    -0.226 C  
HETATM    2  N   UNL     1     -11.098  14.267  68.852  1.00  0.00    -0.251 NA 
HETATM    3  C   UNL     1     -11.381  15.610  68.666  1.00  0.00    -0.357 A  
HETATM    4  C   UNL     1     -10.382  16.219  67.874  1.00  0.00    -0.285 A  
HETATM    5  N   UNL     1     -12.473  16.266  69.128  1.00  0.00    -0.241 NA 
HETATM    6  C   UNL     1      -9.534  15.096  67.554  1.00  0.00    -0.206 A  
HETATM    7  H2  UNL     1     -13.150  15.720  69.661  1.00  0.00     0.000 HD 
HETATM    8  H1  UNL     1     -12.681  17.254  68.991  1.00  0.00     0.000 HD 
HETATM    9  N   UNL     1      -9.826  14.044  68.464  1.00  0.00    -0.231 NA 
ENDROOT
BRANCH   4  10
HETATM   10  N   UNL     1     -10.476  17.547  67.499  1.00  0.00    -0.355 N  
HETATM   11  H   UNL     1     -11.079  18.143  68.066  1.00  0.00     0.000 HD 
BRANCH  10  12
HETATM   12  C   UNL     1      -9.844  18.138  66.449  1.00  0.00    -0.353 C  
HETATM   13  O   UNL     1     -10.394  18.167  65.355  1.00  0.00    -0.537 OA 
BRANCH  12  14
HETATM   14  N   UNL     1      -8.554  18.506  66.682  1.00  0.00    -0.279 N  
HETATM   15  H   UNL     1      -7.828  18.306  65.995  1.00  0.00     0.000 HD 
BRANCH  14  16
HETATM   16  C   UNL     1      -8.224  19.189  67.922  1.00  0.00    -0.290 C  
BRANCH  16  17
HETATM   17  C   UNL     1      -7.185  20.299  67.725  1.00  0.00    -0.301 C  
HETATM   18  H2  UNL     1      -5.815  19.424  68.999  1.00  0.00     0.000 HD 
HETATM   19  N   UNL     1      -6.255  20.332  68.844  1.00  0.00    -0.319 NA 
HETATM   20  H1  UNL     1      -5.564  21.070  68.714  1.00  0.00     0.000 HD 
ENDBRANCH  16  17
ENDBRANCH  14  16
ENDBRANCH  12  14
ENDBRANCH  10  12
ENDBRANCH   4  10
BRANCH   9  21
HETATM   21  C   UNL     1      -9.111  12.785  68.826  1.00  0.00     0.177 C  
BRANCH  21  22
HETATM   22  C   UNL     1      -8.608  11.678  67.535  1.00  0.00    -0.149 C  
HETATM   23  CA  UNL     1      -7.186  10.396  67.415  1.00  0.00    -0.091 C  
HETATM   24  C   UNL     1      -7.394   7.960  66.660  1.00  0.00    -0.088 C  
HETATM   25  C   UNL     1      -9.872  11.904  66.164  1.00  0.00    -0.254 C  
HETATM   26  C   UNL     1      -5.685  10.026  68.539  1.00  0.00    -0.041 C  
HETATM   27  N   UNL     1      -7.020   9.254  66.250  1.00  0.00    -0.085 N  
HETATM   28  O   UNL     1      -7.425   7.380  67.737  1.00  0.00    -0.096 OA 
HETATM   29  S   UNL     1      -9.689  10.493  64.421  1.00  0.00    -0.346 SA 
HETATM   30  C   UNL     1      -7.955   9.140  64.924  1.00  0.00    -0.123 C  
HETATM   31  O   UNL     1      -5.137  11.024  69.111  1.00  0.00    -0.042 OA 
HETATM   32  OXT UNL     1      -5.276   8.846  68.403  1.00  0.00    -0.033 OA 
HETATM   33  CA  UNL     1      -8.390   7.740  65.515  1.00  0.00    -0.146 C  
BRANCH  33  34
HETATM   34  N   UNL     1      -9.790   7.512  66.009  1.00  0.00    -0.408 N  
HETATM   35  C   UNL     1     -10.399   6.387  66.584  1.00  0.00    -0.155 C  
HETATM   36  H   UNL     1     -10.408   8.318  65.909  1.00  0.00     0.000 HD 
HETATM   37  O   UNL     1     -11.574   6.558  66.908  1.00  0.00    -0.019 OA 
BRANCH  35  38
HETATM   38  C   UNL     1      -9.727   4.972  66.871  1.00  0.00    -0.168 C  
HETATM   39  C   UNL     1      -9.489   4.498  68.215  1.00  0.00    -0.149 C  
HETATM   40  C   UNL     1      -8.783   3.089  70.899  1.00  0.00    -0.075 C  
HETATM   41  N   UNL     1     -10.272   5.499  69.249  1.00  0.00    -0.221 NA 
HETATM   42  N   UNL     1      -8.787   2.129  71.872  1.00  0.00    -0.071 NA 
HETATM   43  H   UNL     1      -8.182   2.292  68.667  1.00  0.00     0.000 HD 
HETATM   44  S   UNL     1      -9.937   5.016  71.582  1.00  0.00    -0.193 SA 
HETATM   45  H1  UNL     1      -8.286   1.292  71.576  1.00  0.00     0.000 HD 
HETATM   46  H2  UNL     1      -9.236   2.237  72.781  1.00  0.00     0.000 HD 
HETATM   47  N   UNL     1      -8.663   3.046  69.156  1.00  0.00    -0.074 NA 
BRANCH  38  48
HETATM   48  N   UNL     1      -9.482   4.066  65.990  1.00  0.00    -0.171 NA 
HETATM   49  H   UNL     1     -10.088   3.249  65.913  1.00  0.00     0.000 HD 
BRANCH  48  50
HETATM   50  O   UNL     1      -8.409   4.204  65.162  1.00  0.00    -0.107 OA 
HETATM   51  O   UNL     1      -8.865   1.552  62.859  1.00  0.00    -0.074 OA 
HETATM   52  C   UNL     1      -8.474   2.272  63.769  1.00  0.00    -0.085 C  
HETATM   53  C   UNL     1      -7.816   4.453  62.910  1.00  0.00    -0.067 C  
HETATM   54  C   UNL     1     -10.357   3.686  63.484  1.00  0.00    -0.233 C  
HETATM   55  C   UNL     1      -8.810   3.751  63.843  1.00  0.00    -0.103 C  
HETATM   56  O   UNL     1      -7.710   1.817  64.781  1.00  0.00    -0.062 OA 
ENDBRANCH  48  50
ENDBRANCH  38  48
ENDBRANCH  35  38
ENDBRANCH  33  34
ENDBRANCH  21  22
ENDBRANCH   9  21
TORSDOF 11
ENDMDL
MODEL       65
REMARK 921   NORMALIZED FREE ENERGY PREDICTED BY IDOCK:   -3.30 KCAL/MOL
REMARK 922        TOTAL FREE ENERGY PREDICTED BY IDOCK:   -9.20 KCAL/MOL
REMARK 923 INTER-LIGAND FREE ENERGY PREDICTED BY IDOCK:   -8.32 KCAL/MOL
REMARK 924 INTRA-LIGAND FREE ENERGY PREDICTED BY IDOCK:   -0.88 KCAL/MOL
REMARK 927      BINDING AFFINITY PREDICTED BY RF-SCORE:    0.00 PKD
ROOT
HETATM    1  C   UNL     1      -6.375  13.876  67.967  1.00  0.00    -0.142 C  
HETATM    2  N   UNL     1      -7.731  13.615  67.531  1.00  0.00    -0.172 NA 
HETATM    3  C   UNL     1      -8.836  14.362  67.906  1.00  0.00    -0.179 A  
HETATM    4  C   UNL     1      -9.980  13.538  67.999  1.00  0.00    -0.248 A  
HETATM    5  N   UNL     1      -8.842  15.686  68.192  1.00  0.00    -0.172 NA 
HETATM    6  C   UNL     1      -9.428  12.235  67.718  1.00  0.00    -0.197 A  
HETATM    7  H2  UNL     1      -7.951  16.178  68.126  1.00  0.00     0.000 HD 
HETATM    8  H1  UNL     1      -9.654  16.236  68.468  1.00  0.00     0.000 HD 
HETATM    9  N   UNL     1      -8.161  12.411  67.100  1.00  0.00    -0.184 NA 
ENDROOT
BRANCH   4  10
HETATM   10  N   UNL     1     -11.196  14.047  68.418  1.00  0.00    -0.253 N  
HETATM   11  H   UNL     1     -11.913  14.170  67.703  1.00  0.00     0.000 HD 
BRANCH  10  12
HETATM   12  C   UNL     1     -11.531  14.399  69.688  1.00  0.00    -0.283 C  
HETATM   13  O   UNL     1     -10.645  14.613  70.507  1.00  0.00     0.110 OA 
BRANCH  12  14
HETATM   14  N   UNL     1     -12.859  14.319  69.981  1.00  0.00    -0.447 N  
HETATM   15  H   UNL     1     -13.409  13.520  69.667  1.00  0.00     0.000 HD 
BRANCH  14  16
HETATM   16  C   UNL     1     -13.483  15.386  70.745  1.00  0.00    -0.268 C  
BRANCH  16  17
HETATM   17  C   UNL     1     -14.294  14.861  71.936  1.00  0.00    -0.576 C  
HETATM   18  H2  UNL     1     -12.614  14.374  73.033  1.00  0.00     0.000 HD 
HETATM   19  N   UNL     1     -13.491  13.948  72.736  1.00  0.00    -0.669 NA 
HETATM   20  H1  UNL     1     -14.030  13.599  73.528  1.00  0.00     0.000 HD 
ENDBRANCH  16  17
ENDBRANCH  14  16
ENDBRANCH  12  14
ENDBRANCH  10  12
ENDBRANCH   4  10
BRANCH   9  21
HETATM   21  C   UNL     1      -7.266  11.494  66.334  1.00  0.00     0.064 C  
BRANCH  21  22
HETATM   22  C   UNL     1      -6.711   9.994  67.101  1.00  0.00    -0.074 C  
HETATM   23  CA  UNL     1      -6.469   9.497  68.938  1.00  0.00    -0.046 C  
HETATM   24  C   UNL     1      -7.343   7.372  70.066  1.00  0.00    -0.082 C  
HETATM   25  C   UNL     1      -6.442   8.782  65.691  1.00  0.00    -0.059 C  
HETATM   26  C   UNL     1      -6.517  10.501  70.563  1.00  0.00    -0.067 C  
HETATM   27  N   UNL     1      -6.207   7.976  69.494  1.00  0.00    -0.033 N  
HETATM   28  O   UNL     1      -8.347   7.796  70.623  1.00  0.00    -0.120 OA 
HETATM   29  S   UNL     1      -5.937   6.674  66.294  1.00  0.00    -0.033 SA 
HETATM   30  C   UNL     1      -5.952   6.676  68.550  1.00  0.00    -0.022 C  
HETATM   31  O   UNL     1      -6.061  11.690  70.516  1.00  0.00    -0.269 OA 
HETATM   32  OXT UNL     1      -6.794   9.780  71.554  1.00  0.00    -0.310 OA 
HETATM   33  CA  UNL     1      -7.293   6.123  69.178  1.00  0.00    -0.085 C  
BRANCH  33  34
HETATM   34  N   UNL     1      -8.530   5.965  68.341  1.00  0.00    -0.111 N  
HETATM   35  C   UNL     1      -9.890   6.024  68.677  1.00  0.00    -0.138 C  
HETATM   36  H   UNL     1      -8.349   5.781  67.354  1.00  0.00     0.000 HD 
HETATM   37  O   UNL     1     -10.653   5.878  67.722  1.00  0.00    -0.222 OA 
BRANCH  35  38
HETATM   38  C   UNL     1     -10.514   6.281  70.119  1.00  0.00    -0.222 C  
HETATM   39  C   UNL     1     -11.086   7.555  70.488  1.00  0.00    -0.259 C  
HETATM   40  C   UNL     1     -12.396  10.098  71.714  1.00  0.00    -0.310 C  
HETATM   41  N   UNL     1     -11.215   8.462  69.130  1.00  0.00     0.229 NA 
HETATM   42  N   UNL     1     -13.353  10.883  72.294  1.00  0.00    -0.563 NA 
HETATM   43  H   UNL     1     -11.889   8.032  72.919  1.00  0.00     0.000 HD 
HETATM   44  S   UNL     1     -12.023  10.701  69.476  1.00  0.00    -0.202 SA 
HETATM   45  H1  UNL     1     -13.516  10.621  73.266  1.00  0.00     0.000 HD 
HETATM   46  H2  UNL     1     -13.844  11.637  71.814  1.00  0.00     0.000 HD 
HETATM   47  N   UNL     1     -11.829   8.470  72.000  1.00  0.00    -0.336 NA 
BRANCH  38  48
HETATM   48  N   UNL     1     -10.719   5.382  71.019  1.00  0.00    -0.209 NA 
HETATM   49  H   UNL     1     -11.330   5.580  71.811  1.00  0.00     0.000 HD 
BRANCH  48  50
HETATM   50  O   UNL     1     -10.116   4.166  70.905  1.00  0.00    -0.172 OA 
HETATM   51  O   UNL     1      -8.527   3.798  74.050  1.00  0.00    -0.086 OA 
HETATM   52  C   UNL     1      -8.771   3.980  72.864  1.00  0.00    -0.099 C  
HETATM   53  C   UNL     1      -9.953   2.067  71.931  1.00  0.00    -0.222 C  
HETATM   54  C   UNL     1     -11.092   4.090  73.339  1.00  0.00    -0.341 C  
HETATM   55  C   UNL     1     -10.085   3.566  72.226  1.00  0.00    -0.150 C  
HETATM   56  O   UNL     1      -7.894   4.561  72.021  1.00  0.00    -0.089 OA 
ENDBRANCH  48  50
ENDBRANCH  38  48
ENDBRANCH  35  38
ENDBRANCH  33  34
ENDBRANCH  21  22
ENDBRANCH   9  21
TORSDOF 11
ENDMDL
MODEL       66
REMARK 921   NORMALIZED FREE ENERGY PREDICTED BY IDOCK:   -3.28 KCAL/MOL
REMARK 922        TOTAL FREE ENERGY PREDICTED BY IDOCK:   -9.17 KCAL/MOL
REMARK 923 INTER-LIGAND FREE ENERGY PREDICTED BY IDOCK:  -10.06 KCAL/MOL
REMARK 924 INTRA-LIGAND FREE ENERGY PREDICTED BY IDOCK:    0.89 KCAL/MOL
REMARK 927      BINDING AFFINITY PREDICTED BY RF-SCORE:    0.00 PKD
ROOT
HETATM    1  C   UNL     1      -8.713  16.595  65.960  1.00  0.00    -0.204 C  
HETATM    2  N   UNL     1      -9.886  15.987  66.554  1.00  0.00    -0.252 NA 
HETATM    3  C   UNL     1     -10.702  16.602  67.488  1.00  0.00    -0.278 A  
HETATM    4  C   UNL     1     -11.222  15.649  68.392  1.00  0.00    -0.352 A  
HETATM    5  N   UNL     1     -10.951  17.931  67.577  1.00  0.00    -0.215 NA 
HETATM    6  C   UNL     1     -10.578  14.438  67.946  1.00  0.00    -0.240 A  
HETATM    7  H2  UNL     1     -10.495  18.535  66.893  1.00  0.00     0.000 HD 
HETATM    8  H1  UNL     1     -11.552  18.384  68.265  1.00  0.00     0.000 HD 
HETATM    9  N   UNL     1     -10.081  14.655  66.632  1.00  0.00    -0.266 NA 
ENDROOT
BRANCH   4  10
HETATM   10  N   UNL     1     -12.019  16.031  69.456  1.00  0.00    -0.271 N  
HETATM   11  H   UNL     1     -12.110  17.033  69.625  1.00  0.00     0.000 HD 
BRANCH  10  12
HETATM   12  C   UNL     1     -12.693  15.204  70.300  1.00  0.00    -0.299 C  
HETATM   13  O   UNL     1     -12.651  13.993  70.117  1.00  0.00    -0.334 OA 
BRANCH  12  14
HETATM   14  N   UNL     1     -13.507  15.828  71.196  1.00  0.00    -0.591 N  
HETATM   15  H   UNL     1     -13.912  16.738  70.978  1.00  0.00     0.000 HD 
BRANCH  14  16
HETATM   16  C   UNL     1     -13.790  15.182  72.468  1.00  0.00    -0.502 C  
BRANCH  16  17
HETATM   17  C   UNL     1     -12.527  14.956  73.307  1.00  0.00    -0.427 C  
HETATM   18  H2  UNL     1     -13.315  15.876  74.979  1.00  0.00     0.000 HD 
HETATM   19  N   UNL     1     -12.470  15.905  74.409  1.00  0.00    -0.760 NA 
HETATM   20  H1  UNL     1     -11.630  15.755  74.968  1.00  0.00     0.000 HD 
ENDBRANCH  16  17
ENDBRANCH  14  16
ENDBRANCH  12  14
ENDBRANCH  10  12
ENDBRANCH   4  10
BRANCH   9  21
HETATM   21  C   UNL     1      -9.600  13.734  65.560  1.00  0.00     0.044 C  
BRANCH  21  22
HETATM   22  C   UNL     1      -9.681  11.982  65.830  1.00  0.00    -0.254 C  
HETATM   23  CA  UNL     1      -8.832  10.502  64.955  1.00  0.00    -0.192 C  
HETATM   24  C   UNL     1      -7.577   8.582  66.088  1.00  0.00    -0.089 C  
HETATM   25  C   UNL     1     -10.784  11.759  67.334  1.00  0.00    -0.277 C  
HETATM   26  C   UNL     1      -7.793  10.372  63.355  1.00  0.00    -0.093 C  
HETATM   27  N   UNL     1      -8.799   8.956  65.500  1.00  0.00    -0.189 N  
HETATM   28  O   UNL     1      -6.416   8.944  65.950  1.00  0.00    -0.056 OA 
HETATM   29  S   UNL     1     -10.952   9.659  68.121  1.00  0.00    -0.059 SA 
HETATM   30  C   UNL     1      -9.624   8.411  66.791  1.00  0.00    -0.219 C  
HETATM   31  O   UNL     1      -8.128  11.134  62.391  1.00  0.00    -0.186 OA 
HETATM   32  OXT UNL     1      -7.028   9.375  63.371  1.00  0.00    -0.094 OA 
HETATM   33  CA  UNL     1      -8.200   8.117  67.409  1.00  0.00    -0.122 C  
BRANCH  33  34
HETATM   34  N   UNL     1      -7.694   8.897  68.589  1.00  0.00    -0.096 N  
HETATM   35  C   UNL     1      -7.983   8.801  69.957  1.00  0.00    -0.108 C  
HETATM   36  H   UNL     1      -7.020   9.626  68.352  1.00  0.00     0.000 HD 
HETATM   37  O   UNL     1      -7.354   9.589  70.663  1.00  0.00    -0.126 OA 
BRANCH  35  38
HETATM   38  C   UNL     1      -8.990   7.786  70.658  1.00  0.00    -0.145 C  
HETATM   39  C   UNL     1     -10.245   8.224  71.224  1.00  0.00    -0.202 C  
HETATM   40  C   UNL     1     -13.010   8.705  72.571  1.00  0.00    -0.290 C  
HETATM   41  N   UNL     1     -10.502   9.770  70.747  1.00  0.00    -0.302 NA 
HETATM   42  N   UNL     1     -14.352   8.584  72.801  1.00  0.00    -0.923 NA 
HETATM   43  H   UNL     1     -11.771   6.597  72.569  1.00  0.00     0.000 HD 
HETATM   44  S   UNL     1     -12.474  10.801  71.660  1.00  0.00    -0.185 SA 
HETATM   45  H1  UNL     1     -14.585   7.674  73.197  1.00  0.00     0.000 HD 
HETATM   46  H2  UNL     1     -15.035   9.314  72.601  1.00  0.00     0.000 HD 
HETATM   47  N   UNL     1     -11.730   7.561  72.240  1.00  0.00    -0.303 NA 
BRANCH  38  48
HETATM   48  N   UNL     1      -8.884   6.502  70.656  1.00  0.00    -0.144 NA 
HETATM   49  H   UNL     1      -8.837   5.990  71.536  1.00  0.00     0.000 HD 
BRANCH  48  50
HETATM   50  O   UNL     1      -8.836   5.833  69.470  1.00  0.00    -0.116 OA 
HETATM   51  O   UNL     1      -5.766   4.081  69.699  1.00  0.00    -0.016 OA 
HETATM   52  C   UNL     1      -6.656   4.871  69.414  1.00  0.00    -0.040 C  
HETATM   53  C   UNL     1      -8.603   3.692  68.550  1.00  0.00    -0.118 C  
HETATM   54  C   UNL     1      -7.998   4.026  71.177  1.00  0.00    -0.067 C  
HETATM   55  C   UNL     1      -8.122   4.590  69.696  1.00  0.00    -0.060 C  
HETATM   56  O   UNL     1      -6.414   6.058  68.823  1.00  0.00    -0.045 OA 
ENDBRANCH  48  50
ENDBRANCH  38  48
ENDBRANCH  35  38
ENDBRANCH  33  34
ENDBRANCH  21  22
ENDBRANCH   9  21
TORSDOF 11
ENDMDL
MODEL       67
REMARK 921   NORMALIZED FREE ENERGY PREDICTED BY IDOCK:   -3.24 KCAL/MOL
REMARK 922        TOTAL FREE ENERGY PREDICTED BY IDOCK:   -9.11 KCAL/MOL
REMARK 923 INTER-LIGAND FREE ENERGY PREDICTED BY IDOCK:   -8.22 KCAL/MOL
REMARK 924 INTRA-LIGAND FREE ENERGY PREDICTED BY IDOCK:   -0.89 KCAL/MOL
REMARK 927      BINDING AFFINITY PREDICTED BY RF-SCORE:    0.00 PKD
ROOT
HETATM    1  C   UNL     1     -12.296   6.908  71.407  1.00  0.00    -0.376 C  
HETATM    2  N   UNL     1     -11.161   6.091  71.030  1.00  0.00    -0.294 NA 
HETATM    3  C   UNL     1     -10.548   5.165  71.858  1.00  0.00    -0.188 A  
HETATM    4  C   UNL     1      -9.163   5.102  71.585  1.00  0.00    -0.145 A  
HETATM    5  N   UNL     1     -11.154   4.440  72.829  1.00  0.00    -0.092 NA 
HETATM    6  C   UNL     1      -9.012   6.125  70.580  1.00  0.00    -0.146 A  
HETATM    7  H2  UNL     1     -12.154   4.590  72.963  1.00  0.00     0.000 HD 
HETATM    8  H1  UNL     1     -10.703   3.759  73.438  1.00  0.00     0.000 HD 
HETATM    9  N   UNL     1     -10.297   6.417  70.046  1.00  0.00    -0.189 NA 
ENDROOT
BRANCH   4  10
HETATM   10  N   UNL     1      -8.324   4.291  72.328  1.00  0.00    -0.102 N  
HETATM   11  H   UNL     1      -8.709   3.892  73.184  1.00  0.00     0.000 HD 
BRANCH  10  12
HETATM   12  C   UNL     1      -7.035   3.972  72.030  1.00  0.00    -0.045 C  
HETATM   13  O   UNL     1      -6.172   4.084  72.893  1.00  0.00    -0.015 OA 
BRANCH  12  14
HETATM   14  N   UNL     1      -6.793   3.706  70.717  1.00  0.00    -0.032 N  
HETATM   15  H   UNL     1      -6.712   4.467  70.043  1.00  0.00     0.000 HD 
BRANCH  14  16
HETATM   16  C   UNL     1      -6.653   2.325  70.286  1.00  0.00    -0.029 C  
BRANCH  16  17
HETATM   17  C   UNL     1      -7.433   2.027  68.999  1.00  0.00    -0.043 C  
HETATM   18  H2  UNL     1      -8.633   3.697  69.185  1.00  0.00     0.000 HD 
HETATM   19  N   UNL     1      -8.726   2.694  69.021  1.00  0.00    -0.075 NA 
HETATM   20  H1  UNL     1      -9.245   2.496  68.166  1.00  0.00     0.000 HD 
ENDBRANCH  16  17
ENDBRANCH  14  16
ENDBRANCH  12  14
ENDBRANCH  10  12
ENDBRANCH   4  10
BRANCH   9  21
HETATM   21  C   UNL     1     -10.750   7.140  68.821  1.00  0.00    -0.169 C  
BRANCH  21  22
HETATM   22  C   UNL     1      -9.855   8.575  68.287  1.00  0.00    -0.190 C  
HETATM   23  CA  UNL     1      -8.838   8.947  66.704  1.00  0.00    -0.129 C  
HETATM   24  C   UNL     1      -9.056  11.011  65.207  1.00  0.00    -0.189 C  
HETATM   25  C   UNL     1     -10.150   9.870  69.615  1.00  0.00    -0.254 C  
HETATM   26  C   UNL     1      -8.242   7.840  65.264  1.00  0.00    -0.140 C  
HETATM   27  N   UNL     1      -8.297  10.422  66.236  1.00  0.00    -0.141 N  
HETATM   28  O   UNL     1      -9.749  10.573  64.299  1.00  0.00    -0.279 OA 
HETATM   29  S   UNL     1      -9.341  11.923  69.179  1.00  0.00     0.606 SA 
HETATM   30  C   UNL     1      -8.403  11.776  67.133  1.00  0.00    -0.168 C  
HETATM   31  O   UNL     1      -7.905   6.647  65.559  1.00  0.00    -0.095 OA 
HETATM   32  OXT UNL     1      -8.043   8.501  64.214  1.00  0.00    -0.146 OA 
HETATM   33  CA  UNL     1      -9.327  12.314  65.969  1.00  0.00    -0.141 C  
BRANCH  33  34
HETATM   34  N   UNL     1     -10.793  12.552  66.194  1.00  0.00    -0.266 N  
HETATM   35  C   UNL     1     -11.468  13.498  66.978  1.00  0.00    -0.340 C  
HETATM   36  H   UNL     1     -11.405  11.913  65.686  1.00  0.00     0.000 HD 
HETATM   37  O   UNL     1     -12.695  13.430  66.905  1.00  0.00    -0.064 OA 
BRANCH  35  38
HETATM   38  C   UNL     1     -10.820  14.626  67.895  1.00  0.00    -0.259 C  
HETATM   39  C   UNL     1     -11.374  14.977  69.182  1.00  0.00    -0.296 C  
HETATM   40  C   UNL     1     -12.216  16.060  71.976  1.00  0.00    -0.506 C  
HETATM   41  N   UNL     1     -12.502  13.852  69.569  1.00  0.00    -0.211 NA 
HETATM   42  N   UNL     1     -12.115  16.372  73.303  1.00  0.00    -0.504 NA 
HETATM   43  H   UNL     1     -10.444  16.979  70.564  1.00  0.00     0.000 HD 
HETATM   44  S   UNL     1     -13.688  14.266  71.620  1.00  0.00    -0.383 SA 
HETATM   45  H1  UNL     1     -11.476  17.151  73.458  1.00  0.00     0.000 HD 
HETATM   46  H2  UNL     1     -12.617  15.886  74.046  1.00  0.00     0.000 HD 
HETATM   47  N   UNL     1     -11.148  16.242  70.604  1.00  0.00    -0.311 NA 
BRANCH  38  48
HETATM   48  N   UNL     1      -9.692  15.211  67.681  1.00  0.00    -0.211 NA 
HETATM   49  H   UNL     1      -8.876  14.973  68.245  1.00  0.00     0.000 HD 
BRANCH  48  50
HETATM   50  O   UNL     1      -9.595  16.147  66.697  1.00  0.00    -0.222 OA 
HETATM   51  O   UNL     1      -9.090  19.138  68.526  1.00  0.00    -0.344 OA 
HETATM   52  C   UNL     1      -9.562  18.230  67.853  1.00  0.00    -0.289 C  
HETATM   53  C   UNL     1      -8.204  17.841  65.871  1.00  0.00     0.010 C  
HETATM   54  C   UNL     1      -7.689  16.863  68.351  1.00  0.00    -0.219 C  
HETATM   55  C   UNL     1      -8.698  17.187  67.166  1.00  0.00    -0.212 C  
HETATM   56  O   UNL     1     -10.887  18.079  67.662  1.00  0.00    -0.390 OA 
ENDBRANCH  48  50
ENDBRANCH  38  48
ENDBRANCH  35  38
ENDBRANCH  33  34
ENDBRANCH  21  22
ENDBRANCH   9  21
TORSDOF 11
ENDMDL
MODEL       68
REMARK 921   NORMALIZED FREE ENERGY PREDICTED BY IDOCK:   -3.24 KCAL/MOL
REMARK 922        TOTAL FREE ENERGY PREDICTED BY IDOCK:   -9.10 KCAL/MOL
REMARK 923 INTER-LIGAND FREE ENERGY PREDICTED BY IDOCK:   -6.72 KCAL/MOL
REMARK 924 INTRA-LIGAND FREE ENERGY PREDICTED BY IDOCK:   -2.38 KCAL/MOL
REMARK 927      BINDING AFFINITY PREDICTED BY RF-SCORE:    0.00 PKD
ROOT
HETATM    1  C   UNL     1     -10.870   5.844  67.717  1.00  0.00    -0.235 C  
HETATM    2  N   UNL     1      -9.852   4.825  67.560  1.00  0.00    -0.170 NA 
HETATM    3  C   UNL     1      -9.304   4.442  66.347  1.00  0.00    -0.157 A  
HETATM    4  C   UNL     1      -8.982   3.066  66.364  1.00  0.00    -0.152 A  
HETATM    5  N   UNL     1      -9.130   5.238  65.264  1.00  0.00    -0.278 NA 
HETATM    6  C   UNL     1      -9.459   2.668  67.666  1.00  0.00    -0.095 A  
HETATM    7  H2  UNL     1      -9.430   6.209  65.351  1.00  0.00     0.000 HD 
HETATM    8  H1  UNL     1      -8.727   4.957  64.371  1.00  0.00     0.000 HD 
HETATM    9  N   UNL     1      -9.635   3.838  68.453  1.00  0.00    -0.142 NA 
ENDROOT
BRANCH   4  10
HETATM   10  N   UNL     1      -8.476   2.436  65.241  1.00  0.00    -0.096 N  
HETATM   11  H   UNL     1      -8.689   1.444  65.136  1.00  0.00     0.000 HD 
BRANCH  10  12
HETATM   12  C   UNL     1      -7.723   3.007  64.263  1.00  0.00    -0.077 C  
HETATM   13  O   UNL     1      -6.609   3.439  64.536  1.00  0.00    -0.034 OA 
BRANCH  12  14
HETATM   14  N   UNL     1      -8.362   3.198  63.076  1.00  0.00    -0.077 N  
HETATM   15  H   UNL     1      -8.183   4.034  62.522  1.00  0.00     0.000 HD 
BRANCH  14  16
HETATM   16  C   UNL     1      -9.304   2.194  62.608  1.00  0.00    -0.090 C  
BRANCH  16  17
HETATM   17  C   UNL     1     -10.741   2.724  62.535  1.00  0.00    -0.161 C  
HETATM   18  H2  UNL     1     -10.149   4.702  62.498  1.00  0.00     0.000 HD 
HETATM   19  N   UNL     1     -10.801   4.101  63.003  1.00  0.00    -0.364 NA 
HETATM   20  H1  UNL     1     -11.757   4.454  62.954  1.00  0.00     0.000 HD 
ENDBRANCH  16  17
ENDBRANCH  14  16
ENDBRANCH  12  14
ENDBRANCH  10  12
ENDBRANCH   4  10
BRANCH   9  21
HETATM   21  C   UNL     1      -9.814   4.061  69.918  1.00  0.00    -0.115 C  
BRANCH  21  22
HETATM   22  C   UNL     1      -9.646   5.704  70.566  1.00  0.00    -0.221 C  
HETATM   23  CA  UNL     1      -8.166   6.922  70.623  1.00  0.00    -0.120 C  
HETATM   24  C   UNL     1      -8.191   9.379  69.908  1.00  0.00    -0.149 C  
HETATM   25  C   UNL     1     -11.355   6.172  71.190  1.00  0.00    -0.340 C  
HETATM   26  C   UNL     1      -6.310   6.717  70.216  1.00  0.00    -0.039 C  
HETATM   27  N   UNL     1      -8.247   8.512  71.016  1.00  0.00    -0.126 N  
HETATM   28  O   UNL     1      -7.702   9.305  68.788  1.00  0.00    -0.082 OA 
HETATM   29  S   UNL     1     -11.591   8.295  71.896  1.00  0.00    -0.342 SA 
HETATM   30  C   UNL     1      -9.579   9.262  71.574  1.00  0.00    -0.092 C  
HETATM   31  O   UNL     1      -5.780   5.595  70.505  1.00  0.00    -0.014 OA 
HETATM   32  OXT UNL     1      -5.772   7.811  69.909  1.00  0.00    -0.023 OA 
HETATM   33  CA  UNL     1      -9.489  10.120  70.251  1.00  0.00     0.163 C  
BRANCH  33  34
HETATM   34  N   UNL     1     -10.527   9.988  69.173  1.00  0.00    -0.206 N  
HETATM   35  C   UNL     1     -10.631  10.587  67.909  1.00  0.00    -0.232 C  
HETATM   36  H   UNL     1     -11.290   9.351  69.401  1.00  0.00     0.000 HD 
HETATM   37  O   UNL     1     -11.611  10.224  67.258  1.00  0.00    -0.142 OA 
BRANCH  35  38
HETATM   38  C   UNL     1      -9.623  11.630  67.253  1.00  0.00    -0.174 C  
HETATM   39  C   UNL     1      -9.645  13.033  67.595  1.00  0.00    -0.206 C  
HETATM   40  C   UNL     1      -9.337  16.102  68.011  1.00  0.00    -0.203 C  
HETATM   41  N   UNL     1     -10.621  13.219  68.899  1.00  0.00    -0.189 NA 
HETATM   42  N   UNL     1      -8.738  17.290  68.326  1.00  0.00    -0.243 NA 
HETATM   43  H   UNL     1      -8.152  14.761  66.345  1.00  0.00     0.000 HD 
HETATM   44  S   UNL     1     -10.946  15.494  69.609  1.00  0.00    -0.315 SA 
HETATM   45  H1  UNL     1      -8.040  17.555  67.632  1.00  0.00     0.000 HD 
HETATM   46  H2  UNL     1      -8.963  17.843  69.153  1.00  0.00     0.000 HD 
HETATM   47  N   UNL     1      -8.836  14.698  67.098  1.00  0.00    -0.209 NA 
BRANCH  38  48
HETATM   48  N   UNL     1      -8.618  11.332  66.504  1.00  0.00    -0.166 NA 
HETATM   49  H   UNL     1      -7.908  12.034  66.297  1.00  0.00     0.000 HD 
BRANCH  48  50
HETATM   50  O   UNL     1      -8.508  10.075  65.993  1.00  0.00    -0.126 OA 
HETATM   51  O   UNL     1      -6.187  10.515  63.354  1.00  0.00    -0.126 OA 
HETATM   52  C   UNL     1      -7.200  10.342  64.019  1.00  0.00    -0.057 C  
HETATM   53  C   UNL     1      -6.948   8.406  65.474  1.00  0.00    -0.070 C  
HETATM   54  C   UNL     1      -6.020  10.904  65.998  1.00  0.00    -0.133 C  
HETATM   55  C   UNL     1      -7.160   9.925  65.479  1.00  0.00    -0.118 C  
HETATM   56  O   UNL     1      -8.439  10.504  63.514  1.00  0.00    -0.170 OA 
ENDBRANCH  48  50
ENDBRANCH  38  48
ENDBRANCH  35  38
ENDBRANCH  33  34
ENDBRANCH  21  22
ENDBRANCH   9  21
TORSDOF 11
ENDMDL
MODEL       69
REMARK 921   NORMALIZED FREE ENERGY PREDICTED BY IDOCK:   -3.23 KCAL/MOL
REMARK 922        TOTAL FREE ENERGY PREDICTED BY IDOCK:   -9.09 KCAL/MOL
REMARK 923 INTER-LIGAND FREE ENERGY PREDICTED BY IDOCK:   -9.06 KCAL/MOL
REMARK 924 INTRA-LIGAND FREE ENERGY PREDICTED BY IDOCK:   -0.03 KCAL/MOL
REMARK 927      BINDING AFFINITY PREDICTED BY RF-SCORE:    0.00 PKD
ROOT
HETATM    1  C   UNL     1      -5.407   9.944  64.119  1.00  0.00    -0.082 C  
HETATM    2  N   UNL     1      -6.393   8.894  63.968  1.00  0.00    -0.076 NA 
HETATM    3  C   UNL     1      -6.148   7.548  64.187  1.00  0.00    -0.048 A  
HETATM    4  C   UNL     1      -6.922   6.757  63.309  1.00  0.00    -0.055 A  
HETATM    5  N   UNL     1      -5.266   7.034  65.079  1.00  0.00    -0.027 NA 
HETATM    6  C   UNL     1      -7.581   7.760  62.510  1.00  0.00    -0.114 A  
HETATM    7  H2  UNL     1      -4.734   7.699  65.640  1.00  0.00     0.000 HD 
HETATM    8  H1  UNL     1      -5.086   6.044  65.241  1.00  0.00     0.000 HD 
HETATM    9  N   UNL     1      -7.493   9.003  63.195  1.00  0.00    -0.097 NA 
ENDROOT
BRANCH   4  10
HETATM   10  N   UNL     1      -6.804   5.378  63.297  1.00  0.00    -0.036 N  
HETATM   11  H   UNL     1      -5.999   4.990  62.805  1.00  0.00     0.000 HD 
BRANCH  10  12
HETATM   12  C   UNL     1      -7.656   4.489  63.875  1.00  0.00    -0.071 C  
HETATM   13  O   UNL     1      -8.340   3.762  63.165  1.00  0.00    -0.087 OA 
BRANCH  12  14
HETATM   14  N   UNL     1      -7.790   4.609  65.225  1.00  0.00    -0.089 N  
HETATM   15  H   UNL     1      -7.063   4.259  65.849  1.00  0.00     0.000 HD 
BRANCH  14  16
HETATM   16  C   UNL     1      -8.982   5.241  65.766  1.00  0.00    -0.154 C  
BRANCH  16  17
HETATM   17  C   UNL     1     -10.090   4.231  66.088  1.00  0.00    -0.187 C  
HETATM   18  H2  UNL     1     -11.444   5.107  64.799  1.00  0.00     0.000 HD 
HETATM   19  N   UNL     1     -11.396   4.787  65.767  1.00  0.00    -0.756 NA 
HETATM   20  H1  UNL     1     -12.133   4.115  65.981  1.00  0.00     0.000 HD 
ENDBRANCH  16  17
ENDBRANCH  14  16
ENDBRANCH  12  14
ENDBRANCH  10  12
ENDBRANCH   4  10
BRANCH   9  21
HETATM   21  C   UNL     1      -8.206  10.305  63.036  1.00  0.00    -0.162 C  
BRANCH  21  22
HETATM   22  C   UNL     1      -9.373  10.804  64.274  1.00  0.00    -0.281 C  
HETATM   23  CA  UNL     1      -9.255  10.926  66.185  1.00  0.00    -0.184 C  
HETATM   24  C   UNL     1      -9.925  12.933  67.625  1.00  0.00    -0.218 C  
HETATM   25  C   UNL     1     -10.904  11.345  63.329  1.00  0.00    -0.292 C  
HETATM   26  C   UNL     1      -7.933  10.341  67.435  1.00  0.00    -0.107 C  
HETATM   27  N   UNL     1     -10.338  11.667  67.168  1.00  0.00    -0.212 N  
HETATM   28  O   UNL     1      -8.836  13.456  67.822  1.00  0.00    -0.177 OA 
HETATM   29  S   UNL     1     -12.546  12.260  64.564  1.00  0.00    -0.192 SA 
HETATM   30  C   UNL     1     -11.767  12.274  66.681  1.00  0.00    -0.349 C  
HETATM   31  O   UNL     1      -7.339   9.245  67.171  1.00  0.00    -0.089 OA 
HETATM   32  OXT UNL     1      -7.964  11.008  68.500  1.00  0.00    -0.121 OA 
HETATM   33  CA  UNL     1     -11.177  13.668  67.133  1.00  0.00    -0.309 C  
BRANCH  33  34
HETATM   34  N   UNL     1     -10.857  14.735  66.125  1.00  0.00    -0.314 N  
HETATM   35  C   UNL     1     -10.283  16.006  66.272  1.00  0.00    -0.316 C  
HETATM   36  H   UNL     1     -11.099  14.492  65.164  1.00  0.00     0.000 HD 
HETATM   37  O   UNL     1     -10.132  16.617  65.213  1.00  0.00    -0.575 OA 
BRANCH  35  38
HETATM   38  C   UNL     1      -9.802  16.694  67.624  1.00  0.00    -0.256 C  
HETATM   39  C   UNL     1     -10.550  16.567  68.854  1.00  0.00    -0.326 C  
HETATM   40  C   UNL     1     -11.821  16.576  71.695  1.00  0.00    -0.098 C  
HETATM   41  N   UNL     1     -11.699  15.420  68.629  1.00  0.00    -0.363 NA 
HETATM   42  N   UNL     1     -11.926  16.375  73.043  1.00  0.00    -0.519 NA 
HETATM   43  H   UNL     1      -9.878  17.886  70.997  1.00  0.00     0.000 HD 
HETATM   44  S   UNL     1     -13.186  15.093  70.491  1.00  0.00    -0.144 SA 
HETATM   45  H1  UNL     1     -11.334  17.019  73.566  1.00  0.00     0.000 HD 
HETATM   46  H2  UNL     1     -12.523  15.668  73.472  1.00  0.00     0.000 HD 
HETATM   47  N   UNL     1     -10.564  17.211  70.659  1.00  0.00     0.753 NA 
BRANCH  38  48
HETATM   48  N   UNL     1      -8.668  17.275  67.808  1.00  0.00    -0.223 NA 
HETATM   49  H   UNL     1      -8.141  17.111  68.667  1.00  0.00     0.000 HD 
BRANCH  48  50
HETATM   50  O   UNL     1      -8.175  18.109  66.851  1.00  0.00    -0.229 OA 
HETATM   51  O   UNL     1      -9.693  21.203  67.667  1.00  0.00    -0.274 OA 
HETATM   52  C   UNL     1      -9.386  20.140  67.143  1.00  0.00    -0.393 C  
HETATM   53  C   UNL     1      -7.024  20.127  66.553  1.00  0.00    -0.268 C  
HETATM   54  C   UNL     1      -8.038  19.586  69.014  1.00  0.00    -0.255 C  
HETATM   55  C   UNL     1      -8.073  19.434  67.432  1.00  0.00    -0.281 C  
HETATM   56  O   UNL     1     -10.186  19.504  66.264  1.00  0.00    -0.410 OA 
ENDBRANCH  48  50
ENDBRANCH  38  48
ENDBRANCH  35  38
ENDBRANCH  33  34
ENDBRANCH  21  22
ENDBRANCH   9  21
TORSDOF 11
ENDMDL
MODEL       70
REMARK 921   NORMALIZED FREE ENERGY PREDICTED BY IDOCK:   -3.23 KCAL/MOL
REMARK 922        TOTAL FREE ENERGY PREDICTED BY IDOCK:   -9.09 KCAL/MOL
REMARK 923 INTER-LIGAND FREE ENERGY PREDICTED BY IDOCK:   -8.34 KCAL/MOL
REMARK 924 INTRA-LIGAND FREE ENERGY PREDICTED BY IDOCK:   -0.74 KCAL/MOL
REMARK 927      BINDING AFFINITY PREDICTED BY RF-SCORE:    0.00 PKD
ROOT
HETATM    1  C   UNL     1     -10.167   4.583  66.489  1.00  0.00    -0.191 C  
HETATM    2  N   UNL     1      -9.081   4.263  67.392  1.00  0.00    -0.128 NA 
HETATM    3  C   UNL     1      -9.091   3.209  68.291  1.00  0.00    -0.164 A  
HETATM    4  C   UNL     1      -8.371   3.550  69.458  1.00  0.00    -0.055 A  
HETATM    5  N   UNL     1      -9.727   2.024  68.123  1.00  0.00    -0.306 NA 
HETATM    6  C   UNL     1      -8.006   4.920  69.190  1.00  0.00    -0.075 A  
HETATM    7  H2  UNL     1     -10.247   1.897  67.255  1.00  0.00     0.000 HD 
HETATM    8  H1  UNL     1      -9.734   1.249  68.784  1.00  0.00     0.000 HD 
HETATM    9  N   UNL     1      -8.154   5.155  67.796  1.00  0.00    -0.099 NA 
ENDROOT
BRANCH   4  10
HETATM   10  N   UNL     1      -8.290   2.679  70.530  1.00  0.00    -0.048 N  
HETATM   11  H   UNL     1      -8.020   1.718  70.322  1.00  0.00     0.000 HD 
BRANCH  10  12
HETATM   12  C   UNL     1      -8.537   2.977  71.834  1.00  0.00    -0.073 C  
HETATM   13  O   UNL     1      -7.851   2.462  72.709  1.00  0.00    -0.051 OA 
BRANCH  12  14
HETATM   14  N   UNL     1      -9.660   3.714  72.058  1.00  0.00    -0.135 N  
HETATM   15  H   UNL     1     -10.503   3.549  71.508  1.00  0.00     0.000 HD 
BRANCH  14  16
HETATM   16  C   UNL     1      -9.643   4.739  73.088  1.00  0.00    -0.133 C  
BRANCH  16  17
HETATM   17  C   UNL     1      -9.473   6.151  72.512  1.00  0.00    -0.143 C  
HETATM   18  H2  UNL     1     -10.709   7.016  73.922  1.00  0.00     0.000 HD 
HETATM   19  N   UNL     1     -10.586   7.000  72.909  1.00  0.00    -0.247 NA 
HETATM   20  H1  UNL     1     -10.473   7.939  72.527  1.00  0.00     0.000 HD 
ENDBRANCH  16  17
ENDBRANCH  14  16
ENDBRANCH  12  14
ENDBRANCH  10  12
ENDBRANCH   4  10
BRANCH   9  21
HETATM   21  C   UNL     1      -7.671   6.240  66.891  1.00  0.00    -0.100 C  
BRANCH  21  22
HETATM   22  C   UNL     1      -8.694   7.666  66.633  1.00  0.00    -0.150 C  
HETATM   23  CA  UNL     1     -10.016   8.520  67.728  1.00  0.00    -0.190 C  
HETATM   24  C   UNL     1     -10.160  11.016  68.271  1.00  0.00    -0.177 C  
HETATM   25  C   UNL     1      -8.174   8.358  64.966  1.00  0.00    -0.155 C  
HETATM   26  C   UNL     1     -10.858   8.011  69.367  1.00  0.00    -0.094 C  
HETATM   27  N   UNL     1     -10.681   9.994  67.456  1.00  0.00    -0.275 N  
HETATM   28  O   UNL     1      -9.650  11.046  69.384  1.00  0.00    -0.060 OA 
HETATM   29  S   UNL     1      -9.111  10.319  64.385  1.00  0.00    -0.261 SA 
HETATM   30  C   UNL     1     -10.434  10.889  66.120  1.00  0.00    -0.229 C  
HETATM   31  O   UNL     1     -11.096   6.770  69.529  1.00  0.00    -0.268 OA 
HETATM   32  OXT UNL     1     -11.282   9.007  70.007  1.00  0.00    -0.221 OA 
HETATM   33  CA  UNL     1      -9.777  11.936  67.105  1.00  0.00    -0.185 C  
BRANCH  33  34
HETATM   34  N   UNL     1      -8.303  12.220  67.059  1.00  0.00    -0.216 N  
HETATM   35  C   UNL     1      -7.551  13.297  67.550  1.00  0.00    -0.164 C  
HETATM   36  H   UNL     1      -7.751  11.504  66.586  1.00  0.00     0.000 HD 
HETATM   37  O   UNL     1      -6.339  13.193  67.363  1.00  0.00    -0.219 OA 
BRANCH  35  38
HETATM   38  C   UNL     1      -8.097  14.578  68.322  1.00  0.00    -0.140 C  
HETATM   39  C   UNL     1      -7.527  15.891  68.122  1.00  0.00    -0.127 C  
HETATM   40  C   UNL     1      -6.620  18.866  68.021  1.00  0.00    -0.222 C  
HETATM   41  N   UNL     1      -6.522  15.813  66.830  1.00  0.00    -0.229 NA 
HETATM   42  N   UNL     1      -6.706  20.218  67.835  1.00  0.00    -0.271 NA 
HETATM   43  H   UNL     1      -8.273  17.930  69.560  1.00  0.00     0.000 HD 
HETATM   44  S   UNL     1      -5.328  17.844  66.348  1.00  0.00    -0.192 SA 
HETATM   45  H1  UNL     1      -7.267  20.662  68.561  1.00  0.00     0.000 HD 
HETATM   46  H2  UNL     1      -6.264  20.720  67.065  1.00  0.00     0.000 HD 
HETATM   47  N   UNL     1      -7.646  17.682  68.795  1.00  0.00    -0.267 NA 
BRANCH  38  48
HETATM   48  N   UNL     1      -9.159  14.620  69.050  1.00  0.00    -0.342 NA 
HETATM   49  H   UNL     1      -9.130  15.049  69.974  1.00  0.00     0.000 HD 
BRANCH  48  50
HETATM   50  O   UNL     1     -10.320  14.087  68.578  1.00  0.00    -0.237 OA 
HETATM   51  O   UNL     1     -12.782  15.866  70.401  1.00  0.00    -0.372 OA 
HETATM   52  C   UNL     1     -12.015  15.011  69.974  1.00  0.00    -0.332 C  
HETATM   53  C   UNL     1     -12.365  14.661  67.591  1.00  0.00     0.102 C  
HETATM   54  C   UNL     1     -10.876  16.648  68.690  1.00  0.00    -0.344 C  
HETATM   55  C   UNL     1     -11.331  15.126  68.623  1.00  0.00    -0.310 C  
HETATM   56  O   UNL     1     -11.713  13.894  70.665  1.00  0.00    -0.246 OA 
ENDBRANCH  48  50
ENDBRANCH  38  48
ENDBRANCH  35  38
ENDBRANCH  33  34
ENDBRANCH  21  22
ENDBRANCH   9  21
TORSDOF 11
ENDMDL
MODEL       71
REMARK 921   NORMALIZED FREE ENERGY PREDICTED BY IDOCK:   -3.18 KCAL/MOL
REMARK 922        TOTAL FREE ENERGY PREDICTED BY IDOCK:   -9.01 KCAL/MOL
REMARK 923 INTER-LIGAND FREE ENERGY PREDICTED BY IDOCK:   -7.04 KCAL/MOL
REMARK 924 INTRA-LIGAND FREE ENERGY PREDICTED BY IDOCK:   -1.97 KCAL/MOL
REMARK 927      BINDING AFFINITY PREDICTED BY RF-SCORE:    0.00 PKD
ROOT
HETATM    1  C   UNL     1     -10.098  14.858  69.889  1.00  0.00     0.057 C  
HETATM    2  N   UNL     1     -10.216  14.293  68.560  1.00  0.00    -0.241 NA 
HETATM    3  C   UNL     1     -11.361  14.348  67.781  1.00  0.00    -0.312 A  
HETATM    4  C   UNL     1     -11.472  13.185  66.986  1.00  0.00    -0.336 A  
HETATM    5  N   UNL     1     -12.283  15.340  67.790  1.00  0.00    -0.283 NA 
HETATM    6  C   UNL     1     -10.333  12.417  67.426  1.00  0.00    -0.207 A  
HETATM    7  H2  UNL     1     -12.121  16.118  68.429  1.00  0.00     0.000 HD 
HETATM    8  H1  UNL     1     -13.125  15.381  67.217  1.00  0.00     0.000 HD 
HETATM    9  N   UNL     1      -9.438  13.292  68.099  1.00  0.00    -0.218 NA 
ENDROOT
BRANCH   4  10
HETATM   10  N   UNL     1     -12.567  12.981  66.166  1.00  0.00    -0.111 N  
HETATM   11  H   UNL     1     -13.312  12.388  66.533  1.00  0.00     0.000 HD 
BRANCH  10  12
HETATM   12  C   UNL     1     -12.750  13.492  64.919  1.00  0.00    -0.287 C  
HETATM   13  O   UNL     1     -13.019  14.681  64.789  1.00  0.00    -0.489 OA 
BRANCH  12  14
HETATM   14  N   UNL     1     -12.779  12.573  63.915  1.00  0.00    -0.737 N  
HETATM   15  H   UNL     1     -13.551  11.910  63.844  1.00  0.00     0.000 HD 
BRANCH  14  16
HETATM   16  C   UNL     1     -11.697  12.547  62.945  1.00  0.00     0.321 C  
BRANCH  16  17
HETATM   17  C   UNL     1     -10.349  12.174  63.575  1.00  0.00    -0.441 C  
HETATM   18  H2  UNL     1     -10.468  10.201  62.977  1.00  0.00     0.000 HD 
HETATM   19  N   UNL     1     -10.282  10.741  63.822  1.00  0.00    -0.451 NA 
HETATM   20  H1  UNL     1      -9.386  10.493  64.241  1.00  0.00     0.000 HD 
ENDBRANCH  16  17
ENDBRANCH  14  16
ENDBRANCH  12  14
ENDBRANCH  10  12
ENDBRANCH   4  10
BRANCH   9  21
HETATM   21  C   UNL     1      -8.007  13.169  68.506  1.00  0.00    -0.094 C  
BRANCH  21  22
HETATM   22  C   UNL     1      -7.122  11.686  68.103  1.00  0.00    -0.078 C  
HETATM   23  CA  UNL     1      -6.286  10.346  69.192  1.00  0.00    -0.041 C  
HETATM   24  C   UNL     1      -6.592   7.814  68.988  1.00  0.00    -0.048 C  
HETATM   25  C   UNL     1      -7.201  11.550  66.231  1.00  0.00     0.146 C  
HETATM   26  C   UNL     1      -5.914  10.253  71.064  1.00  0.00    -0.016 C  
HETATM   27  N   UNL     1      -5.741   8.890  68.671  1.00  0.00    -0.041 N  
HETATM   28  O   UNL     1      -7.407   7.601  69.877  1.00  0.00    -0.077 OA 
HETATM   29  S   UNL     1      -6.362   9.658  65.350  1.00  0.00    -0.081 SA 
HETATM   30  C   UNL     1      -5.683   8.425  67.113  1.00  0.00    -0.039 C  
HETATM   31  O   UNL     1      -5.595  11.344  71.641  1.00  0.00    -0.350 OA 
HETATM   32  OXT UNL     1      -5.812   9.066  71.465  1.00  0.00    -0.051 OA 
HETATM   33  CA  UNL     1      -6.714   7.310  67.546  1.00  0.00    -0.065 C  
BRANCH  33  34
HETATM   34  N   UNL     1      -8.131   7.333  67.048  1.00  0.00    -0.115 N  
HETATM   35  C   UNL     1      -9.244   6.548  67.383  1.00  0.00    -0.121 C  
HETATM   36  H   UNL     1      -8.317   8.046  66.342  1.00  0.00     0.000 HD 
HETATM   37  O   UNL     1     -10.279   6.864  66.796  1.00  0.00    -0.219 OA 
BRANCH  35  38
HETATM   38  C   UNL     1      -9.297   5.351  68.431  1.00  0.00    -0.114 C  
HETATM   39  C   UNL     1      -9.910   5.501  69.731  1.00  0.00    -0.194 C  
HETATM   40  C   UNL     1     -11.096   5.365  72.605  1.00  0.00    -0.278 C  
HETATM   41  N   UNL     1     -10.723   6.923  69.744  1.00  0.00    -0.232 NA 
HETATM   42  N   UNL     1     -11.883   4.939  73.639  1.00  0.00    -0.289 NA 
HETATM   43  H   UNL     1      -9.782   3.612  71.519  1.00  0.00     0.000 HD 
HETATM   44  S   UNL     1     -11.740   7.492  71.849  1.00  0.00    -0.296 SA 
HETATM   45  H1  UNL     1     -11.603   4.015  73.968  1.00  0.00     0.000 HD 
HETATM   46  H2  UNL     1     -12.654   5.478  74.032  1.00  0.00     0.000 HD 
HETATM   47  N   UNL     1     -10.166   4.545  71.373  1.00  0.00    -0.156 NA 
BRANCH  38  48
HETATM   48  N   UNL     1      -8.964   4.130  68.193  1.00  0.00    -0.110 NA 
HETATM   49  H   UNL     1      -9.472   3.365  68.636  1.00  0.00     0.000 HD 
BRANCH  48  50
HETATM   50  O   UNL     1      -7.930   3.868  67.347  1.00  0.00    -0.089 OA 
HETATM   51  O   UNL     1      -6.011   1.520  69.179  1.00  0.00    -0.022 OA 
HETATM   52  C   UNL     1      -6.431   2.531  68.629  1.00  0.00    -0.029 C  
HETATM   53  C   UNL     1      -6.813   2.119  66.260  1.00  0.00    -0.043 C  
HETATM   54  C   UNL     1      -8.529   1.485  68.267  1.00  0.00    -0.081 C  
HETATM   55  C   UNL     1      -7.518   2.494  67.569  1.00  0.00    -0.057 C  
HETATM   56  O   UNL     1      -5.963   3.762  68.914  1.00  0.00    -0.022 OA 
ENDBRANCH  48  50
ENDBRANCH  38  48
ENDBRANCH  35  38
ENDBRANCH  33  34
ENDBRANCH  21  22
ENDBRANCH   9  21
TORSDOF 11
ENDMDL
MODEL       72
REMARK 921   NORMALIZED FREE ENERGY PREDICTED BY IDOCK:   -3.17 KCAL/MOL
REMARK 922        TOTAL FREE ENERGY PREDICTED BY IDOCK:   -8.99 KCAL/MOL
REMARK 923 INTER-LIGAND FREE ENERGY PREDICTED BY IDOCK:   -8.53 KCAL/MOL
REMARK 924 INTRA-LIGAND FREE ENERGY PREDICTED BY IDOCK:   -0.45 KCAL/MOL
REMARK 927      BINDING AFFINITY PREDICTED BY RF-SCORE:    0.00 PKD
ROOT
HETATM    1  C   UNL     1     -11.140   6.343  67.069  1.00  0.00    -0.329 C  
HETATM    2  N   UNL     1     -10.289   7.077  67.983  1.00  0.00    -0.182 NA 
HETATM    3  C   UNL     1     -10.006   6.684  69.280  1.00  0.00    -0.158 A  
HETATM    4  C   UNL     1      -9.846   7.814  70.113  1.00  0.00    -0.184 A  
HETATM    5  N   UNL     1      -9.929   5.407  69.727  1.00  0.00    -0.202 NA 
HETATM    6  C   UNL     1     -10.135   8.895  69.203  1.00  0.00    -0.197 A  
HETATM    7  H2  UNL     1     -10.095   4.667  69.046  1.00  0.00     0.000 HD 
HETATM    8  H1  UNL     1      -9.720   5.118  70.683  1.00  0.00     0.000 HD 
HETATM    9  N   UNL     1     -10.037   8.398  67.876  1.00  0.00    -0.192 NA 
ENDROOT
BRANCH   4  10
HETATM   10  N   UNL     1      -9.616   7.676  71.471  1.00  0.00    -0.154 N  
HETATM   11  H   UNL     1      -8.766   8.103  71.839  1.00  0.00     0.000 HD 
BRANCH  10  12
HETATM   12  C   UNL     1     -10.411   7.027  72.363  1.00  0.00    -0.209 C  
HETATM   13  O   UNL     1     -10.065   5.933  72.794  1.00  0.00    -0.178 OA 
BRANCH  12  14
HETATM   14  N   UNL     1     -11.630   7.596  72.574  1.00  0.00    -0.422 N  
HETATM   15  H   UNL     1     -11.729   8.377  73.223  1.00  0.00     0.000 HD 
BRANCH  14  16
HETATM   16  C   UNL     1     -12.788   7.079  71.865  1.00  0.00    -0.259 C  
BRANCH  16  17
HETATM   17  C   UNL     1     -13.879   8.138  71.665  1.00  0.00    -0.375 C  
HETATM   18  H2  UNL     1     -13.389   9.157  73.392  1.00  0.00     0.000 HD 
HETATM   19  N   UNL     1     -14.213   8.771  72.932  1.00  0.00    -1.095 NA 
HETATM   20  H1  UNL     1     -14.938   9.476  72.799  1.00  0.00     0.000 HD 
ENDBRANCH  16  17
ENDBRANCH  14  16
ENDBRANCH  12  14
ENDBRANCH  10  12
ENDBRANCH   4  10
BRANCH   9  21
HETATM   21  C   UNL     1      -9.936   9.065  66.543  1.00  0.00    -0.285 C  
BRANCH  21  22
HETATM   22  C   UNL     1     -10.601  10.697  66.345  1.00  0.00    -0.240 C  
HETATM   23  CA  UNL     1     -11.417  11.916  67.579  1.00  0.00    -0.326 C  
HETATM   24  C   UNL     1     -10.819  14.384  67.899  1.00  0.00    -0.251 C  
HETATM   25  C   UNL     1     -10.275  11.154  64.552  1.00  0.00    -0.383 C  
HETATM   26  C   UNL     1     -12.008  11.720  69.386  1.00  0.00    -0.298 C  
HETATM   27  N   UNL     1     -11.734  13.500  67.295  1.00  0.00    -0.361 N  
HETATM   28  O   UNL     1     -10.104  14.328  68.890  1.00  0.00    -0.226 OA 
HETATM   29  S   UNL     1     -10.790  13.265  63.970  1.00  0.00    -0.146 SA 
HETATM   30  C   UNL     1     -11.548  14.239  65.858  1.00  0.00    -0.358 C  
HETATM   31  O   UNL     1     -12.511  10.594  69.706  1.00  0.00    -0.280 OA 
HETATM   32  OXT UNL     1     -12.031  12.819  69.996  1.00  0.00    -0.332 OA 
HETATM   33  CA  UNL     1     -10.465  15.118  66.600  1.00  0.00    -0.287 C  
BRANCH  33  34
HETATM   34  N   UNL     1      -9.008  15.002  66.255  1.00  0.00    -0.455 N  
HETATM   35  C   UNL     1      -7.854  15.324  66.985  1.00  0.00    -0.189 C  
HETATM   36  H   UNL     1      -8.825  14.621  65.327  1.00  0.00     0.000 HD 
HETATM   37  O   UNL     1      -6.800  15.067  66.403  1.00  0.00     0.982 OA 
BRANCH  35  38
HETATM   38  C   UNL     1      -7.785  15.942  68.450  1.00  0.00    -0.140 C  
HETATM   39  C   UNL     1      -7.157  15.241  69.546  1.00  0.00    -0.201 C  
HETATM   40  C   UNL     1      -5.937  14.108  72.176  1.00  0.00     0.234 C  
HETATM   41  N   UNL     1      -6.349  13.957  68.926  1.00  0.00    -0.088 NA 
HETATM   42  N   UNL     1      -5.136  14.040  73.281  1.00  0.00    -0.271 NA 
HETATM   43  H   UNL     1      -7.256  16.157  71.982  1.00  0.00     0.000 HD 
HETATM   44  S   UNL     1      -5.310  12.526  70.557  1.00  0.00    -0.162 SA 
HETATM   45  H1  UNL     1      -5.408  14.727  73.985  1.00  0.00     0.000 HD 
HETATM   46  H2  UNL     1      -4.362  13.385  73.390  1.00  0.00     0.000 HD 
HETATM   47  N   UNL     1      -6.877  15.382  71.437  1.00  0.00     1.513 NA 
BRANCH  38  48
HETATM   48  N   UNL     1      -8.115  17.144  68.774  1.00  0.00    -0.267 NA 
HETATM   49  H   UNL     1      -9.042  17.501  68.542  1.00  0.00     0.000 HD 
BRANCH  48  50
HETATM   50  O   UNL     1      -7.220  17.936  69.428  1.00  0.00    -0.134 OA 
HETATM   51  O   UNL     1      -6.308  20.287  66.940  1.00  0.00    -0.191 OA 
HETATM   52  C   UNL     1      -6.327  19.356  67.735  1.00  0.00    -0.212 C  
HETATM   53  C   UNL     1      -6.769  20.165  69.989  1.00  0.00    -0.177 C  
HETATM   54  C   UNL     1      -8.650  19.681  68.090  1.00  0.00    -0.360 C  
HETATM   55  C   UNL     1      -7.329  19.273  68.874  1.00  0.00    -0.356 C  
HETATM   56  O   UNL     1      -5.461  18.326  67.671  1.00  0.00    -0.148 OA 
ENDBRANCH  48  50
ENDBRANCH  38  48
ENDBRANCH  35  38
ENDBRANCH  33  34
ENDBRANCH  21  22
ENDBRANCH   9  21
TORSDOF 11
ENDMDL
MODEL       73
REMARK 921   NORMALIZED FREE ENERGY PREDICTED BY IDOCK:   -3.10 KCAL/MOL
REMARK 922        TOTAL FREE ENERGY PREDICTED BY IDOCK:   -8.88 KCAL/MOL
REMARK 923 INTER-LIGAND FREE ENERGY PREDICTED BY IDOCK:   -7.34 KCAL/MOL
REMARK 924 INTRA-LIGAND FREE ENERGY PREDICTED BY IDOCK:   -1.54 KCAL/MOL
REMARK 927      BINDING AFFINITY PREDICTED BY RF-SCORE:    0.00 PKD
ROOT
HETATM    1  C   UNL     1      -9.877  16.602  69.574  1.00  0.00    -0.038 C  
HETATM    2  N   UNL     1      -9.912  15.969  68.272  1.00  0.00    -0.218 NA 
HETATM    3  C   UNL     1     -10.827  16.271  67.276  1.00  0.00    -0.216 A  
HETATM    4  C   UNL     1     -11.128  15.117  66.518  1.00  0.00    -0.305 A  
HETATM    5  N   UNL     1     -11.400  17.479  67.060  1.00  0.00     0.503 NA 
HETATM    6  C   UNL     1     -10.367  14.104  67.208  1.00  0.00    -0.267 A  
HETATM    7  H2  UNL     1     -11.136  18.236  67.690  1.00  0.00     0.000 HD 
HETATM    8  H1  UNL     1     -12.074  17.701  66.327  1.00  0.00     0.000 HD 
HETATM    9  N   UNL     1      -9.393  14.751  68.015  1.00  0.00    -0.192 NA 
ENDROOT
BRANCH   4  10
HETATM   10  N   UNL     1     -12.066  15.153  65.502  1.00  0.00     0.083 N  
HETATM   11  H   UNL     1     -13.040  15.016  65.770  1.00  0.00     0.000 HD 
BRANCH  10  12
HETATM   12  C   UNL     1     -11.817  15.352  64.179  1.00  0.00    -0.104 C  
HETATM   13  O   UNL     1     -11.411  16.445  63.801  1.00  0.00    -1.002 OA 
BRANCH  12  14
HETATM   14  N   UNL     1     -12.211  14.341  63.357  1.00  0.00    -1.068 N  
HETATM   15  H   UNL     1     -12.961  14.486  62.682  1.00  0.00     0.000 HD 
BRANCH  14  16
HETATM   16  C   UNL     1     -11.548  13.050  63.452  1.00  0.00    -0.342 C  
BRANCH  16  17
HETATM   17  C   UNL     1     -12.471  11.954  63.999  1.00  0.00    -0.313 C  
HETATM   18  H2  UNL     1     -12.958  13.026  65.694  1.00  0.00     0.000 HD 
HETATM   19  N   UNL     1     -12.632  12.094  65.438  1.00  0.00    -0.327 NA 
HETATM   20  H1  UNL     1     -13.246  11.365  65.802  1.00  0.00     0.000 HD 
ENDBRANCH  16  17
ENDBRANCH  14  16
ENDBRANCH  12  14
ENDBRANCH  10  12
ENDBRANCH   4  10
BRANCH   9  21
HETATM   21  C   UNL     1      -8.162  14.268  68.708  1.00  0.00    -0.102 C  
BRANCH  21  22
HETATM   22  C   UNL     1      -7.587  12.620  68.395  1.00  0.00    -0.132 C  
HETATM   23  CA  UNL     1      -6.613  11.367  69.472  1.00  0.00    -0.129 C  
HETATM   24  C   UNL     1      -7.221   8.914  69.874  1.00  0.00    -0.052 C  
HETATM   25  C   UNL     1      -8.218  12.189  66.679  1.00  0.00    -0.017 C  
HETATM   26  C   UNL     1      -5.726  11.530  71.157  1.00  0.00     0.138 C  
HETATM   27  N   UNL     1      -6.394   9.777  69.132  1.00  0.00    -0.040 N  
HETATM   28  O   UNL     1      -7.761   8.981  70.971  1.00  0.00    -0.118 OA 
HETATM   29  S   UNL     1      -7.868  10.070  66.010  1.00  0.00    -0.125 SA 
HETATM   30  C   UNL     1      -6.837   9.057  67.742  1.00  0.00    -0.070 C  
HETATM   31  O   UNL     1      -5.145  12.638  71.394  1.00  0.00    -0.149 OA 
HETATM   32  OXT UNL     1      -5.635  10.425  71.749  1.00  0.00    -0.299 OA 
HETATM   33  CA  UNL     1      -7.807   8.202  68.649  1.00  0.00    -0.114 C  
BRANCH  33  34
HETATM   34  N   UNL     1      -9.297   8.362  68.551  1.00  0.00    -0.139 N  
HETATM   35  C   UNL     1     -10.337   7.424  68.623  1.00  0.00    -0.198 C  
HETATM   36  H   UNL     1      -9.608   9.323  68.407  1.00  0.00     0.000 HD 
HETATM   37  O   UNL     1     -11.464   7.911  68.533  1.00  0.00     0.625 OA 
BRANCH  35  38
HETATM   38  C   UNL     1     -10.200   5.851  68.829  1.00  0.00    -0.189 C  
HETATM   39  C   UNL     1      -9.784   4.974  67.759  1.00  0.00    -0.153 C  
HETATM   40  C   UNL     1      -8.949   2.726  65.774  1.00  0.00    -0.143 C  
HETATM   41  N   UNL     1      -9.243   5.905  66.524  1.00  0.00    -0.142 NA 
HETATM   42  N   UNL     1      -8.229   1.682  65.263  1.00  0.00    -0.075 NA 
HETATM   43  H   UNL     1      -9.790   2.385  68.045  1.00  0.00     0.000 HD 
HETATM   44  S   UNL     1      -8.605   4.696  64.545  1.00  0.00    -0.145 SA 
HETATM   45  H1  UNL     1      -8.378   0.826  65.797  1.00  0.00     0.000 HD 
HETATM   46  H2  UNL     1      -7.619   1.751  64.449  1.00  0.00     0.000 HD 
HETATM   47  N   UNL     1      -9.563   3.111  67.365  1.00  0.00    -0.125 NA 
BRANCH  38  48
HETATM   48  N   UNL     1     -10.280   5.233  69.956  1.00  0.00    -0.267 NA 
HETATM   49  H   UNL     1     -10.755   4.332  70.014  1.00  0.00     0.000 HD 
BRANCH  48  50
HETATM   50  O   UNL     1      -9.727   5.788  71.069  1.00  0.00    -0.164 OA 
HETATM   51  O   UNL     1     -11.025   3.762  73.669  1.00  0.00    -0.220 OA 
HETATM   52  C   UNL     1     -10.792   4.676  72.887  1.00  0.00    -0.221 C  
HETATM   53  C   UNL     1      -8.435   5.281  72.957  1.00  0.00    -0.111 C  
HETATM   54  C   UNL     1      -9.492   3.219  71.541  1.00  0.00    -0.217 C  
HETATM   55  C   UNL     1      -9.533   4.727  72.040  1.00  0.00    -0.141 C  
HETATM   56  O   UNL     1     -11.631   5.716  72.713  1.00  0.00    -0.297 OA 
ENDBRANCH  48  50
ENDBRANCH  38  48
ENDBRANCH  35  38
ENDBRANCH  33  34
ENDBRANCH  21  22
ENDBRANCH   9  21
TORSDOF 11
ENDMDL
MODEL       74
REMARK 921   NORMALIZED FREE ENERGY PREDICTED BY IDOCK:   -2.83 KCAL/MOL
REMARK 922        TOTAL FREE ENERGY PREDICTED BY IDOCK:   -8.43 KCAL/MOL
REMARK 923 INTER-LIGAND FREE ENERGY PREDICTED BY IDOCK:   -6.05 KCAL/MOL
REMARK 924 INTRA-LIGAND FREE ENERGY PREDICTED BY IDOCK:   -2.38 KCAL/MOL
REMARK 927      BINDING AFFINITY PREDICTED BY RF-SCORE:    0.00 PKD
ROOT
HETATM    1  C   UNL     1     -10.777   5.184  67.232  1.00  0.00     0.048 C  
HETATM    2  N   UNL     1      -9.691   4.229  67.309  1.00  0.00    -0.190 NA 
HETATM    3  C   UNL     1      -9.103   3.617  66.215  1.00  0.00    -0.154 A  
HETATM    4  C   UNL     1      -8.688   2.308  66.546  1.00  0.00    -0.120 A  
HETATM    5  N   UNL     1      -8.968   4.155  64.978  1.00  0.00    -0.130 NA 
HETATM    6  C   UNL     1      -9.154   2.186  67.906  1.00  0.00    -0.177 A  
HETATM    7  H2  UNL     1      -9.335   5.097  64.841  1.00  0.00     0.000 HD 
HETATM    8  H1  UNL     1      -8.535   3.705  64.173  1.00  0.00     0.000 HD 
HETATM    9  N   UNL     1      -9.419   3.490  68.404  1.00  0.00    -0.168 NA 
ENDROOT
BRANCH   4  10
HETATM   10  N   UNL     1      -8.126   1.473  65.597  1.00  0.00    -0.073 N  
HETATM   11  H   UNL     1      -8.275   0.472  65.719  1.00  0.00     0.000 HD 
BRANCH  10  12
HETATM   12  C   UNL     1      -7.394   1.856  64.515  1.00  0.00    -0.057 C  
HETATM   13  O   UNL     1      -7.904   1.825  63.402  1.00  0.00    -0.058 OA 
BRANCH  12  14
HETATM   14  N   UNL     1      -6.075   2.089  64.762  1.00  0.00    -0.017 N  
HETATM   15  H   UNL     1      -5.466   1.331  65.070  1.00  0.00     0.000 HD 
BRANCH  14  16
HETATM   16  C   UNL     1      -5.545   3.431  64.583  1.00  0.00    -0.010 C  
BRANCH  16  17
HETATM   17  C   UNL     1      -5.174   4.100  65.911  1.00  0.00    -0.009 C  
HETATM   18  H2  UNL     1      -5.038   2.307  66.927  1.00  0.00     0.000 HD 
HETATM   19  N   UNL     1      -5.482   3.220  67.029  1.00  0.00    -0.020 NA 
HETATM   20  H1  UNL     1      -5.235   3.665  67.913  1.00  0.00     0.000 HD 
ENDBRANCH  16  17
ENDBRANCH  14  16
ENDBRANCH  12  14
ENDBRANCH  10  12
ENDBRANCH   4  10
BRANCH   9  21
HETATM   21  C   UNL     1      -9.632   4.030  69.780  1.00  0.00    -0.210 C  
BRANCH  21  22
HETATM   22  C   UNL     1      -9.160   5.703  70.132  1.00  0.00    -0.159 C  
HETATM   23  CA  UNL     1      -7.607   6.729  69.672  1.00  0.00    -0.101 C  
HETATM   24  C   UNL     1      -7.582   9.070  68.640  1.00  0.00    -0.092 C  
HETATM   25  C   UNL     1     -10.614   6.447  71.060  1.00  0.00    -0.282 C  
HETATM   26  C   UNL     1      -5.934   6.252  68.881  1.00  0.00    -0.021 C  
HETATM   27  N   UNL     1      -7.444   8.352  69.842  1.00  0.00    -0.063 N  
HETATM   28  O   UNL     1      -7.390   8.807  67.460  1.00  0.00    -0.080 OA 
HETATM   29  S   UNL     1     -10.475   8.650  71.493  1.00  0.00    -0.302 SA 
HETATM   30  C   UNL     1      -8.523   9.319  70.581  1.00  0.00    -0.217 C  
HETATM   31  O   UNL     1      -5.454   5.114  69.195  1.00  0.00    -0.007 OA 
HETATM   32  OXT UNL     1      -5.390   7.228  68.306  1.00  0.00    -0.019 OA 
HETATM   33  CA  UNL     1      -8.682  10.000  69.165  1.00  0.00    -0.167 C  
BRANCH  33  34
HETATM   34  N   UNL     1      -9.960   9.873  68.385  1.00  0.00    -0.154 N  
HETATM   35  C   UNL     1     -10.416  10.537  67.238  1.00  0.00    -0.250 C  
HETATM   36  H   UNL     1     -10.612   9.181  68.757  1.00  0.00     0.000 HD 
HETATM   37  O   UNL     1     -11.517  10.158  66.839  1.00  0.00     0.052 OA 
BRANCH  35  38
HETATM   38  C   UNL     1      -9.657  11.671  66.418  1.00  0.00    -0.217 C  
HETATM   39  C   UNL     1      -9.584  13.035  66.890  1.00  0.00    -0.243 C  
HETATM   40  C   UNL     1      -9.184  16.061  67.498  1.00  0.00    -0.211 C  
HETATM   41  N   UNL     1     -10.125  13.064  68.436  1.00  0.00    -0.234 NA 
HETATM   42  N   UNL     1      -8.525  17.235  67.738  1.00  0.00    -0.214 NA 
HETATM   43  H   UNL     1      -8.543  14.924  65.430  1.00  0.00     0.000 HD 
HETATM   44  S   UNL     1     -10.237  15.250  69.433  1.00  0.00    -0.260 SA 
HETATM   45  H1  UNL     1      -8.068  17.588  66.898  1.00  0.00     0.000 HD 
HETATM   46  H2  UNL     1      -8.495  17.700  68.645  1.00  0.00     0.000 HD 
HETATM   47  N   UNL     1      -8.970  14.767  66.343  1.00  0.00    -0.235 NA 
BRANCH  38  48
HETATM   48  N   UNL     1      -8.920  11.481  65.379  1.00  0.00    -0.398 NA 
HETATM   49  H   UNL     1      -9.137  11.955  64.503  1.00  0.00     0.000 HD 
BRANCH  48  50
HETATM   50  O   UNL     1      -7.849  10.643  65.458  1.00  0.00    -0.154 OA 
HETATM   51  O   UNL     1      -8.504   8.311  62.872  1.00  0.00    -0.133 OA 
HETATM   52  C   UNL     1      -8.366   8.867  63.955  1.00  0.00    -0.159 C  
HETATM   53  C   UNL     1      -6.102   9.731  64.192  1.00  0.00    -0.114 C  
HETATM   54  C   UNL     1      -8.130  10.963  62.870  1.00  0.00    -0.005 C  
HETATM   55  C   UNL     1      -7.575  10.153  64.120  1.00  0.00    -0.125 C  
HETATM   56  O   UNL     1      -8.903   8.386  65.093  1.00  0.00    -0.143 OA 
ENDBRANCH  48  50
ENDBRANCH  38  48
ENDBRANCH  35  38
ENDBRANCH  33  34
ENDBRANCH  21  22
ENDBRANCH   9  21
TORSDOF 11
ENDMDL
MODEL       75
REMARK 921   NORMALIZED FREE ENERGY PREDICTED BY IDOCK:   -2.82 KCAL/MOL
REMARK 922        TOTAL FREE ENERGY PREDICTED BY IDOCK:   -8.42 KCAL/MOL
REMARK 923 INTER-LIGAND FREE ENERGY PREDICTED BY IDOCK:   -7.40 KCAL/MOL
REMARK 924 INTRA-LIGAND FREE ENERGY PREDICTED BY IDOCK:   -1.02 KCAL/MOL
REMARK 927      BINDING AFFINITY PREDICTED BY RF-SCORE:    0.00 PKD
ROOT
HETATM    1  C   UNL     1     -10.661   5.537  69.402  1.00  0.00    -0.279 C  
HETATM    2  N   UNL     1      -9.436   4.764  69.423  1.00  0.00    -0.145 NA 
HETATM    3  C   UNL     1      -9.211   3.670  70.242  1.00  0.00    -0.152 A  
HETATM    4  C   UNL     1      -7.849   3.604  70.613  1.00  0.00    -0.053 A  
HETATM    5  N   UNL     1     -10.148   2.795  70.679  1.00  0.00     0.329 NA 
HETATM    6  C   UNL     1      -7.318   4.797  69.999  1.00  0.00    -0.054 A  
HETATM    7  H2  UNL     1     -11.109   2.957  70.378  1.00  0.00     0.000 HD 
HETATM    8  H1  UNL     1      -9.983   1.990  71.283  1.00  0.00     0.000 HD 
HETATM    9  N   UNL     1      -8.242   5.239  69.014  1.00  0.00    -0.085 NA 
ENDROOT
BRANCH   4  10
HETATM   10  N   UNL     1      -7.389   2.630  71.481  1.00  0.00    -0.039 N  
HETATM   11  H   UNL     1      -7.424   1.666  71.150  1.00  0.00     0.000 HD 
BRANCH  10  12
HETATM   12  C   UNL     1      -6.896   2.830  72.733  1.00  0.00    -0.027 C  
HETATM   13  O   UNL     1      -6.140   1.999  73.222  1.00  0.00    -0.007 OA 
BRANCH  12  14
HETATM   14  N   UNL     1      -7.435   3.885  73.406  1.00  0.00    -0.069 N  
HETATM   15  H   UNL     1      -7.211   4.841  73.130  1.00  0.00     0.000 HD 
BRANCH  14  16
HETATM   16  C   UNL     1      -8.331   3.632  74.522  1.00  0.00    -0.085 C  
BRANCH  16  17
HETATM   17  C   UNL     1      -9.802   3.565  74.093  1.00  0.00    -0.116 C  
HETATM   18  H2  UNL     1      -9.827   1.501  74.035  1.00  0.00     0.000 HD 
HETATM   19  N   UNL     1     -10.087   2.293  73.446  1.00  0.00    -0.099 NA 
HETATM   20  H1  UNL     1     -11.065   2.248  73.161  1.00  0.00     0.000 HD 
ENDBRANCH  16  17
ENDBRANCH  14  16
ENDBRANCH  12  14
ENDBRANCH  10  12
ENDBRANCH   4  10
BRANCH   9  21
HETATM   21  C   UNL     1      -8.136   6.205  67.880  1.00  0.00    -0.114 C  
BRANCH  21  22
HETATM   22  C   UNL     1      -7.200   7.695  68.102  1.00  0.00    -0.093 C  
HETATM   23  CA  UNL     1      -6.346   8.879  66.859  1.00  0.00    -0.060 C  
HETATM   24  C   UNL     1      -6.574  11.427  66.784  1.00  0.00    -0.136 C  
HETATM   25  C   UNL     1      -7.241   8.040  69.948  1.00  0.00    -0.061 C  
HETATM   26  C   UNL     1      -6.006   8.753  64.982  1.00  0.00    -0.059 C  
HETATM   27  N   UNL     1      -5.749  10.367  67.206  1.00  0.00    -0.041 N  
HETATM   28  O   UNL     1      -7.398  11.565  65.890  1.00  0.00     0.203 OA 
HETATM   29  S   UNL     1      -6.331   9.991  70.601  1.00  0.00    -0.074 SA 
HETATM   30  C   UNL     1      -5.648  10.999  68.702  1.00  0.00    -0.043 C  
HETATM   31  O   UNL     1      -5.730   7.596  64.526  1.00  0.00    -0.037 OA 
HETATM   32  OXT UNL     1      -5.878   9.884  64.450  1.00  0.00    -0.088 OA 
HETATM   33  CA  UNL     1      -6.654  12.091  68.163  1.00  0.00    -0.055 C  
BRANCH  33  34
HETATM   34  N   UNL     1      -8.062  12.167  68.682  1.00  0.00    -0.297 N  
HETATM   35  C   UNL     1      -9.203  12.806  68.175  1.00  0.00    -0.212 C  
HETATM   36  H   UNL     1      -8.216  11.665  69.557  1.00  0.00     0.000 HD 
HETATM   37  O   UNL     1     -10.219  12.633  68.849  1.00  0.00    -0.126 OA 
BRANCH  35  38
HETATM   38  C   UNL     1      -9.308  13.675  66.846  1.00  0.00    -0.257 C  
HETATM   39  C   UNL     1      -8.875  15.053  66.798  1.00  0.00    -0.268 C  
HETATM   40  C   UNL     1      -8.090  18.012  66.236  1.00  0.00    -0.224 C  
HETATM   41  N   UNL     1      -8.053  15.371  68.179  1.00  0.00    -0.133 NA 
HETATM   42  N   UNL     1      -7.456  19.071  65.649  1.00  0.00    -0.479 NA 
HETATM   43  H   UNL     1      -9.267  16.529  64.689  1.00  0.00     0.000 HD 
HETATM   44  S   UNL     1      -7.323  17.650  68.425  1.00  0.00    -0.252 SA 
HETATM   45  H1  UNL     1      -7.789  19.229  64.698  1.00  0.00     0.000 HD 
HETATM   46  H2  UNL     1      -6.738  19.634  66.106  1.00  0.00     0.000 HD 
HETATM   47  N   UNL     1      -8.855  16.566  65.621  1.00  0.00    -0.349 NA 
BRANCH  38  48
HETATM   48  N   UNL     1      -9.621  13.228  65.680  1.00  0.00    -0.490 NA 
HETATM   49  H   UNL     1      -9.434  12.255  65.437  1.00  0.00     0.000 HD 
BRANCH  48  50
HETATM   50  O   UNL     1     -10.203  14.061  64.773  1.00  0.00    -0.416 OA 
HETATM   51  O   UNL     1     -12.939  12.138  63.604  1.00  0.00    -0.780 OA 
HETATM   52  C   UNL     1     -11.871  12.726  63.716  1.00  0.00    -0.499 C  
HETATM   53  C   UNL     1     -12.239  15.080  64.220  1.00  0.00    -0.312 C  
HETATM   54  C   UNL     1     -12.274  13.055  66.030  1.00  0.00    -0.463 C  
HETATM   55  C   UNL     1     -11.628  13.787  64.776  1.00  0.00    -0.362 C  
HETATM   56  O   UNL     1     -10.819  12.485  62.910  1.00  0.00     0.061 OA 
ENDBRANCH  48  50
ENDBRANCH  38  48
ENDBRANCH  35  38
ENDBRANCH  33  34
ENDBRANCH  21  22
ENDBRANCH   9  21
TORSDOF 11
ENDMDL
MODEL       76
REMARK 921   NORMALIZED FREE ENERGY PREDICTED BY IDOCK:   -2.72 KCAL/MOL
REMARK 922        TOTAL FREE ENERGY PREDICTED BY IDOCK:   -8.25 KCAL/MOL
REMARK 923 INTER-LIGAND FREE ENERGY PREDICTED BY IDOCK:   -8.88 KCAL/MOL
REMARK 924 INTRA-LIGAND FREE ENERGY PREDICTED BY IDOCK:    0.63 KCAL/MOL
REMARK 927      BINDING AFFINITY PREDICTED BY RF-SCORE:    0.00 PKD
ROOT
HETATM    1  C   UNL     1      -8.806  17.079  65.980  1.00  0.00    -0.135 C  
HETATM    2  N   UNL     1      -9.948  16.593  66.727  1.00  0.00    -0.268 NA 
HETATM    3  C   UNL     1     -10.559  17.278  67.764  1.00  0.00    -0.367 A  
HETATM    4  C   UNL     1     -11.054  16.372  68.729  1.00  0.00    -0.337 A  
HETATM    5  N   UNL     1     -10.646  18.625  67.887  1.00  0.00    -0.381 NA 
HETATM    6  C   UNL     1     -10.613  15.106  68.199  1.00  0.00    -0.246 A  
HETATM    7  H2  UNL     1     -10.223  19.185  67.147  1.00  0.00     0.000 HD 
HETATM    8  H1  UNL     1     -11.095  19.130  68.650  1.00  0.00     0.000 HD 
HETATM    9  N   UNL     1     -10.277  15.288  66.830  1.00  0.00    -0.263 NA 
ENDROOT
BRANCH   4  10
HETATM   10  N   UNL     1     -11.654  16.823  69.892  1.00  0.00    -0.086 N  
HETATM   11  H   UNL     1     -12.038  17.767  69.875  1.00  0.00     0.000 HD 
BRANCH  10  12
HETATM   12  C   UNL     1     -11.781  16.130  71.056  1.00  0.00    -0.367 C  
HETATM   13  O   UNL     1     -11.586  16.703  72.121  1.00  0.00    -0.386 OA 
BRANCH  12  14
HETATM   14  N   UNL     1     -11.958  14.788  70.915  1.00  0.00    -0.305 N  
HETATM   15  H   UNL     1     -11.849  14.346  70.002  1.00  0.00     0.000 HD 
BRANCH  14  16
HETATM   16  C   UNL     1     -12.305  13.991  72.080  1.00  0.00    -0.028 C  
BRANCH  16  17
HETATM   17  C   UNL     1     -13.201  12.796  71.731  1.00  0.00    -0.374 C  
HETATM   18  H2  UNL     1     -14.787  13.489  72.857  1.00  0.00     0.000 HD 
HETATM   19  N   UNL     1     -14.246  12.633  72.731  1.00  0.00    -0.384 NA 
HETATM   20  H1  UNL     1     -14.842  11.839  72.500  1.00  0.00     0.000 HD 
ENDBRANCH  16  17
ENDBRANCH  14  16
ENDBRANCH  12  14
ENDBRANCH  10  12
ENDBRANCH   4  10
BRANCH   9  21
HETATM   21  C   UNL     1     -10.048  14.337  65.703  1.00  0.00    -0.341 C  
BRANCH  21  22
HETATM   22  C   UNL     1     -10.254  12.598  65.987  1.00  0.00    -0.287 C  
HETATM   23  CA  UNL     1      -9.594  11.053  65.063  1.00  0.00    -0.247 C  
HETATM   24  C   UNL     1      -8.425   9.035  66.118  1.00  0.00    -0.127 C  
HETATM   25  C   UNL     1     -11.264  12.467  67.566  1.00  0.00    -0.342 C  
HETATM   26  C   UNL     1      -8.684  10.837  63.397  1.00  0.00    -0.123 C  
HETATM   27  N   UNL     1      -9.651   9.509  65.614  1.00  0.00    -0.264 N  
HETATM   28  O   UNL     1      -7.251   9.300  65.897  1.00  0.00    -0.088 OA 
HETATM   29  S   UNL     1     -11.550  10.388  68.375  1.00  0.00     0.092 SA 
HETATM   30  C   UNL     1     -10.426   9.035  66.963  1.00  0.00    -0.246 C  
HETATM   31  O   UNL     1      -9.021  11.624  62.453  1.00  0.00    -0.273 OA 
HETATM   32  OXT UNL     1      -8.004   9.780  63.365  1.00  0.00    -0.132 OA 
HETATM   33  CA  UNL     1      -8.991   8.624  67.482  1.00  0.00    -0.134 C  
BRANCH  33  34
HETATM   34  N   UNL     1      -8.340   9.359  68.619  1.00  0.00    -0.116 N  
HETATM   35  C   UNL     1      -8.216   9.041  69.979  1.00  0.00    -0.127 C  
HETATM   36  H   UNL     1      -7.914  10.248  68.355  1.00  0.00     0.000 HD 
HETATM   37  O   UNL     1      -7.583   9.868  70.635  1.00  0.00    -0.288 OA 
BRANCH  35  38
HETATM   38  C   UNL     1      -8.773   7.745  70.718  1.00  0.00    -0.134 C  
HETATM   39  C   UNL     1     -10.147   7.645  71.153  1.00  0.00    -0.184 C  
HETATM   40  C   UNL     1     -12.981   6.997  72.264  1.00  0.00     0.112 C  
HETATM   41  N   UNL     1     -10.976   8.899  70.500  1.00  0.00    -0.235 NA 
HETATM   42  N   UNL     1     -14.166   6.333  72.419  1.00  0.00    -0.527 NA 
HETATM   43  H   UNL     1     -10.982   5.622  72.564  1.00  0.00     0.000 HD 
HETATM   44  S   UNL     1     -13.280   9.054  71.172  1.00  0.00    -0.032 SA 
HETATM   45  H1  UNL     1     -14.037   5.440  72.894  1.00  0.00     0.000 HD 
HETATM   46  H2  UNL     1     -15.068   6.687  72.101  1.00  0.00     0.000 HD 
HETATM   47  N   UNL     1     -11.314   6.487  72.138  1.00  0.00    -0.268 NA 
BRANCH  38  48
HETATM   48  N   UNL     1      -8.141   6.632  70.858  1.00  0.00    -0.117 NA 
HETATM   49  H   UNL     1      -8.272   5.879  70.182  1.00  0.00     0.000 HD 
BRANCH  48  50
HETATM   50  O   UNL     1      -7.296   6.466  71.913  1.00  0.00    -0.089 OA 
HETATM   51  O   UNL     1      -8.464   3.455  73.369  1.00  0.00    -0.074 OA 
HETATM   52  C   UNL     1      -8.206   4.627  73.125  1.00  0.00    -0.100 C  
HETATM   53  C   UNL     1      -5.804   4.941  72.880  1.00  0.00    -0.017 C  
HETATM   54  C   UNL     1      -7.481   4.034  70.946  1.00  0.00    -0.044 C  
HETATM   55  C   UNL     1      -7.137   5.040  72.128  1.00  0.00    -0.075 C  
HETATM   56  O   UNL     1      -8.846   5.652  73.722  1.00  0.00    -0.124 OA 
ENDBRANCH  48  50
ENDBRANCH  38  48
ENDBRANCH  35  38
ENDBRANCH  33  34
ENDBRANCH  21  22
ENDBRANCH   9  21
TORSDOF 11
ENDMDL
MODEL       77
REMARK 921   NORMALIZED FREE ENERGY PREDICTED BY IDOCK:   -2.64 KCAL/MOL
REMARK 922        TOTAL FREE ENERGY PREDICTED BY IDOCK:   -8.12 KCAL/MOL
REMARK 923 INTER-LIGAND FREE ENERGY PREDICTED BY IDOCK:   -8.51 KCAL/MOL
REMARK 924 INTRA-LIGAND FREE ENERGY PREDICTED BY IDOCK:    0.40 KCAL/MOL
REMARK 927      BINDING AFFINITY PREDICTED BY RF-SCORE:    0.00 PKD
ROOT
HETATM    1  C   UNL     1     -10.778   7.255  66.638  1.00  0.00     0.021 C  
HETATM    2  N   UNL     1      -9.356   7.274  66.913  1.00  0.00    -0.149 NA 
HETATM    3  C   UNL     1      -8.716   6.432  67.807  1.00  0.00    -0.114 A  
HETATM    4  C   UNL     1      -7.629   7.096  68.418  1.00  0.00    -0.118 A  
HETATM    5  N   UNL     1      -9.083   5.162  68.107  1.00  0.00    -0.110 NA 
HETATM    6  C   UNL     1      -7.739   8.420  67.857  1.00  0.00    -0.103 A  
HETATM    7  H2  UNL     1      -9.906   4.793  67.631  1.00  0.00     0.000 HD 
HETATM    8  H1  UNL     1      -8.612   4.542  68.765  1.00  0.00     0.000 HD 
HETATM    9  N   UNL     1      -8.566   8.348  66.704  1.00  0.00    -0.117 NA 
ENDROOT
BRANCH   4  10
HETATM   10  N   UNL     1      -6.872   6.477  69.397  1.00  0.00    -0.063 N  
HETATM   11  H   UNL     1      -5.897   6.282  69.169  1.00  0.00     0.000 HD 
BRANCH  10  12
HETATM   12  C   UNL     1      -7.298   6.104  70.634  1.00  0.00    -0.086 C  
HETATM   13  O   UNL     1      -7.577   4.930  70.845  1.00  0.00    -0.069 OA 
BRANCH  12  14
HETATM   14  N   UNL     1      -7.536   7.129  71.498  1.00  0.00    -0.085 N  
HETATM   15  H   UNL     1      -7.503   8.095  71.174  1.00  0.00     0.000 HD 
BRANCH  14  16
HETATM   16  C   UNL     1      -7.838   6.830  72.888  1.00  0.00    -0.098 C  
BRANCH  16  17
HETATM   17  C   UNL     1      -8.752   7.879  73.532  1.00  0.00    -0.261 C  
HETATM   18  H2  UNL     1      -7.189   9.144  74.001  1.00  0.00     0.000 HD 
HETATM   19  N   UNL     1      -7.998   8.716  74.453  1.00  0.00    -0.412 NA 
HETATM   20  H1  UNL     1      -8.606   9.415  74.881  1.00  0.00     0.000 HD 
ENDBRANCH  16  17
ENDBRANCH  14  16
ENDBRANCH  12  14
ENDBRANCH  10  12
ENDBRANCH   4  10
BRANCH   9  21
HETATM   21  C   UNL     1      -8.810   9.283  65.566  1.00  0.00    -0.187 C  
BRANCH  21  22
HETATM   22  C   UNL     1     -10.177  10.410  65.654  1.00  0.00    -0.308 C  
HETATM   23  CA  UNL     1     -11.118  11.182  67.136  1.00  0.00    -0.287 C  
HETATM   24  C   UNL     1     -11.663  13.660  67.466  1.00  0.00    -0.371 C  
HETATM   25  C   UNL     1     -10.566  10.864  63.873  1.00  0.00    -0.285 C  
HETATM   26  C   UNL     1     -11.070  10.837  69.015  1.00  0.00    -0.253 C  
HETATM   27  N   UNL     1     -12.189  12.422  67.052  1.00  0.00     0.017 N  
HETATM   28  O   UNL     1     -10.776  13.997  68.239  1.00  0.00    -0.241 OA 
HETATM   29  S   UNL     1     -12.123  12.461  63.588  1.00  0.00    -0.582 SA 
HETATM   30  C   UNL     1     -12.736  13.080  65.669  1.00  0.00    -0.132 C  
HETATM   31  O   UNL     1     -10.899   9.626  69.372  1.00  0.00    -0.224 OA 
HETATM   32  OXT UNL     1     -11.440  11.834  69.686  1.00  0.00    -0.276 OA 
HETATM   33  CA  UNL     1     -12.030  14.400  66.174  1.00  0.00    -0.369 C  
BRANCH  33  34
HETATM   34  N   UNL     1     -10.825  14.951  65.467  1.00  0.00    -0.335 N  
HETATM   35  C   UNL     1      -9.703  15.641  65.948  1.00  0.00    -0.353 C  
HETATM   36  H   UNL     1     -10.822  14.795  64.459  1.00  0.00     0.000 HD 
HETATM   37  O   UNL     1      -8.874  15.923  65.083  1.00  0.00     0.611 OA 
BRANCH  35  38
HETATM   38  C   UNL     1      -9.401  16.053  67.456  1.00  0.00    -0.217 C  
HETATM   39  C   UNL     1      -8.437  15.343  68.264  1.00  0.00    -0.159 C  
HETATM   40  C   UNL     1      -6.485  14.117  70.356  1.00  0.00    -0.038 C  
HETATM   41  N   UNL     1      -7.596  14.338  67.279  1.00  0.00    -0.157 NA 
HETATM   42  N   UNL     1      -5.453  14.055  71.250  1.00  0.00    -0.186 NA 
HETATM   43  H   UNL     1      -8.123  15.879  70.793  1.00  0.00     0.000 HD 
HETATM   44  S   UNL     1      -5.999  12.926  68.392  1.00  0.00    -0.083 SA 
HETATM   45  H1  UNL     1      -5.664  14.573  72.103  1.00  0.00     0.000 HD 
HETATM   46  H2  UNL     1      -4.580  13.554  71.085  1.00  0.00     0.000 HD 
HETATM   47  N   UNL     1      -7.760  15.275  70.056  1.00  0.00     0.020 NA 
BRANCH  38  48
HETATM   48  N   UNL     1      -9.837  17.112  68.046  1.00  0.00    -0.273 NA 
HETATM   49  H   UNL     1      -9.579  17.302  69.014  1.00  0.00     0.000 HD 
BRANCH  48  50
HETATM   50  O   UNL     1     -10.644  17.976  67.370  1.00  0.00    -0.386 OA 
HETATM   51  O   UNL     1      -8.947  21.063  67.735  1.00  0.00    -0.012 OA 
HETATM   52  C   UNL     1      -9.734  20.130  67.827  1.00  0.00    -0.394 C  
HETATM   53  C   UNL     1     -10.644  19.558  65.643  1.00  0.00    -0.434 C  
HETATM   54  C   UNL     1      -8.248  18.732  66.618  1.00  0.00    -0.298 C  
HETATM   55  C   UNL     1      -9.802  19.011  66.802  1.00  0.00    -0.344 C  
HETATM   56  O   UNL     1     -10.610  20.014  68.845  1.00  0.00    -0.218 OA 
ENDBRANCH  48  50
ENDBRANCH  38  48
ENDBRANCH  35  38
ENDBRANCH  33  34
ENDBRANCH  21  22
ENDBRANCH   9  21
TORSDOF 11
ENDMDL
MODEL       78
REMARK 921   NORMALIZED FREE ENERGY PREDICTED BY IDOCK:   -2.61 KCAL/MOL
REMARK 922        TOTAL FREE ENERGY PREDICTED BY IDOCK:   -8.08 KCAL/MOL
REMARK 923 INTER-LIGAND FREE ENERGY PREDICTED BY IDOCK:   -7.78 KCAL/MOL
REMARK 924 INTRA-LIGAND FREE ENERGY PREDICTED BY IDOCK:   -0.29 KCAL/MOL
REMARK 927      BINDING AFFINITY PREDICTED BY RF-SCORE:    0.00 PKD
ROOT
HETATM    1  C   UNL     1      -6.022   5.718  63.886  1.00  0.00    -0.025 C  
HETATM    2  N   UNL     1      -6.756   5.637  65.132  1.00  0.00    -0.046 NA 
HETATM    3  C   UNL     1      -6.901   4.485  65.886  1.00  0.00    -0.058 A  
HETATM    4  C   UNL     1      -8.159   4.472  66.530  1.00  0.00    -0.103 A  
HETATM    5  N   UNL     1      -6.003   3.475  65.979  1.00  0.00    -0.023 NA 
HETATM    6  C   UNL     1      -8.761   5.682  66.025  1.00  0.00    -0.144 A  
HETATM    7  H2  UNL     1      -5.140   3.572  65.444  1.00  0.00     0.000 HD 
HETATM    8  H1  UNL     1      -6.109   2.626  66.533  1.00  0.00     0.000 HD 
HETATM    9  N   UNL     1      -7.732   6.499  65.484  1.00  0.00    -0.091 NA 
ENDROOT
BRANCH   4  10
HETATM   10  N   UNL     1      -8.561   3.391  67.294  1.00  0.00    -0.102 N  
HETATM   11  H   UNL     1      -9.060   2.646  66.809  1.00  0.00     0.000 HD 
BRANCH  10  12
HETATM   12  C   UNL     1      -8.358   3.224  68.629  1.00  0.00    -0.072 C  
HETATM   13  O   UNL     1      -7.696   2.271  69.022  1.00  0.00    -0.043 OA 
BRANCH  12  14
HETATM   14  N   UNL     1      -9.066   4.065  69.432  1.00  0.00    -0.113 N  
HETATM   15  H   UNL     1     -10.050   4.253  69.242  1.00  0.00     0.000 HD 
BRANCH  14  16
HETATM   16  C   UNL     1      -8.404   4.691  70.565  1.00  0.00    -0.090 C  
BRANCH  16  17
HETATM   17  C   UNL     1      -8.785   4.044  71.902  1.00  0.00    -0.104 C  
HETATM   18  H2  UNL     1     -10.521   3.213  71.154  1.00  0.00     0.000 HD 
HETATM   19  N   UNL     1     -10.215   3.776  71.948  1.00  0.00    -0.115 NA 
HETATM   20  H1  UNL     1     -10.469   3.345  72.837  1.00  0.00     0.000 HD 
ENDBRANCH  16  17
ENDBRANCH  14  16
ENDBRANCH  12  14
ENDBRANCH  10  12
ENDBRANCH   4  10
BRANCH   9  21
HETATM   21  C   UNL     1      -7.675   7.940  65.096  1.00  0.00    -0.103 C  
BRANCH  21  22
HETATM   22  C   UNL     1      -8.977   9.025  65.619  1.00  0.00    -0.249 C  
HETATM   23  CA  UNL     1     -10.168   8.981  67.121  1.00  0.00    -0.265 C  
HETATM   24  C   UNL     1     -10.655  10.909  68.732  1.00  0.00    -0.201 C  
HETATM   25  C   UNL     1      -8.968  10.444  64.388  1.00  0.00    -0.247 C  
HETATM   26  C   UNL     1     -10.526   7.650  68.445  1.00  0.00    -0.169 C  
HETATM   27  N   UNL     1     -11.139  10.208  67.612  1.00  0.00    -0.274 N  
HETATM   28  O   UNL     1      -9.932  10.617  69.676  1.00  0.00    -0.177 OA 
HETATM   29  S   UNL     1     -10.357  12.152  64.852  1.00  0.00    -0.297 SA 
HETATM   30  C   UNL     1     -11.358  11.599  66.797  1.00  0.00    -0.286 C  
HETATM   31  O   UNL     1     -10.488   6.435  68.062  1.00  0.00    -0.170 OA 
HETATM   32  OXT UNL     1     -10.980   8.151  69.505  1.00  0.00    -0.176 OA 
HETATM   33  CA  UNL     1     -10.712  12.288  68.063  1.00  0.00    -0.218 C  
BRANCH  33  34
HETATM   34  N   UNL     1      -9.362  12.942  67.982  1.00  0.00    -0.207 N  
HETATM   35  C   UNL     1      -8.956  14.262  68.225  1.00  0.00    -0.187 C  
HETATM   36  H   UNL     1      -8.607  12.315  67.701  1.00  0.00     0.000 HD 
HETATM   37  O   UNL     1      -7.747  14.451  68.093  1.00  0.00    -0.111 OA 
BRANCH  35  38
HETATM   38  C   UNL     1      -9.875  15.485  68.666  1.00  0.00    -0.207 C  
HETATM   39  C   UNL     1     -11.020  15.308  69.529  1.00  0.00    -0.277 C  
HETATM   40  C   UNL     1     -13.554  15.401  71.334  1.00  0.00    -0.518 C  
HETATM   41  N   UNL     1     -10.967  13.785  70.132  1.00  0.00     0.280 NA 
HETATM   42  N   UNL     1     -14.359  15.755  72.380  1.00  0.00    -0.423 NA 
HETATM   43  H   UNL     1     -12.646  17.274  70.052  1.00  0.00     0.000 HD 
HETATM   44  S   UNL     1     -12.841  13.171  71.509  1.00  0.00    -0.236 SA 
HETATM   45  H1  UNL     1     -14.669  16.724  72.304  1.00  0.00     0.000 HD 
HETATM   46  H2  UNL     1     -14.617  15.128  73.142  1.00  0.00     0.000 HD 
HETATM   47  N   UNL     1     -12.492  16.289  70.268  1.00  0.00     0.118 NA 
BRANCH  38  48
HETATM   48  N   UNL     1      -9.622  16.729  68.451  1.00  0.00    -0.233 NA 
HETATM   49  H   UNL     1      -8.701  17.110  68.668  1.00  0.00     0.000 HD 
BRANCH  48  50
HETATM   50  O   UNL     1     -10.591  17.533  67.932  1.00  0.00    -0.378 OA 
HETATM   51  O   UNL     1      -8.905  20.626  67.551  1.00  0.00    -0.297 OA 
HETATM   52  C   UNL     1      -9.626  19.712  67.933  1.00  0.00    -0.356 C  
HETATM   53  C   UNL     1     -11.066  18.947  66.125  1.00  0.00     0.230 C  
HETATM   54  C   UNL     1      -8.486  18.193  66.513  1.00  0.00    -0.283 C  
HETATM   55  C   UNL     1      -9.942  18.503  67.070  1.00  0.00    -0.344 C  
HETATM   56  O   UNL     1     -10.204  19.701  69.151  1.00  0.00    -0.394 OA 
ENDBRANCH  48  50
ENDBRANCH  38  48
ENDBRANCH  35  38
ENDBRANCH  33  34
ENDBRANCH  21  22
ENDBRANCH   9  21
TORSDOF 11
ENDMDL
MODEL       79
REMARK 921   NORMALIZED FREE ENERGY PREDICTED BY IDOCK:   -2.58 KCAL/MOL
REMARK 922        TOTAL FREE ENERGY PREDICTED BY IDOCK:   -8.02 KCAL/MOL
REMARK 923 INTER-LIGAND FREE ENERGY PREDICTED BY IDOCK:   -8.61 KCAL/MOL
REMARK 924 INTRA-LIGAND FREE ENERGY PREDICTED BY IDOCK:    0.58 KCAL/MOL
REMARK 927      BINDING AFFINITY PREDICTED BY RF-SCORE:    0.00 PKD
ROOT
HETATM    1  C   UNL     1      -8.754  15.100  66.340  1.00  0.00    -0.184 C  
HETATM    2  N   UNL     1      -8.641  15.844  67.577  1.00  0.00    -0.164 NA 
HETATM    3  C   UNL     1      -8.888  17.202  67.704  1.00  0.00    -0.218 A  
HETATM    4  C   UNL     1      -8.038  17.768  68.681  1.00  0.00    -0.276 A  
HETATM    5  N   UNL     1      -9.779  17.920  66.979  1.00  0.00    -0.287 NA 
HETATM    6  C   UNL     1      -7.226  16.637  69.057  1.00  0.00    -0.222 A  
HETATM    7  H2  UNL     1     -10.317  17.416  66.275  1.00  0.00     0.000 HD 
HETATM    8  H1  UNL     1      -9.961  18.919  67.072  1.00  0.00     0.000 HD 
HETATM    9  N   UNL     1      -7.880  15.453  68.620  1.00  0.00    -0.134 NA 
ENDROOT
BRANCH   4  10
HETATM   10  N   UNL     1      -8.056  19.126  68.944  1.00  0.00    -0.329 N  
HETATM   11  H   UNL     1      -8.969  19.579  68.963  1.00  0.00     0.000 HD 
BRANCH  10  12
HETATM   12  C   UNL     1      -6.975  19.918  69.179  1.00  0.00    -0.283 C  
HETATM   13  O   UNL     1      -6.445  19.900  70.284  1.00  0.00    -0.335 OA 
BRANCH  12  14
HETATM   14  N   UNL     1      -6.676  20.800  68.186  1.00  0.00    -0.267 N  
HETATM   15  H   UNL     1      -5.969  21.520  68.331  1.00  0.00     0.000 HD 
BRANCH  14  16
HETATM   16  C   UNL     1      -7.377  20.703  66.916  1.00  0.00    -0.282 C  
BRANCH  16  17
HETATM   17  C   UNL     1      -6.573  19.940  65.856  1.00  0.00    -0.231 C  
HETATM   18  H2  UNL     1      -4.798  20.880  66.337  1.00  0.00     0.000 HD 
HETATM   19  N   UNL     1      -5.361  20.670  65.513  1.00  0.00    -0.180 NA 
HETATM   20  H1  UNL     1      -4.826  20.163  64.808  1.00  0.00     0.000 HD 
ENDBRANCH  16  17
ENDBRANCH  14  16
ENDBRANCH  12  14
ENDBRANCH  10  12
ENDBRANCH   4  10
BRANCH   9  21
HETATM   21  C   UNL     1      -7.702  14.009  68.954  1.00  0.00    -0.069 C  
BRANCH  21  22
HETATM   22  C   UNL     1      -8.509  12.787  67.954  1.00  0.00    -0.173 C  
HETATM   23  CA  UNL     1      -7.836  11.337  66.895  1.00  0.00    -0.156 C  
HETATM   24  C   UNL     1      -8.650   8.911  66.948  1.00  0.00    -0.115 C  
HETATM   25  C   UNL     1     -10.349  13.100  68.172  1.00  0.00    -0.247 C  
HETATM   26  C   UNL     1      -6.070  10.839  66.363  1.00  0.00    -0.118 C  
HETATM   27  N   UNL     1      -8.733  10.127  66.245  1.00  0.00    -0.139 N  
HETATM   28  O   UNL     1      -7.801   8.392  67.661  1.00  0.00    -0.104 OA 
HETATM   29  S   UNL     1     -11.718  11.595  67.214  1.00  0.00    -0.061 SA 
HETATM   30  C   UNL     1     -10.359  10.065  66.266  1.00  0.00    -0.165 C  
HETATM   31  O   UNL     1      -5.257  11.789  66.114  1.00  0.00    -0.323 OA 
HETATM   32  OXT UNL     1      -5.984   9.612  66.104  1.00  0.00    -0.060 OA 
HETATM   33  CA  UNL     1     -10.164   8.760  67.135  1.00  0.00    -0.276 C  
BRANCH  33  34
HETATM   34  N   UNL     1     -10.563   8.730  68.583  1.00  0.00    -0.360 N  
HETATM   35  C   UNL     1     -10.541   7.695  69.529  1.00  0.00    -0.227 C  
HETATM   36  H   UNL     1     -10.912   9.619  68.941  1.00  0.00     0.000 HD 
HETATM   37  O   UNL     1     -10.915   8.031  70.653  1.00  0.00    -0.238 OA 
BRANCH  35  38
HETATM   38  C   UNL     1     -10.067   6.192  69.300  1.00  0.00    -0.174 C  
HETATM   39  C   UNL     1     -10.090   5.214  70.363  1.00  0.00    -0.262 C  
HETATM   40  C   UNL     1      -9.955   2.802  72.325  1.00  0.00    -0.169 C  
HETATM   41  N   UNL     1     -10.920   5.855  71.622  1.00  0.00    -0.267 NA 
HETATM   42  N   UNL     1     -10.207   1.557  72.832  1.00  0.00    -0.104 NA 
HETATM   43  H   UNL     1      -9.097   2.829  70.036  1.00  0.00     0.000 HD 
HETATM   44  S   UNL     1     -11.002   4.478  73.592  1.00  0.00    -0.291 SA 
HETATM   45  H1  UNL     1      -9.753   0.829  72.281  1.00  0.00     0.000 HD 
HETATM   46  H2  UNL     1     -10.779   1.380  73.657  1.00  0.00     0.000 HD 
HETATM   47  N   UNL     1      -9.571   3.406  70.730  1.00  0.00    -0.170 NA 
BRANCH  38  48
HETATM   48  N   UNL     1      -9.781   5.662  68.162  1.00  0.00    -0.121 NA 
HETATM   49  H   UNL     1     -10.434   5.737  67.382  1.00  0.00     0.000 HD 
BRANCH  48  50
HETATM   50  O   UNL     1      -8.601   4.999  68.007  1.00  0.00    -0.103 OA 
HETATM   51  O   UNL     1      -9.333   2.726  65.390  1.00  0.00    -0.147 OA 
HETATM   52  C   UNL     1      -9.098   3.242  66.476  1.00  0.00    -0.162 C  
HETATM   53  C   UNL     1      -6.978   4.437  66.414  1.00  0.00    -0.062 C  
HETATM   54  C   UNL     1      -9.357   5.400  65.527  1.00  0.00    -0.055 C  
HETATM   55  C   UNL     1      -8.487   4.626  66.609  1.00  0.00    -0.105 C  
HETATM   56  O   UNL     1      -9.359   2.626  67.646  1.00  0.00    -0.189 OA 
ENDBRANCH  48  50
ENDBRANCH  38  48
ENDBRANCH  35  38
ENDBRANCH  33  34
ENDBRANCH  21  22
ENDBRANCH   9  21
TORSDOF 11
ENDMDL
MODEL       80
REMARK 921   NORMALIZED FREE ENERGY PREDICTED BY IDOCK:   -2.44 KCAL/MOL
REMARK 922        TOTAL FREE ENERGY PREDICTED BY IDOCK:   -7.79 KCAL/MOL
REMARK 923 INTER-LIGAND FREE ENERGY PREDICTED BY IDOCK:   -6.77 KCAL/MOL
REMARK 924 INTRA-LIGAND FREE ENERGY PREDICTED BY IDOCK:   -1.02 KCAL/MOL
REMARK 927      BINDING AFFINITY PREDICTED BY RF-SCORE:    0.00 PKD
ROOT
HETATM    1  C   UNL     1     -10.834   6.007  67.578  1.00  0.00    -0.302 C  
HETATM    2  N   UNL     1     -10.381   7.048  68.478  1.00  0.00    -0.180 NA 
HETATM    3  C   UNL     1     -10.169   6.877  69.836  1.00  0.00    -0.199 A  
HETATM    4  C   UNL     1     -10.478   8.065  70.536  1.00  0.00    -0.214 A  
HETATM    5  N   UNL     1      -9.766   5.734  70.441  1.00  0.00    -0.171 NA 
HETATM    6  C   UNL     1     -10.959   8.916  69.476  1.00  0.00    -0.084 A  
HETATM    7  H2  UNL     1      -9.604   4.925  69.842  1.00  0.00     0.000 HD 
HETATM    8  H1  UNL     1      -9.610   5.607  71.440  1.00  0.00     0.000 HD 
HETATM    9  N   UNL     1     -10.534   8.367  68.236  1.00  0.00    -0.193 NA 
ENDROOT
BRANCH   4  10
HETATM   10  N   UNL     1     -10.403   8.121  71.916  1.00  0.00    -0.217 N  
HETATM   11  H   UNL     1     -11.274   8.295  72.417  1.00  0.00     0.000 HD 
BRANCH  10  12
HETATM   12  C   UNL     1      -9.282   7.969  72.672  1.00  0.00    -0.239 C  
HETATM   13  O   UNL     1      -8.397   8.814  72.613  1.00  0.00    -0.407 OA 
BRANCH  12  14
HETATM   14  N   UNL     1      -9.177   6.774  73.318  1.00  0.00    -0.131 N  
HETATM   15  H   UNL     1      -9.975   6.141  73.365  1.00  0.00     0.000 HD 
BRANCH  14  16
HETATM   16  C   UNL     1      -7.913   6.412  73.938  1.00  0.00    -0.100 C  
BRANCH  16  17
HETATM   17  C   UNL     1      -7.556   4.935  73.728  1.00  0.00    -0.091 C  
HETATM   18  H2  UNL     1      -7.434   5.121  71.675  1.00  0.00     0.000 HD 
HETATM   19  N   UNL     1      -7.878   4.521  72.371  1.00  0.00    -0.088 NA 
HETATM   20  H1  UNL     1      -7.640   3.539  72.230  1.00  0.00     0.000 HD 
ENDBRANCH  16  17
ENDBRANCH  14  16
ENDBRANCH  12  14
ENDBRANCH  10  12
ENDBRANCH   4  10
BRANCH   9  21
HETATM   21  C   UNL     1     -10.463   8.917  66.850  1.00  0.00    -0.234 C  
BRANCH  21  22
HETATM   22  C   UNL     1     -10.772  10.644  66.592  1.00  0.00    -0.246 C  
HETATM   23  CA  UNL     1     -11.449  12.020  67.744  1.00  0.00    -0.325 C  
HETATM   24  C   UNL     1     -10.412  14.328  68.129  1.00  0.00    -0.246 C  
HETATM   25  C   UNL     1     -10.190  11.000  64.841  1.00  0.00    -0.373 C  
HETATM   26  C   UNL     1     -12.239  11.972  69.484  1.00  0.00    -0.117 C  
HETATM   27  N   UNL     1     -11.419  13.630  67.435  1.00  0.00    -0.318 N  
HETATM   28  O   UNL     1      -9.821  14.148  69.186  1.00  0.00    -0.092 OA 
HETATM   29  S   UNL     1     -10.221  13.161  64.219  1.00  0.00    -0.090 SA 
HETATM   30  C   UNL     1     -10.953  14.295  66.026  1.00  0.00    -0.312 C  
HETATM   31  O   UNL     1     -12.982  10.972  69.749  1.00  0.00    -0.075 OA 
HETATM   32  OXT UNL     1     -12.105  13.064  70.091  1.00  0.00    -0.336 OA 
HETATM   33  CA  UNL     1      -9.796  14.957  66.874  1.00  0.00    -0.240 C  
BRANCH  33  34
HETATM   34  N   UNL     1      -8.363  14.552  66.674  1.00  0.00    -0.395 N  
HETATM   35  C   UNL     1      -7.216  14.790  67.445  1.00  0.00    -0.173 C  
HETATM   36  H   UNL     1      -8.194  14.008  65.828  1.00  0.00     0.000 HD 
HETATM   37  O   UNL     1      -6.191  14.277  66.997  1.00  0.00    -0.023 OA 
BRANCH  35  38
HETATM   38  C   UNL     1      -7.127  15.607  68.809  1.00  0.00    -0.127 C  
HETATM   39  C   UNL     1      -6.709  14.987  70.045  1.00  0.00    -0.147 C  
HETATM   40  C   UNL     1      -5.885  14.083  72.907  1.00  0.00     0.260 C  
HETATM   41  N   UNL     1      -6.113  13.503  69.688  1.00  0.00    -0.115 NA 
HETATM   42  N   UNL     1      -5.182  14.051  74.079  1.00  0.00    -0.518 NA 
HETATM   43  H   UNL     1      -6.791  16.273  72.308  1.00  0.00     0.000 HD 
HETATM   44  S   UNL     1      -5.458  12.186  71.592  1.00  0.00     0.417 SA 
HETATM   45  H1  UNL     1      -5.367  14.875  74.651  1.00  0.00     0.000 HD 
HETATM   46  H2  UNL     1      -4.550  13.298  74.348  1.00  0.00     0.000 HD 
HETATM   47  N   UNL     1      -6.528  15.370  71.915  1.00  0.00     1.566 NA 
BRANCH  38  48
HETATM   48  N   UNL     1      -7.252  16.883  68.929  1.00  0.00    -0.221 NA 
HETATM   49  H   UNL     1      -6.433  17.463  69.109  1.00  0.00     0.000 HD 
BRANCH  48  50
HETATM   50  O   UNL     1      -8.484  17.453  68.813  1.00  0.00    -0.276 OA 
HETATM   51  O   UNL     1      -7.727  20.679  67.561  1.00  0.00    -0.324 OA 
HETATM   52  C   UNL     1      -8.042  19.730  68.268  1.00  0.00    -0.287 C  
HETATM   53  C   UNL     1      -9.907  18.513  67.285  1.00  0.00    -0.329 C  
HETATM   54  C   UNL     1      -7.296  18.216  66.602  1.00  0.00    -0.252 C  
HETATM   55  C   UNL     1      -8.437  18.379  67.697  1.00  0.00    -0.255 C  
HETATM   56  O   UNL     1      -8.069  19.802  69.614  1.00  0.00     0.047 OA 
ENDBRANCH  48  50
ENDBRANCH  38  48
ENDBRANCH  35  38
ENDBRANCH  33  34
ENDBRANCH  21  22
ENDBRANCH   9  21
TORSDOF 11
ENDMDL
MODEL       81
REMARK 921   NORMALIZED FREE ENERGY PREDICTED BY IDOCK:   -2.42 KCAL/MOL
REMARK 922        TOTAL FREE ENERGY PREDICTED BY IDOCK:   -7.77 KCAL/MOL
REMARK 923 INTER-LIGAND FREE ENERGY PREDICTED BY IDOCK:   -7.57 KCAL/MOL
REMARK 924 INTRA-LIGAND FREE ENERGY PREDICTED BY IDOCK:   -0.20 KCAL/MOL
REMARK 927      BINDING AFFINITY PREDICTED BY RF-SCORE:    0.00 PKD
ROOT
HETATM    1  C   UNL     1     -10.800   7.079  66.923  1.00  0.00    -0.280 C  
HETATM    2  N   UNL     1      -9.445   7.329  67.370  1.00  0.00    -0.129 NA 
HETATM    3  C   UNL     1      -8.828   6.669  68.420  1.00  0.00    -0.121 A  
HETATM    4  C   UNL     1      -7.934   7.534  69.090  1.00  0.00    -0.121 A  
HETATM    5  N   UNL     1      -9.060   5.389  68.802  1.00  0.00    -0.116 NA 
HETATM    6  C   UNL     1      -8.141   8.775  68.385  1.00  0.00    -0.117 A  
HETATM    7  H2  UNL     1      -9.752   4.865  68.268  1.00  0.00     0.000 HD 
HETATM    8  H1  UNL     1      -8.607   4.903  69.575  1.00  0.00     0.000 HD 
HETATM    9  N   UNL     1      -8.784   8.485  67.151  1.00  0.00    -0.128 NA 
ENDROOT
BRANCH   4  10
HETATM   10  N   UNL     1      -7.244   7.118  70.215  1.00  0.00    -0.070 N  
HETATM   11  H   UNL     1      -7.329   7.701  71.048  1.00  0.00     0.000 HD 
BRANCH  10  12
HETATM   12  C   UNL     1      -6.462   6.010  70.320  1.00  0.00    -0.039 C  
HETATM   13  O   UNL     1      -5.995   5.504  69.306  1.00  0.00    -0.021 OA 
BRANCH  12  14
HETATM   14  N   UNL     1      -6.404   5.457  71.563  1.00  0.00    -0.034 N  
HETATM   15  H   UNL     1      -5.550   5.520  72.116  1.00  0.00     0.000 HD 
BRANCH  14  16
HETATM   16  C   UNL     1      -7.574   4.776  72.092  1.00  0.00    -0.084 C  
BRANCH  16  17
HETATM   17  C   UNL     1      -7.516   3.258  71.885  1.00  0.00    -0.052 C  
HETATM   18  H2  UNL     1      -7.165   3.416  69.856  1.00  0.00     0.000 HD 
HETATM   19  N   UNL     1      -7.788   2.922  70.495  1.00  0.00    -0.043 NA 
HETATM   20  H1  UNL     1      -7.749   1.912  70.357  1.00  0.00     0.000 HD 
ENDBRANCH  16  17
ENDBRANCH  14  16
ENDBRANCH  12  14
ENDBRANCH  10  12
ENDBRANCH   4  10
BRANCH   9  21
HETATM   21  C   UNL     1      -8.991   9.274  65.901  1.00  0.00    -0.184 C  
BRANCH  21  22
HETATM   22  C   UNL     1     -10.253  10.520  65.867  1.00  0.00    -0.311 C  
HETATM   23  CA  UNL     1     -11.194  11.441  67.262  1.00  0.00    -0.304 C  
HETATM   24  C   UNL     1     -11.529  13.970  67.457  1.00  0.00    -0.343 C  
HETATM   25  C   UNL     1     -10.508  10.923  64.050  1.00  0.00    -0.379 C  
HETATM   26  C   UNL     1     -11.273  11.182  69.154  1.00  0.00    -0.264 C  
HETATM   27  N   UNL     1     -12.142  12.765  67.067  1.00  0.00    -0.281 N  
HETATM   28  O   UNL     1     -10.655  14.263  68.262  1.00  0.00    -0.235 OA 
HETATM   29  S   UNL     1     -11.898  12.637  63.613  1.00  0.00    -0.560 SA 
HETATM   30  C   UNL     1     -12.557  13.404  65.630  1.00  0.00    -0.438 C  
HETATM   31  O   UNL     1     -11.230   9.978  69.570  1.00  0.00    -0.234 OA 
HETATM   32  OXT UNL     1     -11.585  12.237  69.760  1.00  0.00    -0.288 OA 
HETATM   33  CA  UNL     1     -11.761  14.678  66.117  1.00  0.00    -0.313 C  
BRANCH  33  34
HETATM   34  N   UNL     1     -10.476  15.087  65.454  1.00  0.00    -0.352 N  
HETATM   35  C   UNL     1      -9.327  15.707  65.965  1.00  0.00    -0.349 C  
HETATM   36  H   UNL     1     -10.432  14.877  64.457  1.00  0.00     0.000 HD 
HETATM   37  O   UNL     1      -8.431  15.870  65.136  1.00  0.00     1.485 OA 
BRANCH  35  38
HETATM   38  C   UNL     1      -9.072  16.175  67.465  1.00  0.00    -0.203 C  
HETATM   39  C   UNL     1      -8.179  15.459  68.347  1.00  0.00    -0.142 C  
HETATM   40  C   UNL     1      -6.383  14.244  70.580  1.00  0.00    -0.108 C  
HETATM   41  N   UNL     1      -7.346  14.372  67.448  1.00  0.00    -0.182 NA 
HETATM   42  N   UNL     1      -5.395  14.176  71.523  1.00  0.00    -0.175 NA 
HETATM   43  H   UNL     1      -7.952  16.098  70.861  1.00  0.00     0.000 HD 
HETATM   44  S   UNL     1      -5.869  12.941  68.696  1.00  0.00    -0.073 SA 
HETATM   45  H1  UNL     1      -5.618  14.742  72.341  1.00  0.00     0.000 HD 
HETATM   46  H2  UNL     1      -4.542  13.628  71.420  1.00  0.00     0.000 HD 
HETATM   47  N   UNL     1      -7.586  15.444  70.170  1.00  0.00     0.145 NA 
BRANCH  38  48
HETATM   48  N   UNL     1      -9.482  17.279  67.986  1.00  0.00    -0.265 NA 
HETATM   49  H   UNL     1      -9.034  17.647  68.825  1.00  0.00     0.000 HD 
BRANCH  48  50
HETATM   50  O   UNL     1     -10.516  17.952  67.410  1.00  0.00    -0.369 OA 
HETATM   51  O   UNL     1      -9.418  21.317  67.548  1.00  0.00    -0.205 OA 
HETATM   52  C   UNL     1      -9.992  20.253  67.742  1.00  0.00    -0.388 C  
HETATM   53  C   UNL     1     -11.030  19.455  65.689  1.00  0.00    -0.184 C  
HETATM   54  C   UNL     1      -8.419  19.132  66.365  1.00  0.00    -0.325 C  
HETATM   55  C   UNL     1      -9.965  19.114  66.738  1.00  0.00    -0.361 C  
HETATM   56  O   UNL     1     -10.701  20.001  68.860  1.00  0.00    -0.033 OA 
ENDBRANCH  48  50
ENDBRANCH  38  48
ENDBRANCH  35  38
ENDBRANCH  33  34
ENDBRANCH  21  22
ENDBRANCH   9  21
TORSDOF 11
ENDMDL
MODEL       82
REMARK 921   NORMALIZED FREE ENERGY PREDICTED BY IDOCK:   -2.37 KCAL/MOL
REMARK 922        TOTAL FREE ENERGY PREDICTED BY IDOCK:   -7.67 KCAL/MOL
REMARK 923 INTER-LIGAND FREE ENERGY PREDICTED BY IDOCK:   -8.36 KCAL/MOL
REMARK 924 INTRA-LIGAND FREE ENERGY PREDICTED BY IDOCK:    0.69 KCAL/MOL
REMARK 927      BINDING AFFINITY PREDICTED BY RF-SCORE:    0.00 PKD
ROOT
HETATM    1  C   UNL     1     -10.305  11.268  62.709  1.00  0.00     0.063 C  
HETATM    2  N   UNL     1     -10.816  11.822  63.946  1.00  0.00    -0.367 NA 
HETATM    3  C   UNL     1     -11.385  13.079  64.069  1.00  0.00    -0.410 A  
HETATM    4  C   UNL     1     -11.096  13.629  65.338  1.00  0.00    -0.298 A  
HETATM    5  N   UNL     1     -12.086  13.733  63.112  1.00  0.00    -0.970 NA 
HETATM    6  C   UNL     1     -10.248  12.614  65.913  1.00  0.00    -0.274 A  
HETATM    7  H2  UNL     1     -12.206  13.256  62.218  1.00  0.00     0.000 HD 
HETATM    8  H1  UNL     1     -12.505  14.658  63.202  1.00  0.00     0.000 HD 
HETATM    9  N   UNL     1     -10.421  11.415  65.170  1.00  0.00    -0.283 NA 
ENDROOT
BRANCH   4  10
HETATM   10  N   UNL     1     -11.507  14.906  65.675  1.00  0.00    -0.325 N  
HETATM   11  H   UNL     1     -12.344  14.982  66.252  1.00  0.00     0.000 HD 
BRANCH  10  12
HETATM   12  C   UNL     1     -10.904  16.071  65.313  1.00  0.00    -0.362 C  
HETATM   13  O   UNL     1     -11.246  16.628  64.277  1.00  0.00    -1.098 OA 
BRANCH  12  14
HETATM   14  N   UNL     1      -9.834  16.431  66.074  1.00  0.00    -0.326 N  
HETATM   15  H   UNL     1      -8.898  16.456  65.670  1.00  0.00     0.000 HD 
BRANCH  14  16
HETATM   16  C   UNL     1     -10.041  16.778  67.471  1.00  0.00    -0.276 C  
BRANCH  16  17
HETATM   17  C   UNL     1      -9.043  16.083  68.405  1.00  0.00    -0.192 C  
HETATM   18  H2  UNL     1     -10.244  14.423  68.665  1.00  0.00     0.000 HD 
HETATM   19  N   UNL     1      -9.722  15.094  69.229  1.00  0.00    -0.263 NA 
HETATM   20  H1  UNL     1      -9.058  14.631  69.851  1.00  0.00     0.000 HD 
ENDBRANCH  16  17
ENDBRANCH  14  16
ENDBRANCH  12  14
ENDBRANCH  10  12
ENDBRANCH   4  10
BRANCH   9  21
HETATM   21  C   UNL     1     -10.062   9.990  65.437  1.00  0.00    -0.247 C  
BRANCH  21  22
HETATM   22  C   UNL     1      -8.416   9.602  65.970  1.00  0.00    -0.131 C  
HETATM   23  CA  UNL     1      -7.376  10.182  67.473  1.00  0.00    -0.089 C  
HETATM   24  C   UNL     1      -6.089   8.683  69.100  1.00  0.00    -0.043 C  
HETATM   25  C   UNL     1      -7.786   8.319  64.751  1.00  0.00    -0.129 C  
HETATM   26  C   UNL     1      -7.654  11.542  68.787  1.00  0.00    -0.129 C  
HETATM   27  N   UNL     1      -5.962   9.518  67.974  1.00  0.00    -0.047 N  
HETATM   28  O   UNL     1      -6.870   8.629  70.041  1.00  0.00    -0.041 OA 
HETATM   29  S   UNL     1      -5.785   7.411  65.230  1.00  0.00    -0.037 SA 
HETATM   30  C   UNL     1      -5.143   8.365  67.171  1.00  0.00    -0.032 C  
HETATM   31  O   UNL     1      -8.227  12.610  68.394  1.00  0.00    -0.158 OA 
HETATM   32  OXT UNL     1      -7.029  11.303  69.851  1.00  0.00    -0.090 OA 
HETATM   33  CA  UNL     1      -5.421   7.470  68.443  1.00  0.00    -0.026 C  
BRANCH  33  34
HETATM   34  N   UNL     1      -6.338   6.282  68.366  1.00  0.00    -0.045 N  
HETATM   35  C   UNL     1      -7.380   5.860  69.204  1.00  0.00    -0.083 C  
HETATM   36  H   UNL     1      -6.174   5.676  67.562  1.00  0.00     0.000 HD 
HETATM   37  O   UNL     1      -7.956   4.842  68.821  1.00  0.00    -0.079 OA 
BRANCH  35  38
HETATM   38  C   UNL     1      -7.887   6.566  70.538  1.00  0.00    -0.106 C  
HETATM   39  C   UNL     1      -8.925   7.570  70.525  1.00  0.00    -0.152 C  
HETATM   40  C   UNL     1     -11.092   9.760  70.972  1.00  0.00    -0.361 C  
HETATM   41  N   UNL     1      -9.600   7.578  69.031  1.00  0.00    -0.153 NA 
HETATM   42  N   UNL     1     -12.228  10.346  71.456  1.00  0.00    -0.355 NA 
HETATM   43  H   UNL     1      -9.578   8.879  72.679  1.00  0.00     0.000 HD 
HETATM   44  S   UNL     1     -11.283   9.261  68.686  1.00  0.00     0.367 SA 
HETATM   45  H1  UNL     1     -12.145  10.563  72.449  1.00  0.00     0.000 HD 
HETATM   46  H2  UNL     1     -13.056  10.542  70.894  1.00  0.00     0.000 HD 
HETATM   47  N   UNL     1      -9.825   8.795  71.693  1.00  0.00    -0.281 NA 
BRANCH  38  48
HETATM   48  N   UNL     1      -7.564   6.223  71.737  1.00  0.00    -0.094 NA 
HETATM   49  H   UNL     1      -6.726   6.610  72.172  1.00  0.00     0.000 HD 
BRANCH  48  50
HETATM   50  O   UNL     1      -8.346   5.342  72.420  1.00  0.00    -0.117 OA 
HETATM   51  O   UNL     1      -6.182   2.574  72.869  1.00  0.00    -0.008 OA 
HETATM   52  C   UNL     1      -7.066   3.334  72.493  1.00  0.00    -0.043 C  
HETATM   53  C   UNL     1      -8.431   4.056  74.375  1.00  0.00    -0.092 C  
HETATM   54  C   UNL     1      -6.043   5.130  73.656  1.00  0.00    -0.046 C  
HETATM   55  C   UNL     1      -7.480   4.562  73.284  1.00  0.00    -0.082 C  
HETATM   56  O   UNL     1      -7.749   3.146  71.347  1.00  0.00    -0.049 OA 
ENDBRANCH  48  50
ENDBRANCH  38  48
ENDBRANCH  35  38
ENDBRANCH  33  34
ENDBRANCH  21  22
ENDBRANCH   9  21
TORSDOF 11
ENDMDL
MODEL       83
REMARK 921   NORMALIZED FREE ENERGY PREDICTED BY IDOCK:   -2.34 KCAL/MOL
REMARK 922        TOTAL FREE ENERGY PREDICTED BY IDOCK:   -7.63 KCAL/MOL
REMARK 923 INTER-LIGAND FREE ENERGY PREDICTED BY IDOCK:   -5.72 KCAL/MOL
REMARK 924 INTRA-LIGAND FREE ENERGY PREDICTED BY IDOCK:   -1.91 KCAL/MOL
REMARK 927      BINDING AFFINITY PREDICTED BY RF-SCORE:    0.00 PKD
ROOT
HETATM    1  C   UNL     1      -5.823  14.959  71.821  1.00  0.00     0.326 C  
HETATM    2  N   UNL     1      -6.191  14.647  70.455  1.00  0.00    -0.172 NA 
HETATM    3  C   UNL     1      -7.008  15.435  69.661  1.00  0.00    -0.184 A  
HETATM    4  C   UNL     1      -7.771  14.630  68.787  1.00  0.00    -0.137 A  
HETATM    5  N   UNL     1      -7.114  16.785  69.721  1.00  0.00     0.120 NA 
HETATM    6  C   UNL     1      -7.382  13.302  69.193  1.00  0.00     0.115 A  
HETATM    7  H2  UNL     1      -6.540  17.264  70.415  1.00  0.00     0.000 HD 
HETATM    8  H1  UNL     1      -7.715  17.365  69.137  1.00  0.00     0.000 HD 
HETATM    9  N   UNL     1      -6.177  13.400  69.941  1.00  0.00    -0.125 NA 
ENDROOT
BRANCH   4  10
HETATM   10  N   UNL     1      -8.708  15.187  67.935  1.00  0.00    -0.155 N  
HETATM   11  H   UNL     1      -9.678  15.179  68.250  1.00  0.00     0.000 HD 
BRANCH  10  12
HETATM   12  C   UNL     1      -8.464  15.745  66.718  1.00  0.00    -0.269 C  
HETATM   13  O   UNL     1      -7.864  16.811  66.654  1.00  0.00    -0.212 OA 
BRANCH  12  14
HETATM   14  N   UNL     1      -9.072  15.129  65.667  1.00  0.00    -0.331 N  
HETATM   15  H   UNL     1      -8.693  15.224  64.724  1.00  0.00     0.000 HD 
BRANCH  14  16
HETATM   16  C   UNL     1     -10.265  14.333  65.903  1.00  0.00    -0.324 C  
BRANCH  16  17
HETATM   17  C   UNL     1     -10.126  12.895  65.390  1.00  0.00    -0.251 C  
HETATM   18  H2  UNL     1      -8.973  12.296  66.995  1.00  0.00     0.000 HD 
HETATM   19  N   UNL     1      -8.956  12.257  65.975  1.00  0.00    -0.425 NA 
HETATM   20  H1  UNL     1      -8.863  11.300  65.635  1.00  0.00     0.000 HD 
ENDBRANCH  16  17
ENDBRANCH  14  16
ENDBRANCH  12  14
ENDBRANCH  10  12
ENDBRANCH   4  10
BRANCH   9  21
HETATM   21  C   UNL     1      -5.157  12.395  70.365  1.00  0.00    -0.103 C  
BRANCH  21  22
HETATM   22  C   UNL     1      -5.478  10.673  70.086  1.00  0.00    -0.060 C  
HETATM   23  CA  UNL     1      -5.980   9.247  71.266  1.00  0.00    -0.070 C  
HETATM   24  C   UNL     1      -7.898   7.589  70.916  1.00  0.00    -0.094 C  
HETATM   25  C   UNL     1      -5.319  10.430  68.230  1.00  0.00    -0.034 C  
HETATM   26  C   UNL     1      -6.087   9.125  73.170  1.00  0.00     0.148 C  
HETATM   27  N   UNL     1      -6.505   7.762  70.807  1.00  0.00    -0.038 N  
HETATM   28  O   UNL     1      -8.768   8.080  71.623  1.00  0.00    -0.116 OA 
HETATM   29  S   UNL     1      -5.874   8.391  67.459  1.00  0.00    -0.044 SA 
HETATM   30  C   UNL     1      -6.525   7.220  69.274  1.00  0.00    -0.036 C  
HETATM   31  O   UNL     1      -5.209   9.764  73.836  1.00  0.00    -0.233 OA 
HETATM   32  OXT UNL     1      -6.894   8.235  73.540  1.00  0.00    -0.120 OA 
HETATM   33  CA  UNL     1      -8.092   7.152  69.460  1.00  0.00    -0.130 C  
BRANCH  33  34
HETATM   34  N   UNL     1      -9.001   8.076  68.700  1.00  0.00    -0.134 N  
HETATM   35  C   UNL     1      -9.299   8.167  67.333  1.00  0.00    -0.141 C  
HETATM   36  H   UNL     1      -9.487   8.760  69.282  1.00  0.00     0.000 HD 
HETATM   37  O   UNL     1     -10.125   9.035  67.053  1.00  0.00    -0.206 OA 
BRANCH  35  38
HETATM   38  C   UNL     1      -8.711   7.266  66.159  1.00  0.00    -0.155 C  
HETATM   39  C   UNL     1      -8.612   5.830  66.275  1.00  0.00    -0.130 C  
HETATM   40  C   UNL     1      -8.202   2.750  66.084  1.00  0.00    -0.086 C  
HETATM   41  N   UNL     1      -9.445   5.372  67.610  1.00  0.00    -0.118 NA 
HETATM   42  N   UNL     1      -8.330   1.476  65.604  1.00  0.00    -0.083 NA 
HETATM   43  H   UNL     1      -7.436   4.396  64.446  1.00  0.00     0.000 HD 
HETATM   44  S   UNL     1      -9.337   3.024  68.121  1.00  0.00    -0.171 SA 
HETATM   45  H1  UNL     1      -7.837   1.357  64.719  1.00  0.00     0.000 HD 
HETATM   46  H2  UNL     1      -8.854   0.737  66.073  1.00  0.00     0.000 HD 
HETATM   47  N   UNL     1      -7.930   4.305  65.334  1.00  0.00    -0.096 NA 
BRANCH  38  48
HETATM   48  N   UNL     1      -8.424   7.675  64.972  1.00  0.00    -0.331 NA 
HETATM   49  H   UNL     1      -7.820   7.115  64.369  1.00  0.00     0.000 HD 
BRANCH  48  50
HETATM   50  O   UNL     1      -8.931   8.858  64.526  1.00  0.00    -0.113 OA 
HETATM   51  O   UNL     1      -6.202  10.243  62.742  1.00  0.00    -0.126 OA 
HETATM   52  C   UNL     1      -7.062   9.991  63.576  1.00  0.00    -0.130 C  
HETATM   53  C   UNL     1      -9.281  10.118  62.584  1.00  0.00    -0.321 C  
HETATM   54  C   UNL     1      -7.608   7.984  62.436  1.00  0.00    -0.113 C  
HETATM   55  C   UNL     1      -8.293   9.160  63.258  1.00  0.00    -0.193 C  
HETATM   56  O   UNL     1      -6.993  10.431  64.848  1.00  0.00    -0.122 OA 
ENDBRANCH  48  50
ENDBRANCH  38  48
ENDBRANCH  35  38
ENDBRANCH  33  34
ENDBRANCH  21  22
ENDBRANCH   9  21
TORSDOF 11
ENDMDL
MODEL       84
REMARK 921   NORMALIZED FREE ENERGY PREDICTED BY IDOCK:   -2.32 KCAL/MOL
REMARK 922        TOTAL FREE ENERGY PREDICTED BY IDOCK:   -7.60 KCAL/MOL
REMARK 923 INTER-LIGAND FREE ENERGY PREDICTED BY IDOCK:   -6.20 KCAL/MOL
REMARK 924 INTRA-LIGAND FREE ENERGY PREDICTED BY IDOCK:   -1.40 KCAL/MOL
REMARK 927      BINDING AFFINITY PREDICTED BY RF-SCORE:    0.00 PKD
ROOT
HETATM    1  C   UNL     1     -11.033   6.367  69.824  1.00  0.00    -0.356 C  
HETATM    2  N   UNL     1     -10.367   5.695  68.727  1.00  0.00    -0.207 NA 
HETATM    3  C   UNL     1      -9.669   4.504  68.842  1.00  0.00    -0.154 A  
HETATM    4  C   UNL     1      -8.580   4.482  67.942  1.00  0.00    -0.102 A  
HETATM    5  N   UNL     1      -9.941   3.502  69.713  1.00  0.00     0.144 NA 
HETATM    6  C   UNL     1      -8.661   5.794  67.348  1.00  0.00    -0.107 A  
HETATM    7  H2  UNL     1     -10.732   3.638  70.343  1.00  0.00     0.000 HD 
HETATM    8  H1  UNL     1      -9.428   2.626  69.798  1.00  0.00     0.000 HD 
HETATM    9  N   UNL     1      -9.957   6.318  67.603  1.00  0.00    -0.123 NA 
ENDROOT
BRANCH   4  10
HETATM   10  N   UNL     1      -7.696   3.418  67.915  1.00  0.00    -0.068 N  
HETATM   11  H   UNL     1      -7.612   2.913  67.032  1.00  0.00     0.000 HD 
BRANCH  10  12
HETATM   12  C   UNL     1      -6.928   2.978  68.948  1.00  0.00    -0.048 C  
HETATM   13  O   UNL     1      -7.066   1.831  69.355  1.00  0.00    -0.036 OA 
BRANCH  12  14
HETATM   14  N   UNL     1      -6.171   3.934  69.555  1.00  0.00    -0.027 N  
HETATM   15  H   UNL     1      -5.551   4.527  69.004  1.00  0.00     0.000 HD 
BRANCH  14  16
HETATM   16  C   UNL     1      -6.258   4.098  70.996  1.00  0.00    -0.015 C  
BRANCH  16  17
HETATM   17  C   UNL     1      -7.063   5.339  71.400  1.00  0.00    -0.066 C  
HETATM   18  H2  UNL     1      -7.012   6.151  69.503  1.00  0.00     0.000 HD 
HETATM   19  N   UNL     1      -6.823   6.429  70.466  1.00  0.00    -0.060 NA 
HETATM   20  H1  UNL     1      -7.359   7.254  70.734  1.00  0.00     0.000 HD 
ENDBRANCH  16  17
ENDBRANCH  14  16
ENDBRANCH  12  14
ENDBRANCH  10  12
ENDBRANCH   4  10
BRANCH   9  21
HETATM   21  C   UNL     1     -10.726   7.459  67.022  1.00  0.00    -0.319 C  
BRANCH  21  22
HETATM   22  C   UNL     1      -9.971   9.062  66.957  1.00  0.00    -0.295 C  
HETATM   23  CA  UNL     1      -9.239  10.086  65.511  1.00  0.00    -0.198 C  
HETATM   24  C   UNL     1      -9.756  12.532  64.964  1.00  0.00     0.007 C  
HETATM   25  C   UNL     1     -10.081   9.737  68.707  1.00  0.00    -0.187 C  
HETATM   26  C   UNL     1      -8.856   9.654  63.689  1.00  0.00    -0.232 C  
HETATM   27  N   UNL     1      -8.822  11.671  65.571  1.00  0.00     0.021 N  
HETATM   28  O   UNL     1     -10.576  12.405  64.065  1.00  0.00    -0.349 OA 
HETATM   29  S   UNL     1      -9.412  11.867  68.980  1.00  0.00     0.372 SA 
HETATM   30  C   UNL     1      -8.818  12.577  66.923  1.00  0.00    -0.203 C  
HETATM   31  O   UNL     1      -8.441   8.472  63.455  1.00  0.00    -0.144 OA 
HETATM   32  OXT UNL     1      -8.849  10.674  62.955  1.00  0.00    -0.196 OA 
HETATM   33  CA  UNL     1      -9.935  13.427  66.196  1.00  0.00    -0.294 C  
BRANCH  33  34
HETATM   34  N   UNL     1     -11.350  13.434  66.699  1.00  0.00    -0.313 N  
HETATM   35  C   UNL     1     -11.944  14.091  67.786  1.00  0.00    -0.357 C  
HETATM   36  H   UNL     1     -11.993  12.858  66.154  1.00  0.00     0.000 HD 
HETATM   37  O   UNL     1     -13.155  13.898  67.892  1.00  0.00     1.393 OA 
BRANCH  35  38
HETATM   38  C   UNL     1     -11.230  15.051  68.836  1.00  0.00    -0.277 C  
HETATM   39  C   UNL     1     -10.230  16.013  68.435  1.00  0.00    -0.236 C  
HETATM   40  C   UNL     1      -8.045  18.194  68.041  1.00  0.00    -0.258 C  
HETATM   41  N   UNL     1     -10.236  16.095  66.799  1.00  0.00    -0.274 NA 
HETATM   42  N   UNL     1      -7.459  19.429  68.071  1.00  0.00    -0.272 NA 
HETATM   43  H   UNL     1      -8.906  17.409  70.190  1.00  0.00     0.000 HD 
HETATM   44  S   UNL     1      -8.562  17.536  65.847  1.00  0.00     0.233 SA 
HETATM   45  H1  UNL     1      -7.234  19.715  69.024  1.00  0.00     0.000 HD 
HETATM   46  H2  UNL     1      -7.270  19.994  67.243  1.00  0.00     0.000 HD 
HETATM   47  N   UNL     1      -8.999  17.278  69.183  1.00  0.00    -0.066 NA 
BRANCH  38  48
HETATM   48  N   UNL     1     -11.562  15.188  70.073  1.00  0.00    -0.272 NA 
HETATM   49  H   UNL     1     -11.704  16.118  70.466  1.00  0.00     0.000 HD 
BRANCH  48  50
HETATM   50  O   UNL     1     -11.721  14.083  70.854  1.00  0.00    -0.239 OA 
HETATM   51  O   UNL     1     -13.566  15.341  73.603  1.00  0.00    -0.232 OA 
HETATM   52  C   UNL     1     -12.686  14.908  72.870  1.00  0.00    -0.435 C  
HETATM   53  C   UNL     1     -13.347  12.770  71.911  1.00  0.00    -0.510 C  
HETATM   54  C   UNL     1     -14.085  15.212  70.980  1.00  0.00    -0.348 C  
HETATM   55  C   UNL     1     -12.986  14.216  71.552  1.00  0.00    -0.344 C  
HETATM   56  O   UNL     1     -11.376  15.004  73.170  1.00  0.00    -0.151 OA 
ENDBRANCH  48  50
ENDBRANCH  38  48
ENDBRANCH  35  38
ENDBRANCH  33  34
ENDBRANCH  21  22
ENDBRANCH   9  21
TORSDOF 11
ENDMDL
MODEL       85
REMARK 921   NORMALIZED FREE ENERGY PREDICTED BY IDOCK:   -2.31 KCAL/MOL
REMARK 922        TOTAL FREE ENERGY PREDICTED BY IDOCK:   -7.59 KCAL/MOL
REMARK 923 INTER-LIGAND FREE ENERGY PREDICTED BY IDOCK:   -8.16 KCAL/MOL
REMARK 924 INTRA-LIGAND FREE ENERGY PREDICTED BY IDOCK:    0.57 KCAL/MOL
REMARK 927      BINDING AFFINITY PREDICTED BY RF-SCORE:    0.00 PKD
ROOT
HETATM    1  C   UNL     1     -12.827   8.421  71.837  1.00  0.00    -0.353 C  
HETATM    2  N   UNL     1     -11.919   7.376  71.411  1.00  0.00    -0.296 NA 
HETATM    3  C   UNL     1     -11.791   6.144  72.032  1.00  0.00    -0.280 A  
HETATM    4  C   UNL     1     -10.457   5.686  71.946  1.00  0.00    -0.225 A  
HETATM    5  N   UNL     1     -12.775   5.471  72.676  1.00  0.00    -0.195 NA 
HETATM    6  C   UNL     1      -9.806   6.791  71.287  1.00  0.00    -0.176 A  
HETATM    7  H2  UNL     1     -13.694   5.911  72.707  1.00  0.00     0.000 HD 
HETATM    8  H1  UNL     1     -12.681   4.565  73.133  1.00  0.00     0.000 HD 
HETATM    9  N   UNL     1     -10.806   7.600  70.682  1.00  0.00    -0.233 NA 
ENDROOT
BRANCH   4  10
HETATM   10  N   UNL     1     -10.067   4.502  72.548  1.00  0.00    -0.170 N  
HETATM   11  H   UNL     1     -10.015   4.500  73.566  1.00  0.00     0.000 HD 
BRANCH  10  12
HETATM   12  C   UNL     1      -9.747   3.341  71.915  1.00  0.00    -0.163 C  
HETATM   13  O   UNL     1     -10.642   2.605  71.518  1.00  0.00     0.461 OA 
BRANCH  12  14
HETATM   14  N   UNL     1      -8.424   3.020  71.930  1.00  0.00    -0.068 N  
HETATM   15  H   UNL     1      -7.740   3.627  71.479  1.00  0.00     0.000 HD 
BRANCH  14  16
HETATM   16  C   UNL     1      -7.996   1.801  72.598  1.00  0.00    -0.052 C  
BRANCH  16  17
HETATM   17  C   UNL     1      -8.279   1.824  74.105  1.00  0.00    -0.050 C  
HETATM   18  H2  UNL     1      -9.216   3.663  74.033  1.00  0.00     0.000 HD 
HETATM   19  N   UNL     1      -8.484   3.190  74.564  1.00  0.00    -0.075 NA 
HETATM   20  H1  UNL     1      -8.672   3.206  75.566  1.00  0.00     0.000 HD 
ENDBRANCH  16  17
ENDBRANCH  14  16
ENDBRANCH  12  14
ENDBRANCH  10  12
ENDBRANCH   4  10
BRANCH   9  21
HETATM   21  C   UNL     1     -10.757   8.678  69.649  1.00  0.00    -0.200 C  
BRANCH  21  22
HETATM   22  C   UNL     1      -9.188   9.378  69.210  1.00  0.00    -0.159 C  
HETATM   23  CA  UNL     1      -8.463   9.972  67.537  1.00  0.00    -0.118 C  
HETATM   24  C   UNL     1      -7.318  12.216  67.087  1.00  0.00    -0.124 C  
HETATM   25  C   UNL     1      -8.251   9.559  70.829  1.00  0.00    -0.084 C  
HETATM   26  C   UNL     1      -9.077   9.809  65.735  1.00  0.00    -0.177 C  
HETATM   27  N   UNL     1      -7.092  10.851  67.343  1.00  0.00    -0.089 N  
HETATM   28  O   UNL     1      -8.231  12.850  66.576  1.00  0.00     0.114 OA 
HETATM   29  S   UNL     1      -6.275  10.626  70.703  1.00  0.00     0.026 SA 
HETATM   30  C   UNL     1      -6.048  11.215  68.537  1.00  0.00    -0.042 C  
HETATM   31  O   UNL     1      -9.679   8.728  65.429  1.00  0.00     0.001 OA 
HETATM   32  OXT UNL     1      -8.612  10.712  64.995  1.00  0.00    -0.184 OA 
HETATM   33  CA  UNL     1      -6.441  12.716  68.241  1.00  0.00    -0.073 C  
BRANCH  33  34
HETATM   34  N   UNL     1      -7.216  13.524  69.242  1.00  0.00    -0.307 N  
HETATM   35  C   UNL     1      -7.886  14.750  69.124  1.00  0.00    -0.141 C  
HETATM   36  H   UNL     1      -7.263  13.108  70.172  1.00  0.00     0.000 HD 
HETATM   37  O   UNL     1      -8.455  15.116  70.153  1.00  0.00     0.170 OA 
BRANCH  35  38
HETATM   38  C   UNL     1      -8.000  15.663  67.825  1.00  0.00    -0.144 C  
HETATM   39  C   UNL     1      -9.108  15.548  66.905  1.00  0.00    -0.241 C  
HETATM   40  C   UNL     1     -11.272  15.645  64.670  1.00  0.00    -0.369 C  
HETATM   41  N   UNL     1     -10.246  14.596  67.602  1.00  0.00    -0.232 NA 
HETATM   42  N   UNL     1     -12.245  16.164  63.861  1.00  0.00    -1.153 NA 
HETATM   43  H   UNL     1      -9.162  16.881  64.668  1.00  0.00     0.000 HD 
HETATM   44  S   UNL     1     -12.160  14.126  66.224  1.00  0.00    -0.429 SA 
HETATM   45  H1  UNL     1     -11.859  16.824  63.186  1.00  0.00     0.000 HD 
HETATM   46  H2  UNL     1     -13.233  15.921  63.926  1.00  0.00     0.000 HD 
HETATM   47  N   UNL     1      -9.716  16.222  65.216  1.00  0.00    -0.361 NA 
BRANCH  38  48
HETATM   48  N   UNL     1      -7.244  16.667  67.545  1.00  0.00    -0.136 NA 
HETATM   49  H   UNL     1      -6.595  17.030  68.243  1.00  0.00     0.000 HD 
BRANCH  48  50
HETATM   50  O   UNL     1      -7.316  17.242  66.312  1.00  0.00    -0.270 OA 
HETATM   51  O   UNL     1      -7.670  20.681  67.083  1.00  0.00    -0.325 OA 
HETATM   52  C   UNL     1      -7.864  19.520  66.743  1.00  0.00    -0.271 C  
HETATM   53  C   UNL     1      -6.330  18.883  64.963  1.00  0.00    -0.267 C  
HETATM   54  C   UNL     1      -5.750  18.893  67.616  1.00  0.00    -0.184 C  
HETATM   55  C   UNL     1      -6.731  18.566  66.409  1.00  0.00    -0.207 C  
HETATM   56  O   UNL     1      -9.098  18.990  66.635  1.00  0.00    -0.306 OA 
ENDBRANCH  48  50
ENDBRANCH  38  48
ENDBRANCH  35  38
ENDBRANCH  33  34
ENDBRANCH  21  22
ENDBRANCH   9  21
TORSDOF 11
ENDMDL
MODEL       86
REMARK 921   NORMALIZED FREE ENERGY PREDICTED BY IDOCK:   -2.18 KCAL/MOL
REMARK 922        TOTAL FREE ENERGY PREDICTED BY IDOCK:   -7.37 KCAL/MOL
REMARK 923 INTER-LIGAND FREE ENERGY PREDICTED BY IDOCK:   -8.13 KCAL/MOL
REMARK 924 INTRA-LIGAND FREE ENERGY PREDICTED BY IDOCK:    0.76 KCAL/MOL
REMARK 927      BINDING AFFINITY PREDICTED BY RF-SCORE:    0.00 PKD
ROOT
HETATM    1  C   UNL     1      -8.325  17.368  66.095  1.00  0.00    -0.182 C  
HETATM    2  N   UNL     1      -9.371  16.872  66.966  1.00  0.00    -0.230 NA 
HETATM    3  C   UNL     1      -9.814  17.516  68.109  1.00  0.00    -0.306 A  
HETATM    4  C   UNL     1     -10.205  16.573  69.086  1.00  0.00    -0.298 A  
HETATM    5  N   UNL     1      -9.839  18.856  68.310  1.00  0.00    -0.352 NA 
HETATM    6  C   UNL     1      -9.881  15.326  68.438  1.00  0.00    -0.216 A  
HETATM    7  H2  UNL     1      -9.500  19.445  67.549  1.00  0.00     0.000 HD 
HETATM    8  H1  UNL     1     -10.164  19.331  69.151  1.00  0.00     0.000 HD 
HETATM    9  N   UNL     1      -9.726  15.573  67.047  1.00  0.00    -0.221 NA 
ENDROOT
BRANCH   4  10
HETATM   10  N   UNL     1     -10.627  16.976  70.341  1.00  0.00     0.135 N  
HETATM   11  H   UNL     1     -10.378  17.922  70.628  1.00  0.00     0.000 HD 
BRANCH  10  12
HETATM   12  C   UNL     1     -11.341  16.234  71.230  1.00  0.00    -0.213 C  
HETATM   13  O   UNL     1     -11.845  16.781  72.203  1.00  0.00    -0.315 OA 
BRANCH  12  14
HETATM   14  N   UNL     1     -11.288  14.887  71.035  1.00  0.00    -0.494 N  
HETATM   15  H   UNL     1     -10.394  14.425  70.866  1.00  0.00     0.000 HD 
BRANCH  14  16
HETATM   16  C   UNL     1     -12.519  14.116  71.069  1.00  0.00    -0.367 C  
BRANCH  16  17
HETATM   17  C   UNL     1     -13.055  13.925  72.494  1.00  0.00    -0.437 C  
HETATM   18  H2  UNL     1     -14.437  12.501  71.923  1.00  0.00     0.000 HD 
HETATM   19  N   UNL     1     -14.399  13.366  72.462  1.00  0.00    -0.631 NA 
HETATM   20  H1  UNL     1     -14.756  13.239  73.409  1.00  0.00     0.000 HD 
ENDBRANCH  16  17
ENDBRANCH  14  16
ENDBRANCH  12  14
ENDBRANCH  10  12
ENDBRANCH   4  10
BRANCH   9  21
HETATM   21  C   UNL     1      -9.683  14.679  65.853  1.00  0.00    -0.310 C  
BRANCH  21  22
HETATM   22  C   UNL     1     -10.151  12.977  66.034  1.00  0.00    -0.286 C  
HETATM   23  CA  UNL     1      -9.602  11.384  65.118  1.00  0.00    -0.229 C  
HETATM   24  C   UNL     1      -8.841   9.194  66.201  1.00  0.00    -0.158 C  
HETATM   25  C   UNL     1     -11.342  12.939  67.485  1.00  0.00    -0.354 C  
HETATM   26  C   UNL     1      -8.545  11.096  63.552  1.00  0.00     0.178 C  
HETATM   27  N   UNL     1      -9.927   9.847  65.588  1.00  0.00    -0.295 N  
HETATM   28  O   UNL     1      -7.624   9.301  66.121  1.00  0.00    -0.094 OA 
HETATM   29  S   UNL     1     -11.993  10.895  68.164  1.00  0.00     0.371 SA 
HETATM   30  C   UNL     1     -10.907   9.443  66.822  1.00  0.00     0.058 C  
HETATM   31  O   UNL     1      -8.664  11.950  62.614  1.00  0.00    -0.026 OA 
HETATM   32  OXT UNL     1      -8.013   9.957  63.547  1.00  0.00    -0.141 OA 
HETATM   33  CA  UNL     1      -9.608   8.823  67.475  1.00  0.00    -0.152 C  
BRANCH  33  34
HETATM   34  N   UNL     1      -8.999   9.427  68.708  1.00  0.00    -0.131 N  
HETATM   35  C   UNL     1      -8.857   8.929  70.011  1.00  0.00    -0.160 C  
HETATM   36  H   UNL     1      -8.623  10.366  68.574  1.00  0.00     0.000 HD 
HETATM   37  O   UNL     1      -8.270   9.690  70.781  1.00  0.00    -0.273 OA 
BRANCH  35  38
HETATM   38  C   UNL     1      -9.340   7.514  70.557  1.00  0.00    -0.160 C  
HETATM   39  C   UNL     1      -9.252   6.315  69.756  1.00  0.00    -0.146 C  
HETATM   40  C   UNL     1      -9.267   3.510  68.406  1.00  0.00    -0.168 C  
HETATM   41  N   UNL     1      -8.351   6.659  68.431  1.00  0.00    -0.121 NA 
HETATM   42  N   UNL     1      -8.983   2.186  68.219  1.00  0.00    -0.120 NA 
HETATM   43  H   UNL     1     -10.258   4.056  70.573  1.00  0.00     0.000 HD 
HETATM   44  S   UNL     1      -8.150   4.862  66.844  1.00  0.00    -0.107 SA 
HETATM   45  H1  UNL     1      -9.467   1.599  68.898  1.00  0.00     0.000 HD 
HETATM   46  H2  UNL     1      -8.363   1.830  67.492  1.00  0.00     0.000 HD 
HETATM   47  N   UNL     1      -9.745   4.463  69.791  1.00  0.00    -0.210 NA 
BRANCH  38  48
HETATM   48  N   UNL     1      -9.692   7.258  71.769  1.00  0.00    -0.154 NA 
HETATM   49  H   UNL     1     -10.359   7.864  72.248  1.00  0.00     0.000 HD 
BRANCH  48  50
HETATM   50  O   UNL     1      -9.169   6.175  72.408  1.00  0.00    -0.141 OA 
HETATM   51  O   UNL     1      -6.073   7.409  73.609  1.00  0.00    -0.059 OA 
HETATM   52  C   UNL     1      -6.950   6.830  72.980  1.00  0.00    -0.075 C  
HETATM   53  C   UNL     1      -8.310   5.465  74.468  1.00  0.00    -0.105 C  
HETATM   54  C   UNL     1      -8.610   8.133  74.062  1.00  0.00    -0.253 C  
HETATM   55  C   UNL     1      -8.363   6.663  73.512  1.00  0.00    -0.117 C  
HETATM   56  O   UNL     1      -6.739   6.290  71.764  1.00  0.00    -0.060 OA 
ENDBRANCH  48  50
ENDBRANCH  38  48
ENDBRANCH  35  38
ENDBRANCH  33  34
ENDBRANCH  21  22
ENDBRANCH   9  21
TORSDOF 11
ENDMDL
MODEL       87
REMARK 921   NORMALIZED FREE ENERGY PREDICTED BY IDOCK:   -1.95 KCAL/MOL
REMARK 922        TOTAL FREE ENERGY PREDICTED BY IDOCK:   -6.99 KCAL/MOL
REMARK 923 INTER-LIGAND FREE ENERGY PREDICTED BY IDOCK:   -4.73 KCAL/MOL
REMARK 924 INTRA-LIGAND FREE ENERGY PREDICTED BY IDOCK:   -2.26 KCAL/MOL
REMARK 927      BINDING AFFINITY PREDICTED BY RF-SCORE:    0.00 PKD
ROOT
HETATM    1  C   UNL     1      -9.611   5.651  65.490  1.00  0.00     0.188 C  
HETATM    2  N   UNL     1      -8.333   6.259  65.800  1.00  0.00    -0.139 NA 
HETATM    3  C   UNL     1      -7.379   5.702  66.637  1.00  0.00    -0.083 A  
HETATM    4  C   UNL     1      -6.678   6.716  67.327  1.00  0.00    -0.063 A  
HETATM    5  N   UNL     1      -7.157   4.379  66.820  1.00  0.00    -0.066 NA 
HETATM    6  C   UNL     1      -7.357   7.905  66.876  1.00  0.00    -0.090 A  
HETATM    7  H2  UNL     1      -7.745   3.732  66.295  1.00  0.00     0.000 HD 
HETATM    8  H1  UNL     1      -6.455   3.968  67.436  1.00  0.00     0.000 HD 
HETATM    9  N   UNL     1      -8.088   7.582  65.701  1.00  0.00    -0.121 NA 
ENDROOT
BRANCH   4  10
HETATM   10  N   UNL     1      -5.714   6.404  68.269  1.00  0.00    -0.015 N  
HETATM   11  H   UNL     1      -4.775   6.212  67.920  1.00  0.00     0.000 HD 
BRANCH  10  12
HETATM   12  C   UNL     1      -5.893   6.327  69.616  1.00  0.00    -0.018 C  
HETATM   13  O   UNL     1      -6.534   5.394  70.085  1.00  0.00    -0.031 OA 
BRANCH  12  14
HETATM   14  N   UNL     1      -5.471   7.414  70.319  1.00  0.00    -0.023 N  
HETATM   15  H   UNL     1      -4.609   7.373  70.864  1.00  0.00     0.000 HD 
BRANCH  14  16
HETATM   16  C   UNL     1      -6.261   8.633  70.285  1.00  0.00    -0.037 C  
BRANCH  16  17
HETATM   17  C   UNL     1      -7.769   8.360  70.338  1.00  0.00    -0.078 C  
HETATM   18  H2  UNL     1      -8.238  10.310  70.830  1.00  0.00     0.000 HD 
HETATM   19  N   UNL     1      -8.440   9.363  71.151  1.00  0.00    -0.300 NA 
HETATM   20  H1  UNL     1      -9.444   9.181  71.187  1.00  0.00     0.000 HD 
ENDBRANCH  16  17
ENDBRANCH  14  16
ENDBRANCH  12  14
ENDBRANCH  10  12
ENDBRANCH   4  10
BRANCH   9  21
HETATM   21  C   UNL     1      -8.729   8.414  64.639  1.00  0.00     0.064 C  
BRANCH  21  22
HETATM   22  C   UNL     1      -9.791   9.752  65.117  1.00  0.00    -0.294 C  
HETATM   23  CA  UNL     1     -10.564  10.247  66.801  1.00  0.00    -0.185 C  
HETATM   24  C   UNL     1     -10.515  12.571  67.871  1.00  0.00    -0.217 C  
HETATM   25  C   UNL     1     -10.011  10.792  63.568  1.00  0.00    -0.403 C  
HETATM   26  C   UNL     1     -10.653   9.359  68.491  1.00  0.00    -0.197 C  
HETATM   27  N   UNL     1     -11.307  11.671  67.133  1.00  0.00    -0.312 N  
HETATM   28  O   UNL     1      -9.596  12.445  68.669  1.00  0.00    -0.147 OA 
HETATM   29  S   UNL     1     -11.136  12.722  63.836  1.00  0.00    -0.423 SA 
HETATM   30  C   UNL     1     -11.643  12.820  66.032  1.00  0.00    -0.383 C  
HETATM   31  O   UNL     1     -10.784   8.091  68.466  1.00  0.00    -0.142 OA 
HETATM   32  OXT UNL     1     -10.795  10.169  69.441  1.00  0.00    -0.214 OA 
HETATM   33  CA  UNL     1     -10.659  13.726  66.873  1.00  0.00    -0.276 C  
BRANCH  33  34
HETATM   34  N   UNL     1      -9.337  14.162  66.307  1.00  0.00    -0.463 N  
HETATM   35  C   UNL     1      -8.276  14.879  66.879  1.00  0.00    -0.143 C  
HETATM   36  H   UNL     1      -9.185  13.890  65.336  1.00  0.00     0.000 HD 
HETATM   37  O   UNL     1      -7.313  15.038  66.129  1.00  0.00     1.263 OA 
BRANCH  35  38
HETATM   38  C   UNL     1      -8.193  15.458  68.359  1.00  0.00    -0.142 C  
HETATM   39  C   UNL     1      -7.450  14.788  69.401  1.00  0.00    -0.147 C  
HETATM   40  C   UNL     1      -6.003  13.700  71.933  1.00  0.00     0.420 C  
HETATM   41  N   UNL     1      -6.557  13.605  68.703  1.00  0.00    -0.089 NA 
HETATM   42  N   UNL     1      -5.147  13.677  72.998  1.00  0.00    -0.324 NA 
HETATM   43  H   UNL     1      -7.516  15.619  71.868  1.00  0.00     0.000 HD 
HETATM   44  S   UNL     1      -5.310  12.233  70.236  1.00  0.00    -0.136 SA 
HETATM   45  H1  UNL     1      -5.447  14.314  73.736  1.00  0.00     0.000 HD 
HETATM   46  H2  UNL     1      -4.311  13.095  73.049  1.00  0.00     0.000 HD 
HETATM   47  N   UNL     1      -7.094  14.900  71.282  1.00  0.00     1.216 NA 
BRANCH  38  48
HETATM   48  N   UNL     1      -8.619  16.613  68.738  1.00  0.00    -0.256 NA 
HETATM   49  H   UNL     1      -9.602  16.744  68.975  1.00  0.00     0.000 HD 
BRANCH  48  50
HETATM   50  O   UNL     1      -7.749  17.657  68.819  1.00  0.00    -0.267 OA 
HETATM   51  O   UNL     1      -9.220  20.056  66.667  1.00  0.00    -0.351 OA 
HETATM   52  C   UNL     1      -8.503  19.196  67.164  1.00  0.00    -0.280 C  
HETATM   53  C   UNL     1      -7.628  19.945  69.309  1.00  0.00    -0.084 C  
HETATM   54  C   UNL     1     -10.082  18.855  68.900  1.00  0.00    -0.372 C  
HETATM   55  C   UNL     1      -8.512  18.880  68.649  1.00  0.00    -0.346 C  
HETATM   56  O   UNL     1      -7.642  18.458  66.436  1.00  0.00    -0.229 OA 
ENDBRANCH  48  50
ENDBRANCH  38  48
ENDBRANCH  35  38
ENDBRANCH  33  34
ENDBRANCH  21  22
ENDBRANCH   9  21
TORSDOF 11
ENDMDL
MODEL       88
REMARK 921   NORMALIZED FREE ENERGY PREDICTED BY IDOCK:   -1.83 KCAL/MOL
REMARK 922        TOTAL FREE ENERGY PREDICTED BY IDOCK:   -6.79 KCAL/MOL
REMARK 923 INTER-LIGAND FREE ENERGY PREDICTED BY IDOCK:   -6.67 KCAL/MOL
REMARK 924 INTRA-LIGAND FREE ENERGY PREDICTED BY IDOCK:   -0.12 KCAL/MOL
REMARK 927      BINDING AFFINITY PREDICTED BY RF-SCORE:    0.00 PKD
ROOT
HETATM    1  C   UNL     1      -6.327   9.525  66.765  1.00  0.00    -0.066 C  
HETATM    2  N   UNL     1      -6.966   8.588  65.863  1.00  0.00    -0.071 NA 
HETATM    3  C   UNL     1      -6.906   7.210  65.989  1.00  0.00    -0.057 A  
HETATM    4  C   UNL     1      -6.914   6.599  64.715  1.00  0.00    -0.054 A  
HETATM    5  N   UNL     1      -6.808   6.520  67.151  1.00  0.00    -0.064 NA 
HETATM    6  C   UNL     1      -6.909   7.743  63.838  1.00  0.00    -0.062 A  
HETATM    7  H2  UNL     1      -6.775   7.064  68.012  1.00  0.00     0.000 HD 
HETATM    8  H1  UNL     1      -6.763   5.505  67.243  1.00  0.00     0.000 HD 
HETATM    9  N   UNL     1      -7.302   8.883  64.591  1.00  0.00    -0.099 NA 
ENDROOT
BRANCH   4  10
HETATM   10  N   UNL     1      -6.799   5.226  64.579  1.00  0.00    -0.047 N  
HETATM   11  H   UNL     1      -6.129   4.759  65.189  1.00  0.00     0.000 HD 
BRANCH  10  12
HETATM   12  C   UNL     1      -7.492   4.439  63.712  1.00  0.00    -0.055 C  
HETATM   13  O   UNL     1      -6.978   3.409  63.294  1.00  0.00    -0.041 OA 
BRANCH  12  14
HETATM   14  N   UNL     1      -8.658   4.970  63.253  1.00  0.00    -0.176 N  
HETATM   15  H   UNL     1      -8.672   5.900  62.834  1.00  0.00     0.000 HD 
BRANCH  14  16
HETATM   16  C   UNL     1      -9.884   4.197  63.366  1.00  0.00    -0.091 C  
BRANCH  16  17
HETATM   17  C   UNL     1     -10.248   3.879  64.822  1.00  0.00    -0.188 C  
HETATM   18  H2  UNL     1     -11.548   5.475  64.983  1.00  0.00     0.000 HD 
HETATM   19  N   UNL     1     -10.762   5.066  65.489  1.00  0.00    -0.574 NA 
HETATM   20  H1  UNL     1     -11.005   4.855  66.457  1.00  0.00     0.000 HD 
ENDBRANCH  16  17
ENDBRANCH  14  16
ENDBRANCH  12  14
ENDBRANCH  10  12
ENDBRANCH   4  10
BRANCH   9  21
HETATM   21  C   UNL     1      -7.758  10.251  64.203  1.00  0.00    -0.097 C  
BRANCH  21  22
HETATM   22  C   UNL     1      -9.351  10.813  64.743  1.00  0.00    -0.264 C  
HETATM   23  CA  UNL     1     -10.279  10.649  66.413  1.00  0.00    -0.234 C  
HETATM   24  C   UNL     1     -11.409  12.539  67.717  1.00  0.00    -0.296 C  
HETATM   25  C   UNL     1     -10.053  11.787  63.298  1.00  0.00    -0.448 C  
HETATM   26  C   UNL     1      -9.921   9.636  67.994  1.00  0.00    -0.160 C  
HETATM   27  N   UNL     1     -11.638  11.462  66.840  1.00  0.00    -0.130 N  
HETATM   28  O   UNL     1     -10.556  12.790  68.558  1.00  0.00    -0.244 OA 
HETATM   29  S   UNL     1     -11.995  12.852  63.686  1.00  0.00    -0.549 SA 
HETATM   30  C   UNL     1     -12.498  12.417  65.842  1.00  0.00     0.300 C  
HETATM   31  O   UNL     1      -9.398   8.485  67.831  1.00  0.00    -0.135 OA 
HETATM   32  OXT UNL     1     -10.456  10.145  69.010  1.00  0.00    -0.194 OA 
HETATM   33  CA  UNL     1     -12.106  13.581  66.835  1.00  0.00    -0.368 C  
BRANCH  33  34
HETATM   34  N   UNL     1     -11.179  14.682  66.407  1.00  0.00    -0.332 N  
HETATM   35  C   UNL     1     -10.297  15.489  67.140  1.00  0.00    -0.272 C  
HETATM   36  H   UNL     1     -11.193  14.878  65.405  1.00  0.00     0.000 HD 
HETATM   37  O   UNL     1      -9.653  16.285  66.456  1.00  0.00    -0.234 OA 
BRANCH  35  38
HETATM   38  C   UNL     1     -10.041  15.452  68.711  1.00  0.00    -0.213 C  
HETATM   39  C   UNL     1      -8.742  15.148  69.266  1.00  0.00    -0.207 C  
HETATM   40  C   UNL     1      -6.159  14.538  70.892  1.00  0.00    -0.115 C  
HETATM   41  N   UNL     1      -7.653  15.164  68.041  1.00  0.00    -0.112 NA 
HETATM   42  N   UNL     1      -5.130  14.740  71.769  1.00  0.00    -0.161 NA 
HETATM   43  H   UNL     1      -8.393  14.863  71.831  1.00  0.00     0.000 HD 
HETATM   44  S   UNL     1      -5.412  14.555  68.666  1.00  0.00    -0.100 SA 
HETATM   45  H1  UNL     1      -5.454  14.732  72.736  1.00  0.00     0.000 HD 
HETATM   46  H2  UNL     1      -4.159  14.880  71.491  1.00  0.00     0.000 HD 
HETATM   47  N   UNL     1      -7.878  14.845  70.950  1.00  0.00     1.574 NA 
BRANCH  38  48
HETATM   48  N   UNL     1     -10.875  15.831  69.616  1.00  0.00    -0.272 NA 
HETATM   49  H   UNL     1     -10.578  16.473  70.350  1.00  0.00     0.000 HD 
BRANCH  48  50
HETATM   50  O   UNL     1     -12.155  15.367  69.587  1.00  0.00    -0.338 OA 
HETATM   51  O   UNL     1     -12.471  13.777  72.737  1.00  0.00    -0.012 OA 
HETATM   52  C   UNL     1     -12.349  14.019  71.543  1.00  0.00    -0.284 C  
HETATM   53  C   UNL     1     -14.181  15.421  70.762  1.00  0.00     0.165 C  
HETATM   54  C   UNL     1     -11.947  16.306  72.028  1.00  0.00    -0.544 C  
HETATM   55  C   UNL     1     -12.659  15.382  70.948  1.00  0.00    -0.438 C  
HETATM   56  O   UNL     1     -11.932  13.098  70.652  1.00  0.00    -0.308 OA 
ENDBRANCH  48  50
ENDBRANCH  38  48
ENDBRANCH  35  38
ENDBRANCH  33  34
ENDBRANCH  21  22
ENDBRANCH   9  21
TORSDOF 11
ENDMDL
MODEL       89
REMARK 921   NORMALIZED FREE ENERGY PREDICTED BY IDOCK:   -1.73 KCAL/MOL
REMARK 922        TOTAL FREE ENERGY PREDICTED BY IDOCK:   -6.62 KCAL/MOL
REMARK 923 INTER-LIGAND FREE ENERGY PREDICTED BY IDOCK:   -3.72 KCAL/MOL
REMARK 924 INTRA-LIGAND FREE ENERGY PREDICTED BY IDOCK:   -2.90 KCAL/MOL
REMARK 927      BINDING AFFINITY PREDICTED BY RF-SCORE:    0.00 PKD
ROOT
HETATM    1  C   UNL     1      -9.321  18.489  69.092  1.00  0.00    -0.014 C  
HETATM    2  N   UNL     1      -8.835  17.132  68.952  1.00  0.00    -0.232 NA 
HETATM    3  C   UNL     1      -7.497  16.778  68.886  1.00  0.00    -0.240 A  
HETATM    4  C   UNL     1      -7.325  15.655  68.047  1.00  0.00    -0.127 A  
HETATM    5  N   UNL     1      -6.472  17.423  69.494  1.00  0.00    -0.239 NA 
HETATM    6  C   UNL     1      -8.669  15.432  67.572  1.00  0.00    -0.175 A  
HETATM    7  H2  UNL     1      -6.707  18.246  70.050  1.00  0.00     0.000 HD 
HETATM    8  H1  UNL     1      -5.488  17.164  69.446  1.00  0.00     0.000 HD 
HETATM    9  N   UNL     1      -9.565  16.124  68.431  1.00  0.00    -0.205 NA 
ENDROOT
BRANCH   4  10
HETATM   10  N   UNL     1      -6.066  15.150  67.776  1.00  0.00    -0.154 N  
HETATM   11  H   UNL     1      -5.435  15.751  67.245  1.00  0.00     0.000 HD 
BRANCH  10  12
HETATM   12  C   UNL     1      -5.585  13.933  68.147  1.00  0.00    -0.118 C  
HETATM   13  O   UNL     1      -5.133  13.783  69.275  1.00  0.00    -0.081 OA 
BRANCH  12  14
HETATM   14  N   UNL     1      -5.500  13.014  67.145  1.00  0.00     0.143 N  
HETATM   15  H   UNL     1      -5.381  13.315  66.178  1.00  0.00     0.000 HD 
BRANCH  14  16
HETATM   16  C   UNL     1      -5.582  11.600  67.471  1.00  0.00    -0.070 C  
BRANCH  16  17
HETATM   17  C   UNL     1      -6.960  11.002  67.157  1.00  0.00    -0.103 C  
HETATM   18  H2  UNL     1      -7.806  11.701  68.906  1.00  0.00     0.000 HD 
HETATM   19  N   UNL     1      -7.731  10.831  68.380  1.00  0.00    -0.106 NA 
HETATM   20  H1  UNL     1      -8.647  10.434  68.172  1.00  0.00     0.000 HD 
ENDBRANCH  16  17
ENDBRANCH  14  16
ENDBRANCH  12  14
ENDBRANCH  10  12
ENDBRANCH   4  10
BRANCH   9  21
HETATM   21  C   UNL     1     -11.042  16.047  68.636  1.00  0.00    -0.349 C  
BRANCH  21  22
HETATM   22  C   UNL     1     -11.776  14.481  69.031  1.00  0.00    -0.346 C  
HETATM   23  CA  UNL     1     -12.184  12.941  67.963  1.00  0.00     0.031 C  
HETATM   24  C   UNL     1     -11.577  10.514  68.500  1.00  0.00    -0.148 C  
HETATM   25  C   UNL     1     -12.053  14.514  70.889  1.00  0.00    -0.404 C  
HETATM   26  C   UNL     1     -12.160  12.637  66.076  1.00  0.00    -0.364 C  
HETATM   27  N   UNL     1     -12.614  11.465  68.533  1.00  0.00     0.709 N  
HETATM   28  O   UNL     1     -10.580  10.360  67.807  1.00  0.00    -0.212 OA 
HETATM   29  S   UNL     1     -12.779  12.593  71.805  1.00  0.00    -0.053 SA 
HETATM   30  C   UNL     1     -12.917  11.127  70.096  1.00  0.00     0.110 C  
HETATM   31  O   UNL     1     -12.505  13.613  65.333  1.00  0.00    -0.443 OA 
HETATM   32  OXT UNL     1     -12.014  11.420  65.798  1.00  0.00    -0.024 OA 
HETATM   33  CA  UNL     1     -11.676  10.156  69.988  1.00  0.00    -0.223 C  
BRANCH  33  34
HETATM   34  N   UNL     1     -10.403  10.444  70.732  1.00  0.00    -0.113 N  
HETATM   35  C   UNL     1      -9.247   9.674  70.924  1.00  0.00     0.118 C  
HETATM   36  H   UNL     1     -10.375  11.362  71.177  1.00  0.00     0.000 HD 
HETATM   37  O   UNL     1      -8.365  10.238  71.571  1.00  0.00     1.887 OA 
BRANCH  35  38
HETATM   38  C   UNL     1      -8.969   8.204  70.378  1.00  0.00    -0.146 C  
HETATM   39  C   UNL     1      -9.032   7.045  71.238  1.00  0.00    -0.137 C  
HETATM   40  C   UNL     1      -9.041   4.297  72.699  1.00  0.00    -0.110 C  
HETATM   41  N   UNL     1      -9.691   7.510  72.665  1.00  0.00    -0.164 NA 
HETATM   42  N   UNL     1      -9.400   3.010  72.987  1.00  0.00    -0.090 NA 
HETATM   43  H   UNL     1      -8.349   4.681  70.386  1.00  0.00     0.000 HD 
HETATM   44  S   UNL     1      -9.794   5.793  74.345  1.00  0.00    -0.264 SA 
HETATM   45  H1  UNL     1      -9.073   2.360  72.272  1.00  0.00     0.000 HD 
HETATM   46  H2  UNL     1      -9.929   2.734  73.814  1.00  0.00     0.000 HD 
HETATM   47  N   UNL     1      -8.702   5.157  71.216  1.00  0.00    -0.126 NA 
BRANCH  38  48
HETATM   48  N   UNL     1      -8.827   7.878  69.140  1.00  0.00    -0.141 NA 
HETATM   49  H   UNL     1      -9.055   8.547  68.405  1.00  0.00     0.000 HD 
BRANCH  48  50
HETATM   50  O   UNL     1      -8.369   6.636  68.819  1.00  0.00    -0.118 OA 
HETATM   51  O   UNL     1     -10.613   5.621  66.273  1.00  0.00    -0.202 OA 
HETATM   52  C   UNL     1     -10.009   5.759  67.329  1.00  0.00    -0.154 C  
HETATM   53  C   UNL     1      -7.633   5.332  67.019  1.00  0.00    -0.092 C  
HETATM   54  C   UNL     1      -8.899   7.670  66.468  1.00  0.00    -0.167 C  
HETATM   55  C   UNL     1      -8.643   6.417  67.411  1.00  0.00    -0.107 C  
HETATM   56  O   UNL     1     -10.503   5.338  68.510  1.00  0.00    -0.157 OA 
ENDBRANCH  48  50
ENDBRANCH  38  48
ENDBRANCH  35  38
ENDBRANCH  33  34
ENDBRANCH  21  22
ENDBRANCH   9  21
TORSDOF 11
ENDMDL
MODEL       90
REMARK 921   NORMALIZED FREE ENERGY PREDICTED BY IDOCK:   -1.63 KCAL/MOL
REMARK 922        TOTAL FREE ENERGY PREDICTED BY IDOCK:   -6.45 KCAL/MOL
REMARK 923 INTER-LIGAND FREE ENERGY PREDICTED BY IDOCK:   -4.52 KCAL/MOL
REMARK 924 INTRA-LIGAND FREE ENERGY PREDICTED BY IDOCK:   -1.93 KCAL/MOL
REMARK 927      BINDING AFFINITY PREDICTED BY RF-SCORE:    0.00 PKD
ROOT
HETATM    1  C   UNL     1     -12.984  14.915  73.379  1.00  0.00    -0.474 C  
HETATM    2  N   UNL     1     -12.175  14.973  72.179  1.00  0.00    -0.350 NA 
HETATM    3  C   UNL     1     -11.636  16.134  71.649  1.00  0.00    -0.425 A  
HETATM    4  C   UNL     1     -11.587  16.055  70.239  1.00  0.00    -0.324 A  
HETATM    5  N   UNL     1     -11.244  17.223  72.352  1.00  0.00     0.759 NA 
HETATM    6  C   UNL     1     -12.213  14.779  69.993  1.00  0.00    -0.333 A  
HETATM    7  H2  UNL     1     -11.356  17.186  73.365  1.00  0.00     0.000 HD 
HETATM    8  H1  UNL     1     -10.848  18.078  71.962  1.00  0.00     0.000 HD 
HETATM    9  N   UNL     1     -12.208  14.039  71.206  1.00  0.00    -0.347 NA 
ENDROOT
BRANCH   4  10
HETATM   10  N   UNL     1     -11.143  17.121  69.477  1.00  0.00    -0.207 N  
HETATM   11  H   UNL     1     -11.091  18.028  69.942  1.00  0.00     0.000 HD 
BRANCH  10  12
HETATM   12  C   UNL     1     -10.770  17.081  68.170  1.00  0.00    -0.374 C  
HETATM   13  O   UNL     1     -11.593  16.770  67.318  1.00  0.00     0.402 OA 
BRANCH  12  14
HETATM   14  N   UNL     1      -9.436  17.236  67.944  1.00  0.00    -0.261 N  
HETATM   15  H   UNL     1      -9.025  18.168  67.899  1.00  0.00     0.000 HD 
BRANCH  14  16
HETATM   16  C   UNL     1      -8.604  16.056  67.767  1.00  0.00    -0.163 C  
BRANCH  16  17
HETATM   17  C   UNL     1      -8.196  15.837  66.305  1.00  0.00    -0.027 C  
HETATM   18  H2  UNL     1     -10.148  15.746  65.637  1.00  0.00     0.000 HD 
HETATM   19  N   UNL     1      -9.280  15.214  65.561  1.00  0.00    -0.323 NA 
HETATM   20  H1  UNL     1      -9.009  15.068  64.588  1.00  0.00     0.000 HD 
ENDBRANCH  16  17
ENDBRANCH  14  16
ENDBRANCH  12  14
ENDBRANCH  10  12
ENDBRANCH   4  10
BRANCH   9  21
HETATM   21  C   UNL     1     -12.433  12.597  71.520  1.00  0.00    -0.022 C  
BRANCH  21  22
HETATM   22  C   UNL     1     -12.105  11.382  70.270  1.00  0.00    -0.459 C  
HETATM   23  CA  UNL     1     -11.883  11.514  68.370  1.00  0.00    -0.283 C  
HETATM   24  C   UNL     1      -9.975  10.513  66.989  1.00  0.00    -0.201 C  
HETATM   25  C   UNL     1     -11.896   9.759  71.193  1.00  0.00    -0.466 C  
HETATM   26  C   UNL     1     -12.161  12.946  67.135  1.00  0.00    -0.219 C  
HETATM   27  N   UNL     1     -11.313  10.332  67.386  1.00  0.00    -0.071 N  
HETATM   28  O   UNL     1      -9.252  11.490  66.841  1.00  0.00    -0.168 OA 
HETATM   29  S   UNL     1     -11.248   8.001  69.948  1.00  0.00     0.054 SA 
HETATM   30  C   UNL     1     -11.001   8.807  67.856  1.00  0.00     0.125 C  
HETATM   31  O   UNL     1     -13.139  13.728  67.373  1.00  0.00     1.039 OA 
HETATM   32  OXT UNL     1     -11.466  12.813  66.096  1.00  0.00    -0.315 OA 
HETATM   33  CA  UNL     1      -9.504   9.137  67.473  1.00  0.00    -0.139 C  
BRANCH  33  34
HETATM   34  N   UNL     1      -8.440   9.234  68.529  1.00  0.00    -0.122 N  
HETATM   35  C   UNL     1      -7.471   8.314  68.956  1.00  0.00    -0.091 C  
HETATM   36  H   UNL     1      -8.418  10.127  69.023  1.00  0.00     0.000 HD 
HETATM   37  O   UNL     1      -6.725   8.740  69.838  1.00  0.00    -0.043 OA 
BRANCH  35  38
HETATM   38  C   UNL     1      -7.239   6.838  68.407  1.00  0.00    -0.085 C  
HETATM   39  C   UNL     1      -6.828   6.586  67.046  1.00  0.00    -0.066 C  
HETATM   40  C   UNL     1      -5.968   5.574  64.230  1.00  0.00    -0.022 C  
HETATM   41  N   UNL     1      -6.400   8.017  66.374  1.00  0.00    -0.046 NA 
HETATM   42  N   UNL     1      -5.218   4.938  63.281  1.00  0.00    -0.009 NA 
HETATM   43  H   UNL     1      -6.678   4.165  66.098  1.00  0.00     0.000 HD 
HETATM   44  S   UNL     1      -5.793   7.908  64.049  1.00  0.00    -0.053 SA 
HETATM   45  H1  UNL     1      -5.294   3.924  63.360  1.00  0.00     0.000 HD 
HETATM   46  H2  UNL     1      -4.653   5.418  62.581  1.00  0.00     0.000 HD 
HETATM   47  N   UNL     1      -6.525   5.136  65.829  1.00  0.00    -0.039 NA 
BRANCH  38  48
HETATM   48  N   UNL     1      -7.231   5.765  69.120  1.00  0.00    -0.072 NA 
HETATM   49  H   UNL     1      -6.708   5.736  69.995  1.00  0.00     0.000 HD 
BRANCH  48  50
HETATM   50  O   UNL     1      -7.924   4.672  68.698  1.00  0.00    -0.079 OA 
HETATM   51  O   UNL     1      -8.419   2.866  71.705  1.00  0.00    -0.063 OA 
HETATM   52  C   UNL     1      -8.030   3.255  70.611  1.00  0.00    -0.046 C  
HETATM   53  C   UNL     1      -9.897   3.464  69.064  1.00  0.00     0.186 C  
HETATM   54  C   UNL     1      -9.169   5.312  70.916  1.00  0.00    -0.184 C  
HETATM   55  C   UNL     1      -8.802   4.264  69.779  1.00  0.00    -0.085 C  
HETATM   56  O   UNL     1      -6.884   2.820  70.050  1.00  0.00    -0.033 OA 
ENDBRANCH  48  50
ENDBRANCH  38  48
ENDBRANCH  35  38
ENDBRANCH  33  34
ENDBRANCH  21  22
ENDBRANCH   9  21
TORSDOF 11
ENDMDL
MODEL       91
REMARK 921   NORMALIZED FREE ENERGY PREDICTED BY IDOCK:   -1.49 KCAL/MOL
REMARK 922        TOTAL FREE ENERGY PREDICTED BY IDOCK:   -6.24 KCAL/MOL
REMARK 923 INTER-LIGAND FREE ENERGY PREDICTED BY IDOCK:   -7.41 KCAL/MOL
REMARK 924 INTRA-LIGAND FREE ENERGY PREDICTED BY IDOCK:    1.18 KCAL/MOL
REMARK 927      BINDING AFFINITY PREDICTED BY RF-SCORE:    0.00 PKD
ROOT
HETATM    1  C   UNL     1     -12.187  14.893  73.360  1.00  0.00    -0.350 C  
HETATM    2  N   UNL     1     -11.808  14.914  71.962  1.00  0.00    -0.355 NA 
HETATM    3  C   UNL     1     -11.511  16.062  71.245  1.00  0.00    -0.417 A  
HETATM    4  C   UNL     1     -11.913  15.920  69.898  1.00  0.00    -0.269 A  
HETATM    5  N   UNL     1     -10.955  17.192  71.745  1.00  0.00     0.890 NA 
HETATM    6  C   UNL     1     -12.537  14.619  69.912  1.00  0.00    -0.180 A  
HETATM    7  H2  UNL     1     -10.735  17.199  72.741  1.00  0.00     0.000 HD 
HETATM    8  H1  UNL     1     -10.737  18.037  71.218  1.00  0.00     0.000 HD 
HETATM    9  N   UNL     1     -12.116  13.936  71.086  1.00  0.00    -0.309 NA 
ENDROOT
BRANCH   4  10
HETATM   10  N   UNL     1     -11.777  16.961  68.997  1.00  0.00     0.109 N  
HETATM   11  H   UNL     1     -12.589  17.564  68.866  1.00  0.00     0.000 HD 
BRANCH  10  12
HETATM   12  C   UNL     1     -10.668  17.259  68.268  1.00  0.00    -0.349 C  
HETATM   13  O   UNL     1      -9.752  16.448  68.208  1.00  0.00    -0.217 OA 
BRANCH  12  14
HETATM   14  N   UNL     1     -10.612  18.534  67.794  1.00  0.00    -0.406 N  
HETATM   15  H   UNL     1     -11.172  18.810  66.987  1.00  0.00     0.000 HD 
BRANCH  14  16
HETATM   16  C   UNL     1      -9.744  19.498  68.450  1.00  0.00    -0.410 C  
BRANCH  16  17
HETATM   17  C   UNL     1      -8.279  19.360  68.018  1.00  0.00    -0.318 C  
HETATM   18  H2  UNL     1      -8.310  21.094  66.896  1.00  0.00     0.000 HD 
HETATM   19  N   UNL     1      -8.034  20.116  66.799  1.00  0.00    -0.321 NA 
HETATM   20  H1  UNL     1      -7.059  20.026  66.512  1.00  0.00     0.000 HD 
ENDBRANCH  16  17
ENDBRANCH  14  16
ENDBRANCH  12  14
ENDBRANCH  10  12
ENDBRANCH   4  10
BRANCH   9  21
HETATM   21  C   UNL     1     -12.174  12.505  71.506  1.00  0.00     0.426 C  
BRANCH  21  22
HETATM   22  C   UNL     1     -11.787  11.243  70.322  1.00  0.00    -0.446 C  
HETATM   23  CA  UNL     1     -11.043  11.315  68.556  1.00  0.00    -0.235 C  
HETATM   24  C   UNL     1      -9.091   9.918  67.670  1.00  0.00    -0.131 C  
HETATM   25  C   UNL     1     -12.178   9.617  71.178  1.00  0.00    -0.437 C  
HETATM   26  C   UNL     1     -10.673  12.768  67.370  1.00  0.00    -0.230 C  
HETATM   27  N   UNL     1     -10.493  10.033  67.693  1.00  0.00    -0.228 N  
HETATM   28  O   UNL     1      -8.166  10.713  67.770  1.00  0.00    -0.110 OA 
HETATM   29  S   UNL     1     -11.606   7.755  70.054  1.00  0.00     0.243 SA 
HETATM   30  C   UNL     1     -10.646   8.478  68.145  1.00  0.00    -0.124 C  
HETATM   31  O   UNL     1     -11.493  13.744  67.386  1.00  0.00    -0.311 OA 
HETATM   32  OXT UNL     1      -9.771  12.483  66.544  1.00  0.00    -0.234 OA 
HETATM   33  CA  UNL     1      -9.067   8.474  68.186  1.00  0.00    -0.138 C  
BRANCH  33  34
HETATM   34  N   UNL     1      -8.328   8.342  69.487  1.00  0.00    -0.118 N  
HETATM   35  C   UNL     1      -8.137   7.244  70.338  1.00  0.00    -0.116 C  
HETATM   36  H   UNL     1      -7.887   9.204  69.809  1.00  0.00     0.000 HD 
HETATM   37  O   UNL     1      -7.440   7.483  71.323  1.00  0.00    -0.077 OA 
BRANCH  35  38
HETATM   38  C   UNL     1      -8.695   5.766  70.139  1.00  0.00    -0.139 C  
HETATM   39  C   UNL     1      -9.003   5.235  68.831  1.00  0.00    -0.103 C  
HETATM   40  C   UNL     1      -9.805   3.694  66.248  1.00  0.00     0.008 C  
HETATM   41  N   UNL     1      -8.411   6.276  67.712  1.00  0.00    -0.117 NA 
HETATM   42  N   UNL     1      -9.794   2.712  65.297  1.00  0.00    -0.348 NA 
HETATM   43  H   UNL     1     -10.130   2.906  68.540  1.00  0.00     0.000 HD 
HETATM   44  S   UNL     1      -8.902   5.700  65.428  1.00  0.00    -0.056 SA 
HETATM   45  H1  UNL     1     -10.187   1.841  65.653  1.00  0.00     0.000 HD 
HETATM   46  H2  UNL     1      -9.439   2.836  64.349  1.00  0.00     0.000 HD 
HETATM   47  N   UNL     1      -9.767   3.688  67.996  1.00  0.00    -0.107 NA 
BRANCH  38  48
HETATM   48  N   UNL     1      -8.775   4.865  71.055  1.00  0.00    -0.122 NA 
HETATM   49  H   UNL     1      -8.853   3.880  70.801  1.00  0.00     0.000 HD 
BRANCH  48  50
HETATM   50  O   UNL     1      -8.754   5.234  72.366  1.00  0.00    -0.124 OA 
HETATM   51  O   UNL     1     -12.020   4.400  73.454  1.00  0.00    -0.126 OA 
HETATM   52  C   UNL     1     -11.010   4.990  73.093  1.00  0.00    -0.309 C  
HETATM   53  C   UNL     1      -9.130   4.428  74.533  1.00  0.00    -0.111 C  
HETATM   54  C   UNL     1     -10.018   2.937  72.444  1.00  0.00    -0.235 C  
HETATM   55  C   UNL     1      -9.638   4.339  73.089  1.00  0.00    -0.123 C  
HETATM   56  O   UNL     1     -11.027   6.270  72.670  1.00  0.00    -0.230 OA 
ENDBRANCH  48  50
ENDBRANCH  38  48
ENDBRANCH  35  38
ENDBRANCH  33  34
ENDBRANCH  21  22
ENDBRANCH   9  21
TORSDOF 11
ENDMDL
MODEL       92
REMARK 921   NORMALIZED FREE ENERGY PREDICTED BY IDOCK:   -1.39 KCAL/MOL
REMARK 922        TOTAL FREE ENERGY PREDICTED BY IDOCK:   -6.06 KCAL/MOL
REMARK 923 INTER-LIGAND FREE ENERGY PREDICTED BY IDOCK:   -5.59 KCAL/MOL
REMARK 924 INTRA-LIGAND FREE ENERGY PREDICTED BY IDOCK:   -0.47 KCAL/MOL
REMARK 927      BINDING AFFINITY PREDICTED BY RF-SCORE:    0.00 PKD
ROOT
HETATM    1  C   UNL     1     -11.474   6.376  69.497  1.00  0.00    -0.343 C  
HETATM    2  N   UNL     1     -10.367   6.126  68.597  1.00  0.00    -0.184 NA 
HETATM    3  C   UNL     1      -9.473   5.075  68.722  1.00  0.00    -0.139 A  
HETATM    4  C   UNL     1      -8.191   5.463  68.273  1.00  0.00    -0.095 A  
HETATM    5  N   UNL     1      -9.748   3.853  69.237  1.00  0.00    -0.154 NA 
HETATM    6  C   UNL     1      -8.400   6.853  67.947  1.00  0.00    -0.121 A  
HETATM    7  H2  UNL     1     -10.701   3.691  69.563  1.00  0.00     0.000 HD 
HETATM    8  H1  UNL     1      -9.091   3.079  69.330  1.00  0.00     0.000 HD 
HETATM    9  N   UNL     1      -9.798   7.076  67.826  1.00  0.00    -0.134 NA 
ENDROOT
BRANCH   4  10
HETATM   10  N   UNL     1      -7.112   4.601  68.356  1.00  0.00    -0.056 N  
HETATM   11  H   UNL     1      -6.792   4.354  69.293  1.00  0.00     0.000 HD 
BRANCH  10  12
HETATM   12  C   UNL     1      -6.436   4.048  67.313  1.00  0.00    -0.041 C  
HETATM   13  O   UNL     1      -5.437   4.608  66.879  1.00  0.00    -0.012 OA 
BRANCH  12  14
HETATM   14  N   UNL     1      -7.046   2.981  66.728  1.00  0.00    -0.053 N  
HETATM   15  H   UNL     1      -7.185   2.116  67.250  1.00  0.00     0.000 HD 
BRANCH  14  16
HETATM   16  C   UNL     1      -7.497   3.088  65.350  1.00  0.00    -0.073 C  
BRANCH  16  17
HETATM   17  C   UNL     1      -8.802   2.322  65.095  1.00  0.00    -0.121 C  
HETATM   18  H2  UNL     1      -8.190   1.632  63.248  1.00  0.00     0.000 HD 
HETATM   19  N   UNL     1      -8.992   2.100  63.670  1.00  0.00    -0.089 NA 
HETATM   20  H1  UNL     1      -9.860   1.590  63.500  1.00  0.00     0.000 HD 
ENDBRANCH  16  17
ENDBRANCH  14  16
ENDBRANCH  12  14
ENDBRANCH  10  12
ENDBRANCH   4  10
BRANCH   9  21
HETATM   21  C   UNL     1     -10.604   8.187  67.239  1.00  0.00    -0.273 C  
BRANCH  21  22
HETATM   22  C   UNL     1      -9.843   9.771  67.001  1.00  0.00    -0.245 C  
HETATM   23  CA  UNL     1      -9.132  10.640  65.446  1.00  0.00    -0.189 C  
HETATM   24  C   UNL     1      -9.647  13.023  64.667  1.00  0.00     0.331 C  
HETATM   25  C   UNL     1      -9.917  10.618  68.676  1.00  0.00    -0.188 C  
HETATM   26  C   UNL     1      -8.785  10.026  63.670  1.00  0.00    -0.218 C  
HETATM   27  N   UNL     1      -8.707  12.221  65.341  1.00  0.00     0.653 N  
HETATM   28  O   UNL     1     -10.485  12.812  63.800  1.00  0.00    -0.408 OA 
HETATM   29  S   UNL     1      -9.233  12.760  68.723  1.00  0.00     0.283 SA 
HETATM   30  C   UNL     1      -8.674  13.257  66.594  1.00  0.00     0.001 C  
HETATM   31  O   UNL     1      -8.380   8.823  63.548  1.00  0.00    -0.178 OA 
HETATM   32  OXT UNL     1      -8.787  10.967  62.838  1.00  0.00    -0.242 OA 
HETATM   33  CA  UNL     1      -9.799  14.037  65.806  1.00  0.00    -0.256 C  
BRANCH  33  34
HETATM   34  N   UNL     1     -11.205  14.104  66.331  1.00  0.00    -0.321 N  
HETATM   35  C   UNL     1     -11.736  14.694  67.487  1.00  0.00    -0.379 C  
HETATM   36  H   UNL     1     -11.896  13.638  65.743  1.00  0.00     0.000 HD 
HETATM   37  O   UNL     1     -12.957  14.585  67.594  1.00  0.00     0.973 OA 
BRANCH  35  38
HETATM   38  C   UNL     1     -10.938  15.486  68.615  1.00  0.00    -0.279 C  
HETATM   39  C   UNL     1      -9.878  16.413  68.294  1.00  0.00    -0.229 C  
HETATM   40  C   UNL     1      -7.549  18.466  68.078  1.00  0.00    -0.259 C  
HETATM   41  N   UNL     1      -9.904  16.667  66.675  1.00  0.00    -0.261 NA 
HETATM   42  N   UNL     1      -6.876  19.647  68.223  1.00  0.00    -0.279 NA 
HETATM   43  H   UNL     1      -8.430  17.521  70.154  1.00  0.00     0.000 HD 
HETATM   44  S   UNL     1      -8.146  18.081  65.841  1.00  0.00     0.157 SA 
HETATM   45  H1  UNL     1      -6.616  19.815  69.195  1.00  0.00     0.000 HD 
HETATM   46  H2  UNL     1      -6.660  20.282  67.455  1.00  0.00     0.000 HD 
HETATM   47  N   UNL     1      -8.548  17.503  69.141  1.00  0.00    -0.003 NA 
BRANCH  38  48
HETATM   48  N   UNL     1     -11.240  15.514  69.867  1.00  0.00    -0.286 NA 
HETATM   49  H   UNL     1     -11.374  16.407  70.342  1.00  0.00     0.000 HD 
BRANCH  48  50
HETATM   50  O   UNL     1     -11.380  14.346  70.553  1.00  0.00    -0.195 OA 
HETATM   51  O   UNL     1     -13.318  15.322  73.353  1.00  0.00    -0.454 OA 
HETATM   52  C   UNL     1     -12.411  14.976  72.607  1.00  0.00    -0.353 C  
HETATM   53  C   UNL     1     -12.985  12.904  71.464  1.00  0.00    -0.388 C  
HETATM   54  C   UNL     1     -13.781  15.391  70.716  1.00  0.00    -0.186 C  
HETATM   55  C   UNL     1     -12.663  14.385  71.231  1.00  0.00    -0.344 C  
HETATM   56  O   UNL     1     -11.110  15.086  72.943  1.00  0.00     0.039 OA 
ENDBRANCH  48  50
ENDBRANCH  38  48
ENDBRANCH  35  38
ENDBRANCH  33  34
ENDBRANCH  21  22
ENDBRANCH   9  21
TORSDOF 11
ENDMDL
MODEL       93
REMARK 921   NORMALIZED FREE ENERGY PREDICTED BY IDOCK:   -1.36 KCAL/MOL
REMARK 922        TOTAL FREE ENERGY PREDICTED BY IDOCK:   -6.03 KCAL/MOL
REMARK 923 INTER-LIGAND FREE ENERGY PREDICTED BY IDOCK:   -6.35 KCAL/MOL
REMARK 924 INTRA-LIGAND FREE ENERGY PREDICTED BY IDOCK:    0.32 KCAL/MOL
REMARK 927      BINDING AFFINITY PREDICTED BY RF-SCORE:    0.00 PKD
ROOT
HETATM    1  C   UNL     1      -5.160   7.806  70.307  1.00  0.00    -0.023 C  
HETATM    2  N   UNL     1      -6.111   7.849  71.398  1.00  0.00    -0.034 NA 
HETATM    3  C   UNL     1      -6.949   6.804  71.753  1.00  0.00    -0.071 A  
HETATM    4  C   UNL     1      -8.175   7.302  72.247  1.00  0.00    -0.101 A  
HETATM    5  N   UNL     1      -6.677   5.484  71.616  1.00  0.00    -0.055 NA 
HETATM    6  C   UNL     1      -8.005   8.725  72.079  1.00  0.00     0.014 A  
HETATM    7  H2  UNL     1      -5.773   5.236  71.216  1.00  0.00     0.000 HD 
HETATM    8  H1  UNL     1      -7.293   4.715  71.877  1.00  0.00     0.000 HD 
HETATM    9  N   UNL     1      -6.620   8.990  71.905  1.00  0.00    -0.246 NA 
ENDROOT
BRANCH   4  10
HETATM   10  N   UNL     1      -9.201   6.447  72.609  1.00  0.00    -0.139 N  
HETATM   11  H   UNL     1      -9.318   6.267  73.606  1.00  0.00     0.000 HD 
BRANCH  10  12
HETATM   12  C   UNL     1     -10.069   5.823  71.767  1.00  0.00    -0.187 C  
HETATM   13  O   UNL     1     -10.777   4.920  72.194  1.00  0.00    -0.198 OA 
BRANCH  12  14
HETATM   14  N   UNL     1      -9.947   6.163  70.454  1.00  0.00    -0.177 N  
HETATM   15  H   UNL     1      -9.064   6.525  70.094  1.00  0.00     0.000 HD 
BRANCH  14  16
HETATM   16  C   UNL     1     -11.090   6.005  69.570  1.00  0.00    -0.398 C  
BRANCH  16  17
HETATM   17  C   UNL     1     -10.682   5.647  68.136  1.00  0.00    -0.153 C  
HETATM   18  H2  UNL     1     -11.114   7.529  67.404  1.00  0.00     0.000 HD 
HETATM   19  N   UNL     1     -11.312   6.552  67.186  1.00  0.00    -0.771 NA 
HETATM   20  H1  UNL     1     -11.040   6.314  66.232  1.00  0.00     0.000 HD 
ENDBRANCH  16  17
ENDBRANCH  14  16
ENDBRANCH  12  14
ENDBRANCH  10  12
ENDBRANCH   4  10
BRANCH   9  21
HETATM   21  C   UNL     1      -5.806  10.240  71.978  1.00  0.00     0.502 C  
BRANCH  21  22
HETATM   22  C   UNL     1      -5.896  11.405  70.643  1.00  0.00    -0.092 C  
HETATM   23  CA  UNL     1      -6.609  11.280  68.868  1.00  0.00    -0.068 C  
HETATM   24  C   UNL     1      -8.205  12.939  67.750  1.00  0.00    -0.174 C  
HETATM   25  C   UNL     1      -5.182  13.003  71.326  1.00  0.00    -0.182 C  
HETATM   26  C   UNL     1      -7.260   9.806  67.840  1.00  0.00    -0.084 C  
HETATM   27  N   UNL     1      -6.859  12.536  67.843  1.00  0.00    -0.092 N  
HETATM   28  O   UNL     1      -9.279  12.373  67.900  1.00  0.00    -0.178 OA 
HETATM   29  S   UNL     1      -5.326  14.796  69.975  1.00  0.00    -0.104 SA 
HETATM   30  C   UNL     1      -6.387  14.067  68.123  1.00  0.00    -0.128 C  
HETATM   31  O   UNL     1      -6.668   8.689  68.000  1.00  0.00    -0.066 OA 
HETATM   32  OXT UNL     1      -8.068  10.173  66.950  1.00  0.00    -0.119 OA 
HETATM   33  CA  UNL     1      -7.930  14.407  68.097  1.00  0.00    -0.136 C  
BRANCH  33  34
HETATM   34  N   UNL     1      -8.645  14.845  69.344  1.00  0.00    -0.404 N  
HETATM   35  C   UNL     1      -9.974  14.677  69.757  1.00  0.00     0.226 C  
HETATM   36  H   UNL     1      -8.060  15.354  70.007  1.00  0.00     0.000 HD 
HETATM   37  O   UNL     1     -10.220  15.142  70.870  1.00  0.00     0.134 OA 
BRANCH  35  38
HETATM   38  C   UNL     1     -11.143  13.943  68.963  1.00  0.00    -0.268 C  
HETATM   39  C   UNL     1     -11.470  14.285  67.598  1.00  0.00    -0.346 C  
HETATM   40  C   UNL     1     -12.523  14.689  64.697  1.00  0.00    -0.286 C  
HETATM   41  N   UNL     1     -10.287  15.264  67.025  1.00  0.00    -0.272 NA 
HETATM   42  N   UNL     1     -12.849  14.378  63.406  1.00  0.00    -0.422 NA 
HETATM   43  H   UNL     1     -13.530  13.243  66.392  1.00  0.00     0.000 HD 
HETATM   44  S   UNL     1     -10.648  16.098  64.798  1.00  0.00     0.218 SA 
HETATM   45  H1  UNL     1     -13.664  13.766  63.362  1.00  0.00     0.000 HD 
HETATM   46  H2  UNL     1     -12.341  14.715  62.589  1.00  0.00     0.000 HD 
HETATM   47  N   UNL     1     -12.755  13.886  66.232  1.00  0.00    -0.334 NA 
BRANCH  38  48
HETATM   48  N   UNL     1     -11.787  12.904  69.367  1.00  0.00    -0.316 NA 
HETATM   49  H   UNL     1     -12.708  12.691  68.984  1.00  0.00     0.000 HD 
BRANCH  48  50
HETATM   50  O   UNL     1     -11.232  12.091  70.308  1.00  0.00     0.107 OA 
HETATM   51  O   UNL     1     -13.635   9.507  70.612  1.00  0.00    -0.037 OA 
HETATM   52  C   UNL     1     -12.928  10.490  70.795  1.00  0.00    -0.330 C  
HETATM   53  C   UNL     1     -10.573   9.879  70.703  1.00  0.00    -0.341 C  
HETATM   54  C   UNL     1     -12.158  10.375  68.554  1.00  0.00     0.536 C  
HETATM   55  C   UNL     1     -11.647  10.732  70.016  1.00  0.00    -0.334 C  
HETATM   56  O   UNL     1     -13.224  11.441  71.703  1.00  0.00    -0.419 OA 
ENDBRANCH  48  50
ENDBRANCH  38  48
ENDBRANCH  35  38
ENDBRANCH  33  34
ENDBRANCH  21  22
ENDBRANCH   9  21
TORSDOF 11
ENDMDL
MODEL       94
REMARK 921   NORMALIZED FREE ENERGY PREDICTED BY IDOCK:   -1.23 KCAL/MOL
REMARK 922        TOTAL FREE ENERGY PREDICTED BY IDOCK:   -5.81 KCAL/MOL
REMARK 923 INTER-LIGAND FREE ENERGY PREDICTED BY IDOCK:   -4.78 KCAL/MOL
REMARK 924 INTRA-LIGAND FREE ENERGY PREDICTED BY IDOCK:   -1.03 KCAL/MOL
REMARK 927      BINDING AFFINITY PREDICTED BY RF-SCORE:    0.00 PKD
ROOT
HETATM    1  C   UNL     1      -9.312  10.527  69.965  1.00  0.00     0.434 C  
HETATM    2  N   UNL     1     -10.707  10.907  70.057  1.00  0.00    -0.098 NA 
HETATM    3  C   UNL     1     -11.624  10.327  70.918  1.00  0.00    -0.365 A  
HETATM    4  C   UNL     1     -12.908  10.304  70.328  1.00  0.00    -0.064 A  
HETATM    5  N   UNL     1     -11.353   9.809  72.140  1.00  0.00     0.446 NA 
HETATM    6  C   UNL     1     -12.641  10.851  69.020  1.00  0.00     0.586 A  
HETATM    7  H2  UNL     1     -10.384   9.848  72.455  1.00  0.00     0.000 HD 
HETATM    8  H1  UNL     1     -12.028   9.382  72.774  1.00  0.00     0.000 HD 
HETATM    9  N   UNL     1     -11.386  11.516  69.063  1.00  0.00    -0.249 NA 
ENDROOT
BRANCH   4  10
HETATM   10  N   UNL     1     -13.982   9.716  70.973  1.00  0.00    -0.330 N  
HETATM   11  H   UNL     1     -14.846  10.256  71.011  1.00  0.00     0.000 HD 
BRANCH  10  12
HETATM   12  C   UNL     1     -13.999   8.490  71.561  1.00  0.00    -0.351 C  
HETATM   13  O   UNL     1     -14.382   8.384  72.720  1.00  0.00    -0.372 OA 
BRANCH  12  14
HETATM   14  N   UNL     1     -13.418   7.492  70.838  1.00  0.00    -0.591 N  
HETATM   15  H   UNL     1     -13.908   7.078  70.045  1.00  0.00     0.000 HD 
BRANCH  14  16
HETATM   16  C   UNL     1     -12.093   7.025  71.210  1.00  0.00    -0.361 C  
BRANCH  16  17
HETATM   17  C   UNL     1     -11.413   6.229  70.089  1.00  0.00    -0.382 C  
HETATM   18  H2  UNL     1      -9.845   7.561  69.915  1.00  0.00     0.000 HD 
HETATM   19  N   UNL     1     -10.525   7.088  69.320  1.00  0.00    -0.204 NA 
HETATM   20  H1  UNL     1     -10.073   6.559  68.574  1.00  0.00     0.000 HD 
ENDBRANCH  16  17
ENDBRANCH  14  16
ENDBRANCH  12  14
ENDBRANCH  10  12
ENDBRANCH   4  10
BRANCH   9  21
HETATM   21  C   UNL     1     -10.720  12.494  68.152  1.00  0.00    -0.227 C  
BRANCH  21  22
HETATM   22  C   UNL     1      -9.637  11.890  66.884  1.00  0.00    -0.208 C  
HETATM   23  CA  UNL     1      -7.753  11.534  66.859  1.00  0.00    -0.157 C  
HETATM   24  C   UNL     1      -6.622   9.393  66.031  1.00  0.00    -0.073 C  
HETATM   25  C   UNL     1     -10.746  11.524  65.413  1.00  0.00    -0.335 C  
HETATM   26  C   UNL     1      -6.351  11.915  68.101  1.00  0.00    -0.052 C  
HETATM   27  N   UNL     1      -6.946  10.718  65.687  1.00  0.00    -0.075 N  
HETATM   28  O   UNL     1      -6.415   8.810  67.088  1.00  0.00    -0.059 OA 
HETATM   29  S   UNL     1      -9.750  10.525  63.661  1.00  0.00    -0.287 SA 
HETATM   30  C   UNL     1      -7.602  10.226  64.282  1.00  0.00    -0.089 C  
HETATM   31  O   UNL     1      -6.436  13.013  68.743  1.00  0.00    -0.073 OA 
HETATM   32  OXT UNL     1      -5.382  11.125  67.974  1.00  0.00    -0.043 OA 
HETATM   33  CA  UNL     1      -7.286   8.768  64.799  1.00  0.00    -0.091 C  
BRANCH  33  34
HETATM   34  N   UNL     1      -8.393   7.820  65.163  1.00  0.00    -0.236 N  
HETATM   35  C   UNL     1      -8.367   6.491  65.610  1.00  0.00    -0.144 C  
HETATM   36  H   UNL     1      -9.330   8.213  65.068  1.00  0.00     0.000 HD 
HETATM   37  O   UNL     1      -9.477   6.017  65.850  1.00  0.00    -0.098 OA 
BRANCH  35  38
HETATM   38  C   UNL     1      -7.081   5.584  65.854  1.00  0.00    -0.068 C  
HETATM   39  C   UNL     1      -6.724   5.103  67.169  1.00  0.00    -0.055 C  
HETATM   40  C   UNL     1      -5.575   3.864  69.783  1.00  0.00    -0.016 C  
HETATM   41  N   UNL     1      -7.981   5.406  68.175  1.00  0.00    -0.095 NA 
HETATM   42  N   UNL     1      -5.148   2.901  70.654  1.00  0.00    -0.004 NA 
HETATM   43  H   UNL     1      -4.498   3.819  67.588  1.00  0.00     0.000 HD 
HETATM   44  S   UNL     1      -7.603   4.820  70.477  1.00  0.00    -0.059 SA 
HETATM   45  H1  UNL     1      -4.267   2.486  70.353  1.00  0.00     0.000 HD 
HETATM   46  H2  UNL     1      -5.648   2.632  71.501  1.00  0.00     0.000 HD 
HETATM   47  N   UNL     1      -5.332   4.145  68.075  1.00  0.00    -0.014 NA 
BRANCH  38  48
HETATM   48  N   UNL     1      -6.342   5.067  64.935  1.00  0.00    -0.034 NA 
HETATM   49  H   UNL     1      -5.406   4.731  65.158  1.00  0.00     0.000 HD 
BRANCH  48  50
HETATM   50  O   UNL     1      -6.820   4.971  63.663  1.00  0.00    -0.044 OA 
HETATM   51  O   UNL     1      -6.475   1.515  62.968  1.00  0.00    -0.012 OA 
HETATM   52  C   UNL     1      -6.338   2.731  63.009  1.00  0.00    -0.014 C  
HETATM   53  C   UNL     1      -8.398   3.847  62.347  1.00  0.00    -0.076 C  
HETATM   54  C   UNL     1      -7.863   2.861  64.820  1.00  0.00    -0.078 C  
HETATM   55  C   UNL     1      -7.426   3.661  63.518  1.00  0.00    -0.058 C  
HETATM   56  O   UNL     1      -5.212   3.351  62.604  1.00  0.00    -0.004 OA 
ENDBRANCH  48  50
ENDBRANCH  38  48
ENDBRANCH  35  38
ENDBRANCH  33  34
ENDBRANCH  21  22
ENDBRANCH   9  21
TORSDOF 11
ENDMDL
MODEL       95
REMARK 921   NORMALIZED FREE ENERGY PREDICTED BY IDOCK:   -0.88 KCAL/MOL
REMARK 922        TOTAL FREE ENERGY PREDICTED BY IDOCK:   -5.24 KCAL/MOL
REMARK 923 INTER-LIGAND FREE ENERGY PREDICTED BY IDOCK:   -5.59 KCAL/MOL
REMARK 924 INTRA-LIGAND FREE ENERGY PREDICTED BY IDOCK:    0.36 KCAL/MOL
REMARK 927      BINDING AFFINITY PREDICTED BY RF-SCORE:    0.00 PKD
ROOT
HETATM    1  C   UNL     1      -8.417   6.694  68.004  1.00  0.00    -0.116 C  
HETATM    2  N   UNL     1      -8.820   7.719  68.945  1.00  0.00    -0.135 NA 
HETATM    3  C   UNL     1      -8.333   7.836  70.237  1.00  0.00    -0.127 A  
HETATM    4  C   UNL     1      -9.335   8.336  71.098  1.00  0.00    -0.165 A  
HETATM    5  N   UNL     1      -7.092   7.488  70.654  1.00  0.00    -0.058 NA 
HETATM    6  C   UNL     1     -10.468   8.428  70.210  1.00  0.00    -0.218 A  
HETATM    7  H2  UNL     1      -6.458   7.104  69.954  1.00  0.00     0.000 HD 
HETATM    8  H1  UNL     1      -6.733   7.574  71.605  1.00  0.00     0.000 HD 
HETATM    9  N   UNL     1      -9.990   8.386  68.873  1.00  0.00    -0.182 NA 
ENDROOT
BRANCH   4  10
HETATM   10  N   UNL     1      -9.105   8.482  72.455  1.00  0.00    -0.253 N  
HETATM   11  H   UNL     1      -9.178   9.426  72.834  1.00  0.00     0.000 HD 
BRANCH  10  12
HETATM   12  C   UNL     1      -8.791   7.492  73.333  1.00  0.00    -0.192 C  
HETATM   13  O   UNL     1      -9.572   7.220  74.237  1.00  0.00    -0.232 OA 
BRANCH  12  14
HETATM   14  N   UNL     1      -7.529   6.995  73.218  1.00  0.00    -0.073 N  
HETATM   15  H   UNL     1      -7.361   6.126  72.710  1.00  0.00     0.000 HD 
BRANCH  14  16
HETATM   16  C   UNL     1      -6.423   7.716  73.827  1.00  0.00    -0.079 C  
BRANCH  16  17
HETATM   17  C   UNL     1      -6.719   9.211  74.001  1.00  0.00     0.344 C  
HETATM   18  H2  UNL     1      -4.979   9.799  73.057  1.00  0.00     0.000 HD 
HETATM   19  N   UNL     1      -5.490   9.986  73.920  1.00  0.00    -0.328 NA 
HETATM   20  H1  UNL     1      -5.687  10.980  74.036  1.00  0.00     0.000 HD 
ENDBRANCH  16  17
ENDBRANCH  14  16
ENDBRANCH  12  14
ENDBRANCH  10  12
ENDBRANCH   4  10
BRANCH   9  21
HETATM   21  C   UNL     1     -10.613   8.722  67.558  1.00  0.00    -0.228 C  
BRANCH  21  22
HETATM   22  C   UNL     1     -11.205  10.372  67.283  1.00  0.00    -0.153 C  
HETATM   23  CA  UNL     1     -11.871  11.719  68.474  1.00  0.00    -0.303 C  
HETATM   24  C   UNL     1     -11.127  14.165  68.571  1.00  0.00    -0.255 C  
HETATM   25  C   UNL     1     -10.979  10.682  65.444  1.00  0.00     0.142 C  
HETATM   26  C   UNL     1     -12.347  11.683  70.325  1.00  0.00    -0.258 C  
HETATM   27  N   UNL     1     -12.125  13.294  68.095  1.00  0.00    -0.289 N  
HETATM   28  O   UNL     1     -10.349  14.138  69.516  1.00  0.00    -0.009 OA 
HETATM   29  S   UNL     1     -11.423  12.773  64.742  1.00  0.00    -0.335 SA 
HETATM   30  C   UNL     1     -12.000  13.919  66.598  1.00  0.00    -0.442 C  
HETATM   31  O   UNL     1     -12.884  10.613  70.759  1.00  0.00    -0.360 OA 
HETATM   32  OXT UNL     1     -12.271  12.822  70.851  1.00  0.00    -0.349 OA 
HETATM   33  CA  UNL     1     -10.825  14.785  67.202  1.00  0.00    -0.311 C  
BRANCH  33  34
HETATM   34  N   UNL     1      -9.402  14.563  66.774  1.00  0.00    -0.250 N  
HETATM   35  C   UNL     1      -8.187  14.943  67.362  1.00  0.00    -0.197 C  
HETATM   36  H   UNL     1      -9.302  14.044  65.901  1.00  0.00     0.000 HD 
HETATM   37  O   UNL     1      -7.189  14.563  66.749  1.00  0.00     0.206 OA 
BRANCH  35  38
HETATM   38  C   UNL     1      -7.987  15.765  68.711  1.00  0.00    -0.180 C  
HETATM   39  C   UNL     1      -7.339  15.189  69.866  1.00  0.00    -0.068 C  
HETATM   40  C   UNL     1      -6.033  14.372  72.571  1.00  0.00     0.362 C  
HETATM   41  N   UNL     1      -6.655  13.772  69.408  1.00  0.00    -0.111 NA 
HETATM   42  N   UNL     1      -5.171  14.411  73.631  1.00  0.00    -0.419 NA 
HETATM   43  H   UNL     1      -7.227  16.461  72.136  1.00  0.00     0.000 HD 
HETATM   44  S   UNL     1      -5.611  12.527  71.182  1.00  0.00     0.115 SA 
HETATM   45  H1  UNL     1      -5.354  15.213  74.235  1.00  0.00     0.000 HD 
HETATM   46  H2  UNL     1      -4.436  13.724  73.798  1.00  0.00     0.000 HD 
HETATM   47  N   UNL     1      -6.934  15.589  71.697  1.00  0.00     2.433 NA 
BRANCH  38  48
HETATM   48  N   UNL     1      -8.219  17.022  68.864  1.00  0.00    -0.239 NA 
HETATM   49  H   UNL     1      -8.680  17.358  69.710  1.00  0.00     0.000 HD 
BRANCH  48  50
HETATM   50  O   UNL     1      -7.845  17.900  67.892  1.00  0.00    -0.220 OA 
HETATM   51  O   UNL     1     -10.912  18.599  66.263  1.00  0.00    -0.127 OA 
HETATM   52  C   UNL     1      -9.798  18.183  66.557  1.00  0.00    -0.362 C  
HETATM   53  C   UNL     1      -8.293  20.035  67.040  1.00  0.00    -0.373 C  
HETATM   54  C   UNL     1     -10.075  18.956  68.782  1.00  0.00    -0.415 C  
HETATM   55  C   UNL     1      -8.959  18.801  67.661  1.00  0.00    -0.279 C  
HETATM   56  O   UNL     1      -9.219  17.143  65.925  1.00  0.00    -0.506 OA 
ENDBRANCH  48  50
ENDBRANCH  38  48
ENDBRANCH  35  38
ENDBRANCH  33  34
ENDBRANCH  21  22
ENDBRANCH   9  21
TORSDOF 11
ENDMDL
MODEL       96
REMARK 921   NORMALIZED FREE ENERGY PREDICTED BY IDOCK:   -0.88 KCAL/MOL
REMARK 922        TOTAL FREE ENERGY PREDICTED BY IDOCK:   -5.23 KCAL/MOL
REMARK 923 INTER-LIGAND FREE ENERGY PREDICTED BY IDOCK:   -4.70 KCAL/MOL
REMARK 924 INTRA-LIGAND FREE ENERGY PREDICTED BY IDOCK:   -0.52 KCAL/MOL
REMARK 927      BINDING AFFINITY PREDICTED BY RF-SCORE:    0.00 PKD
ROOT
HETATM    1  C   UNL     1     -12.562   7.353  71.119  1.00  0.00    -0.293 C  
HETATM    2  N   UNL     1     -11.418   6.520  70.810  1.00  0.00    -0.340 NA 
HETATM    3  C   UNL     1     -10.908   5.542  71.647  1.00  0.00    -0.204 A  
HETATM    4  C   UNL     1      -9.505   5.450  71.500  1.00  0.00    -0.149 A  
HETATM    5  N   UNL     1     -11.619   4.794  72.525  1.00  0.00     0.129 NA 
HETATM    6  C   UNL     1      -9.237   6.510  70.560  1.00  0.00    -0.155 A  
HETATM    7  H2  UNL     1     -12.623   4.967  72.573  1.00  0.00     0.000 HD 
HETATM    8  H1  UNL     1     -11.244   4.074  73.141  1.00  0.00     0.000 HD 
HETATM    9  N   UNL     1     -10.458   6.863  69.926  1.00  0.00    -0.208 NA 
ENDROOT
BRANCH   4  10
HETATM   10  N   UNL     1      -8.760   4.582  72.279  1.00  0.00    -0.117 N  
HETATM   11  H   UNL     1      -9.104   4.400  73.221  1.00  0.00     0.000 HD 
BRANCH  10  12
HETATM   12  C   UNL     1      -7.613   3.949  71.912  1.00  0.00    -0.061 C  
HETATM   13  O   UNL     1      -6.540   4.528  72.037  1.00  0.00    -0.021 OA 
BRANCH  12  14
HETATM   14  N   UNL     1      -7.787   2.761  71.270  1.00  0.00    -0.044 N  
HETATM   15  H   UNL     1      -8.413   2.054  71.655  1.00  0.00     0.000 HD 
BRANCH  14  16
HETATM   16  C   UNL     1      -7.070   2.512  70.030  1.00  0.00    -0.033 C  
BRANCH  16  17
HETATM   17  C   UNL     1      -7.686   3.249  68.835  1.00  0.00    -0.051 C  
HETATM   18  H2  UNL     1      -9.595   2.569  69.231  1.00  0.00     0.000 HD 
HETATM   19  N   UNL     1      -8.944   2.630  68.447  1.00  0.00    -0.124 NA 
HETATM   20  H1  UNL     1      -9.354   3.120  67.653  1.00  0.00     0.000 HD 
ENDBRANCH  16  17
ENDBRANCH  14  16
ENDBRANCH  12  14
ENDBRANCH  10  12
ENDBRANCH   4  10
BRANCH   9  21
HETATM   21  C   UNL     1     -10.777   7.651  68.698  1.00  0.00    -0.059 C  
BRANCH  21  22
HETATM   22  C   UNL     1      -9.671   8.941  68.192  1.00  0.00    -0.180 C  
HETATM   23  CA  UNL     1      -8.747   9.276  66.545  1.00  0.00    -0.132 C  
HETATM   24  C   UNL     1      -8.691  11.486  65.255  1.00  0.00     0.230 C  
HETATM   25  C   UNL     1      -9.589  10.128  69.646  1.00  0.00    -0.237 C  
HETATM   26  C   UNL     1      -8.510   8.229  64.963  1.00  0.00    -0.123 C  
HETATM   27  N   UNL     1      -7.972  10.665  66.145  1.00  0.00    -0.147 N  
HETATM   28  O   UNL     1      -9.535  11.278  64.393  1.00  0.00    -0.226 OA 
HETATM   29  S   UNL     1      -8.437  12.028  69.296  1.00  0.00     0.907 SA 
HETATM   30  C   UNL     1      -7.733  11.917  67.156  1.00  0.00    -0.163 C  
HETATM   31  O   UNL     1      -8.386   6.971  65.122  1.00  0.00    -0.134 OA 
HETATM   32  OXT UNL     1      -8.279   8.945  63.956  1.00  0.00    -0.155 OA 
HETATM   33  CA  UNL     1      -8.634  12.732  66.146  1.00  0.00     0.490 C  
BRANCH  33  34
HETATM   34  N   UNL     1      -9.999  13.214  66.545  1.00  0.00    -0.262 N  
HETATM   35  C   UNL     1     -10.479  14.499  66.838  1.00  0.00    -0.269 C  
HETATM   36  H   UNL     1     -10.702  12.477  66.616  1.00  0.00     0.000 HD 
HETATM   37  O   UNL     1     -11.681  14.541  67.102  1.00  0.00    -0.377 OA 
BRANCH  35  38
HETATM   38  C   UNL     1      -9.652  15.859  66.832  1.00  0.00    -0.229 C  
HETATM   39  C   UNL     1      -8.625  16.132  67.810  1.00  0.00    -0.167 C  
HETATM   40  C   UNL     1      -6.364  17.146  69.695  1.00  0.00    -0.209 C  
HETATM   41  N   UNL     1      -8.327  14.745  68.631  1.00  0.00    -0.159 NA 
HETATM   42  N   UNL     1      -5.132  17.600  70.075  1.00  0.00    -0.186 NA 
HETATM   43  H   UNL     1      -7.444  18.450  67.931  1.00  0.00     0.000 HD 
HETATM   44  S   UNL     1      -6.738  14.946  70.425  1.00  0.00     0.171 SA 
HETATM   45  H1  UNL     1      -4.970  18.556  69.758  1.00  0.00     0.000 HD 
HETATM   46  H2  UNL     1      -4.459  17.051  70.609  1.00  0.00     0.000 HD 
HETATM   47  N   UNL     1      -7.443  17.533  68.375  1.00  0.00    -0.237 NA 
BRANCH  38  48
HETATM   48  N   UNL     1      -9.686  16.754  65.907  1.00  0.00    -0.514 NA 
HETATM   49  H   UNL     1      -8.913  16.839  65.247  1.00  0.00     0.000 HD 
BRANCH  48  50
HETATM   50  O   UNL     1     -10.761  17.586  65.814  1.00  0.00    -0.378 OA 
HETATM   51  O   UNL     1      -9.837  20.277  67.924  1.00  0.00    -0.385 OA 
HETATM   52  C   UNL     1     -10.353  19.276  67.444  1.00  0.00    -0.438 C  
HETATM   53  C   UNL     1     -11.372  19.786  65.293  1.00  0.00     0.860 C  
HETATM   54  C   UNL     1      -8.741  19.255  65.705  1.00  0.00     0.228 C  
HETATM   55  C   UNL     1     -10.279  18.946  65.964  1.00  0.00    -0.387 C  
HETATM   56  O   UNL     1     -11.034  18.380  68.187  1.00  0.00    -0.166 OA 
ENDBRANCH  48  50
ENDBRANCH  38  48
ENDBRANCH  35  38
ENDBRANCH  33  34
ENDBRANCH  21  22
ENDBRANCH   9  21
TORSDOF 11
ENDMDL
MODEL       97
REMARK 921   NORMALIZED FREE ENERGY PREDICTED BY IDOCK:   -0.85 KCAL/MOL
REMARK 922        TOTAL FREE ENERGY PREDICTED BY IDOCK:   -5.19 KCAL/MOL
REMARK 923 INTER-LIGAND FREE ENERGY PREDICTED BY IDOCK:   -4.18 KCAL/MOL
REMARK 924 INTRA-LIGAND FREE ENERGY PREDICTED BY IDOCK:   -1.01 KCAL/MOL
REMARK 927      BINDING AFFINITY PREDICTED BY RF-SCORE:    0.00 PKD
ROOT
HETATM    1  C   UNL     1      -7.819  15.055  69.882  1.00  0.00     0.115 C  
HETATM    2  N   UNL     1      -8.147  14.754  68.504  1.00  0.00    -0.139 NA 
HETATM    3  C   UNL     1      -9.342  15.088  67.889  1.00  0.00    -0.183 A  
HETATM    4  C   UNL     1      -9.695  14.109  66.934  1.00  0.00    -0.269 A  
HETATM    5  N   UNL     1     -10.108  16.170  68.171  1.00  0.00    -0.233 NA 
HETATM    6  C   UNL     1      -8.640  13.139  67.101  1.00  0.00    -0.192 A  
HETATM    7  H2  UNL     1      -9.774  16.795  68.904  1.00  0.00     0.000 HD 
HETATM    8  H1  UNL     1     -10.988  16.416  67.719  1.00  0.00     0.000 HD 
HETATM    9  N   UNL     1      -7.568  13.763  67.795  1.00  0.00    -0.151 NA 
ENDROOT
BRANCH   4  10
HETATM   10  N   UNL     1     -10.884  14.191  66.231  1.00  0.00    -0.297 N  
HETATM   11  H   UNL     1     -11.615  13.526  66.484  1.00  0.00     0.000 HD 
BRANCH  10  12
HETATM   12  C   UNL     1     -11.175  15.070  65.235  1.00  0.00    -0.367 C  
HETATM   13  O   UNL     1     -11.270  16.264  65.495  1.00  0.00    -0.079 OA 
BRANCH  12  14
HETATM   14  N   UNL     1     -11.504  14.505  64.041  1.00  0.00    -0.593 N  
HETATM   15  H   UNL     1     -11.055  14.818  63.180  1.00  0.00     0.000 HD 
BRANCH  14  16
HETATM   16  C   UNL     1     -12.503  13.449  64.006  1.00  0.00    -0.241 C  
BRANCH  16  17
HETATM   17  C   UNL     1     -11.944  12.094  64.457  1.00  0.00    -0.337 C  
HETATM   18  H2  UNL     1     -11.080  11.693  62.624  1.00  0.00     0.000 HD 
HETATM   19  N   UNL     1     -11.689  11.240  63.306  1.00  0.00    -0.739 NA 
HETATM   20  H1  UNL     1     -11.317  10.339  63.605  1.00  0.00     0.000 HD 
ENDBRANCH  16  17
ENDBRANCH  14  16
ENDBRANCH  12  14
ENDBRANCH  10  12
ENDBRANCH   4  10
BRANCH   9  21
HETATM   21  C   UNL     1      -6.136  13.393  68.000  1.00  0.00    -0.129 C  
BRANCH  21  22
HETATM   22  C   UNL     1      -5.735  11.728  68.461  1.00  0.00    -0.048 C  
HETATM   23  CA  UNL     1      -5.629  10.850  70.163  1.00  0.00    -0.080 C  
HETATM   24  C   UNL     1      -6.715   8.621  70.794  1.00  0.00    -0.047 C  
HETATM   25  C   UNL     1      -5.480  10.810  66.842  1.00  0.00    -0.052 C  
HETATM   26  C   UNL     1      -5.690  11.504  71.957  1.00  0.00     1.053 C  
HETATM   27  N   UNL     1      -5.509   9.232  70.402  1.00  0.00    -0.030 N  
HETATM   28  O   UNL     1      -7.713   9.004  71.389  1.00  0.00    -0.247 OA 
HETATM   29  S   UNL     1      -5.163   8.589  67.015  1.00  0.00    -0.037 SA 
HETATM   30  C   UNL     1      -5.299   8.134  69.220  1.00  0.00    -0.030 C  
HETATM   31  O   UNL     1      -5.147  12.637  72.174  1.00  0.00    -0.336 OA 
HETATM   32  OXT UNL     1      -6.072  10.622  72.767  1.00  0.00     0.789 OA 
HETATM   33  CA  UNL     1      -6.708   7.578  69.670  1.00  0.00    -0.040 C  
BRANCH  33  34
HETATM   34  N   UNL     1      -7.907   7.695  68.772  1.00  0.00    -0.118 N  
HETATM   35  C   UNL     1      -8.418   6.834  67.791  1.00  0.00    -0.122 C  
HETATM   36  H   UNL     1      -8.445   8.554  68.899  1.00  0.00     0.000 HD 
HETATM   37  O   UNL     1      -9.454   7.232  67.259  1.00  0.00    -0.130 OA 
BRANCH  35  38
HETATM   38  C   UNL     1      -7.821   5.429  67.340  1.00  0.00    -0.101 C  
HETATM   39  C   UNL     1      -7.349   5.196  65.994  1.00  0.00    -0.081 C  
HETATM   40  C   UNL     1      -6.241   4.245  63.246  1.00  0.00    -0.018 C  
HETATM   41  N   UNL     1      -7.285   6.641  65.225  1.00  0.00    -0.074 NA 
HETATM   42  N   UNL     1      -5.348   3.754  62.334  1.00  0.00    -0.005 NA 
HETATM   43  H   UNL     1      -6.593   2.831  65.209  1.00  0.00     0.000 HD 
HETATM   44  S   UNL     1      -6.651   6.531  62.907  1.00  0.00    -0.038 SA 
HETATM   45  H1  UNL     1      -5.170   2.760  62.481  1.00  0.00     0.000 HD 
HETATM   46  H2  UNL     1      -4.914   4.311  61.599  1.00  0.00     0.000 HD 
HETATM   47  N   UNL     1      -6.684   3.790  64.874  1.00  0.00    -0.047 NA 
BRANCH  38  48
HETATM   48  N   UNL     1      -7.551   4.442  68.122  1.00  0.00    -0.068 NA 
HETATM   49  H   UNL     1      -6.623   4.021  68.115  1.00  0.00     0.000 HD 
BRANCH  48  50
HETATM   50  O   UNL     1      -8.514   3.965  68.960  1.00  0.00    -0.075 OA 
HETATM   51  O   UNL     1      -6.667   1.878  71.147  1.00  0.00    -0.023 OA 
HETATM   52  C   UNL     1      -7.403   2.313  70.271  1.00  0.00    -0.033 C  
HETATM   53  C   UNL     1      -9.090   3.787  71.223  1.00  0.00    -0.181 C  
HETATM   54  C   UNL     1      -6.543   4.498  70.606  1.00  0.00    -0.035 C  
HETATM   55  C   UNL     1      -7.900   3.748  70.257  1.00  0.00    -0.047 C  
HETATM   56  O   UNL     1      -7.837   1.557  69.243  1.00  0.00    -0.042 OA 
ENDBRANCH  48  50
ENDBRANCH  38  48
ENDBRANCH  35  38
ENDBRANCH  33  34
ENDBRANCH  21  22
ENDBRANCH   9  21
TORSDOF 11
ENDMDL
MODEL       98
REMARK 921   NORMALIZED FREE ENERGY PREDICTED BY IDOCK:   -0.79 KCAL/MOL
REMARK 922        TOTAL FREE ENERGY PREDICTED BY IDOCK:   -5.08 KCAL/MOL
REMARK 923 INTER-LIGAND FREE ENERGY PREDICTED BY IDOCK:   -6.51 KCAL/MOL
REMARK 924 INTRA-LIGAND FREE ENERGY PREDICTED BY IDOCK:    1.43 KCAL/MOL
REMARK 927      BINDING AFFINITY PREDICTED BY RF-SCORE:    0.00 PKD
ROOT
HETATM    1  C   UNL     1     -10.769   5.523  67.191  1.00  0.00    -0.181 C  
HETATM    2  N   UNL     1      -9.625   5.191  66.367  1.00  0.00    -0.150 NA 
HETATM    3  C   UNL     1      -9.104   3.915  66.223  1.00  0.00    -0.148 A  
HETATM    4  C   UNL     1      -7.703   3.972  66.049  1.00  0.00    -0.090 A  
HETATM    5  N   UNL     1      -9.805   2.757  66.278  1.00  0.00    -0.202 NA 
HETATM    6  C   UNL     1      -7.446   5.386  66.181  1.00  0.00    -0.083 A  
HETATM    7  H2  UNL     1     -10.809   2.831  66.442  1.00  0.00     0.000 HD 
HETATM    8  H1  UNL     1      -9.422   1.819  66.172  1.00  0.00     0.000 HD 
HETATM    9  N   UNL     1      -8.675   6.079  66.010  1.00  0.00    -0.149 NA 
ENDROOT
BRANCH   4  10
HETATM   10  N   UNL     1      -6.947   2.818  65.945  1.00  0.00    -0.051 N  
HETATM   11  H   UNL     1      -6.805   2.445  65.006  1.00  0.00     0.000 HD 
BRANCH  10  12
HETATM   12  C   UNL     1      -6.375   2.131  66.970  1.00  0.00    -0.027 C  
HETATM   13  O   UNL     1      -5.269   1.627  66.814  1.00  0.00    -0.004 OA 
BRANCH  12  14
HETATM   14  N   UNL     1      -7.180   1.924  68.049  1.00  0.00    -0.046 N  
HETATM   15  H   UNL     1      -7.871   1.173  68.041  1.00  0.00     0.000 HD 
BRANCH  14  16
HETATM   16  C   UNL     1      -7.043   2.785  69.212  1.00  0.00    -0.044 C  
BRANCH  16  17
HETATM   17  C   UNL     1      -8.379   3.030  69.924  1.00  0.00    -0.048 C  
HETATM   18  H2  UNL     1      -9.140   1.179  69.414  1.00  0.00     0.000 HD 
HETATM   19  N   UNL     1      -9.413   2.162  69.380  1.00  0.00    -0.091 NA 
HETATM   20  H1  UNL     1     -10.302   2.325  69.853  1.00  0.00     0.000 HD 
ENDBRANCH  16  17
ENDBRANCH  14  16
ENDBRANCH  12  14
ENDBRANCH  10  12
ENDBRANCH   4  10
BRANCH   9  21
HETATM   21  C   UNL     1      -9.008   7.511  65.748  1.00  0.00    -0.036 C  
BRANCH  21  22
HETATM   22  C   UNL     1      -8.793   8.697  67.050  1.00  0.00    -0.143 C  
HETATM   23  CA  UNL     1      -7.606  10.189  67.252  1.00  0.00    -0.095 C  
HETATM   24  C   UNL     1      -8.257  12.568  67.932  1.00  0.00    -0.165 C  
HETATM   25  C   UNL     1     -10.113   8.286  68.322  1.00  0.00    -0.231 C  
HETATM   26  C   UNL     1      -6.096  10.782  66.241  1.00  0.00    -0.126 C  
HETATM   27  N   UNL     1      -7.717  11.355  68.400  1.00  0.00    -0.120 N  
HETATM   28  O   UNL     1      -8.291  13.125  66.843  1.00  0.00    -0.129 OA 
HETATM   29  S   UNL     1     -10.297   9.726  70.041  1.00  0.00    -0.279 SA 
HETATM   30  C   UNL     1      -8.764  11.332  69.645  1.00  0.00     0.864 C  
HETATM   31  O   UNL     1      -5.352   9.879  65.737  1.00  0.00    -0.041 OA 
HETATM   32  OXT UNL     1      -5.890  12.014  66.382  1.00  0.00    -0.183 OA 
HETATM   33  CA  UNL     1      -9.365  12.638  68.990  1.00  0.00     0.463 C  
BRANCH  33  34
HETATM   34  N   UNL     1     -10.739  12.636  68.381  1.00  0.00    -0.235 N  
HETATM   35  C   UNL     1     -11.232  13.216  67.204  1.00  0.00    -0.294 C  
HETATM   36  H   UNL     1     -11.436  12.121  68.920  1.00  0.00     0.000 HD 
HETATM   37  O   UNL     1     -12.422  12.986  66.988  1.00  0.00    -0.270 OA 
BRANCH  35  38
HETATM   38  C   UNL     1     -10.420  14.086  66.147  1.00  0.00    -0.297 C  
HETATM   39  C   UNL     1     -10.037  15.453  66.417  1.00  0.00    -0.279 C  
HETATM   40  C   UNL     1      -9.024  18.393  66.553  1.00  0.00    -0.286 C  
HETATM   41  N   UNL     1     -10.323  15.754  68.002  1.00  0.00    -0.246 NA 
HETATM   42  N   UNL     1      -8.141  19.437  66.545  1.00  0.00    -0.287 NA 
HETATM   43  H   UNL     1      -8.916  16.936  64.593  1.00  0.00     0.000 HD 
HETATM   44  S   UNL     1      -9.896  18.016  68.700  1.00  0.00    -0.372 SA 
HETATM   45  H1  UNL     1      -7.763  19.601  65.613  1.00  0.00     0.000 HD 
HETATM   46  H2  UNL     1      -7.892  19.983  67.369  1.00  0.00     0.000 HD 
HETATM   47  N   UNL     1      -9.220  16.964  65.566  1.00  0.00    -0.265 NA 
BRANCH  38  48
HETATM   48  N   UNL     1      -9.895  13.645  65.057  1.00  0.00    -0.600 NA 
HETATM   49  H   UNL     1      -8.883  13.542  64.981  1.00  0.00     0.000 HD 
BRANCH  48  50
HETATM   50  O   UNL     1     -10.698  13.318  64.007  1.00  0.00    -0.377 OA 
HETATM   51  O   UNL     1      -9.513  10.105  63.101  1.00  0.00    -0.295 OA 
HETATM   52  C   UNL     1      -9.765  11.303  63.143  1.00  0.00    -0.386 C  
HETATM   53  C   UNL     1     -12.170  11.669  63.234  1.00  0.00    -0.265 C  
HETATM   54  C   UNL     1     -10.585  11.072  65.357  1.00  0.00    -0.270 C  
HETATM   55  C   UNL     1     -10.868  11.877  64.016  1.00  0.00    -0.379 C  
HETATM   56  O   UNL     1      -9.088  12.215  62.418  1.00  0.00     0.425 OA 
ENDBRANCH  48  50
ENDBRANCH  38  48
ENDBRANCH  35  38
ENDBRANCH  33  34
ENDBRANCH  21  22
ENDBRANCH   9  21
TORSDOF 11
ENDMDL
MODEL       99
REMARK 921   NORMALIZED FREE ENERGY PREDICTED BY IDOCK:   -0.77 KCAL/MOL
REMARK 922        TOTAL FREE ENERGY PREDICTED BY IDOCK:   -5.05 KCAL/MOL
REMARK 923 INTER-LIGAND FREE ENERGY PREDICTED BY IDOCK:   -7.41 KCAL/MOL
REMARK 924 INTRA-LIGAND FREE ENERGY PREDICTED BY IDOCK:    2.36 KCAL/MOL
REMARK 927      BINDING AFFINITY PREDICTED BY RF-SCORE:    0.00 PKD
ROOT
HETATM    1  C   UNL     1     -12.968   8.893  72.133  1.00  0.00    -0.416 C  
HETATM    2  N   UNL     1     -11.753   8.317  71.593  1.00  0.00    -0.276 NA 
HETATM    3  C   UNL     1     -11.270   7.059  71.913  1.00  0.00    -0.249 A  
HETATM    4  C   UNL     1      -9.857   7.055  71.896  1.00  0.00    -0.163 A  
HETATM    5  N   UNL     1     -12.018   5.978  72.241  1.00  0.00    -0.417 NA 
HETATM    6  C   UNL     1      -9.562   8.438  71.613  1.00  0.00    -0.221 A  
HETATM    7  H2  UNL     1     -13.031   6.102  72.255  1.00  0.00     0.000 HD 
HETATM    8  H1  UNL     1     -11.663   5.052  72.477  1.00  0.00     0.000 HD 
HETATM    9  N   UNL     1     -10.735   9.047  71.092  1.00  0.00    -0.261 NA 
ENDROOT
BRANCH   4  10
HETATM   10  N   UNL     1      -9.141   5.923  72.244  1.00  0.00    -0.142 N  
HETATM   11  H   UNL     1      -9.073   5.710  73.239  1.00  0.00     0.000 HD 
BRANCH  10  12
HETATM   12  C   UNL     1      -8.518   5.067  71.389  1.00  0.00    -0.119 C  
HETATM   13  O   UNL     1      -7.779   4.200  71.840  1.00  0.00    -0.071 OA 
BRANCH  12  14
HETATM   14  N   UNL     1      -8.650   5.369  70.068  1.00  0.00    -0.120 N  
HETATM   15  H   UNL     1      -7.914   5.877  69.578  1.00  0.00     0.000 HD 
BRANCH  14  16
HETATM   16  C   UNL     1      -9.854   4.958  69.364  1.00  0.00    -0.211 C  
BRANCH  16  17
HETATM   17  C   UNL     1     -10.496   6.107  68.576  1.00  0.00    -0.237 C  
HETATM   18  H2  UNL     1     -11.451   6.883  70.234  1.00  0.00     0.000 HD 
HETATM   19  N   UNL     1     -11.669   6.610  69.275  1.00  0.00    -0.628 NA 
HETATM   20  H1  UNL     1     -12.097   7.374  68.752  1.00  0.00     0.000 HD 
ENDBRANCH  16  17
ENDBRANCH  14  16
ENDBRANCH  12  14
ENDBRANCH  10  12
ENDBRANCH   4  10
BRANCH   9  21
HETATM   21  C   UNL     1     -10.981  10.327  70.363  1.00  0.00    -0.296 C  
BRANCH  21  22
HETATM   22  C   UNL     1      -9.799  10.872  69.159  1.00  0.00    -0.164 C  
HETATM   23  CA  UNL     1      -9.968  11.947  67.580  1.00  0.00    -0.187 C  
HETATM   24  C   UNL     1      -8.521  13.962  66.950  1.00  0.00    -0.069 C  
HETATM   25  C   UNL     1      -8.137  10.242  69.769  1.00  0.00    -0.125 C  
HETATM   26  C   UNL     1     -11.486  12.611  66.628  1.00  0.00    -0.351 C  
HETATM   27  N   UNL     1      -8.728  12.589  66.719  1.00  0.00    -0.183 N  
HETATM   28  O   UNL     1      -9.242  14.888  67.297  1.00  0.00    -0.191 OA 
HETATM   29  S   UNL     1      -6.341  10.927  68.602  1.00  0.00    -0.051 SA 
HETATM   30  C   UNL     1      -7.155  12.274  66.985  1.00  0.00    -0.037 C  
HETATM   31  O   UNL     1     -12.510  11.854  66.582  1.00  0.00     0.109 OA 
HETATM   32  OXT UNL     1     -11.211  13.641  65.963  1.00  0.00    -0.294 OA 
HETATM   33  CA  UNL     1      -7.042  13.814  67.322  1.00  0.00     0.077 C  
BRANCH  33  34
HETATM   34  N   UNL     1      -6.753  14.279  68.721  1.00  0.00    -0.089 N  
HETATM   35  C   UNL     1      -7.390  15.229  69.532  1.00  0.00    -0.210 C  
HETATM   36  H   UNL     1      -5.951  13.824  69.158  1.00  0.00     0.000 HD 
HETATM   37  O   UNL     1      -6.903  15.341  70.657  1.00  0.00     0.200 OA 
BRANCH  35  38
HETATM   38  C   UNL     1      -8.655  16.120  69.157  1.00  0.00    -0.235 C  
HETATM   39  C   UNL     1      -9.998  15.735  69.526  1.00  0.00    -0.283 C  
HETATM   40  C   UNL     1     -13.028  15.307  70.092  1.00  0.00    -0.093 C  
HETATM   41  N   UNL     1      -9.892  14.480  70.575  1.00  0.00     1.146 NA 
HETATM   42  N   UNL     1     -14.282  15.564  70.572  1.00  0.00    -0.430 NA 
HETATM   43  H   UNL     1     -12.072  17.079  68.706  1.00  0.00     0.000 HD 
HETATM   44  S   UNL     1     -12.001  13.546  71.257  1.00  0.00     0.489 SA 
HETATM   45  H1  UNL     1     -14.729  16.329  70.066  1.00  0.00     0.000 HD 
HETATM   46  H2  UNL     1     -14.717  15.055  71.341  1.00  0.00     0.000 HD 
HETATM   47  N   UNL     1     -11.821  16.274  69.279  1.00  0.00    -0.161 NA 
BRANCH  38  48
HETATM   48  N   UNL     1      -8.615  17.304  68.652  1.00  0.00    -0.275 NA 
HETATM   49  H   UNL     1      -9.465  17.736  68.290  1.00  0.00     0.000 HD 
BRANCH  48  50
HETATM   50  O   UNL     1      -7.431  17.976  68.605  1.00  0.00    -0.272 OA 
HETATM   51  O   UNL     1      -7.682  19.768  65.560  1.00  0.00    -0.392 OA 
HETATM   52  C   UNL     1      -7.390  18.966  66.438  1.00  0.00    -0.246 C  
HETATM   53  C   UNL     1      -6.516  20.122  68.395  1.00  0.00    -0.336 C  
HETATM   54  C   UNL     1      -9.146  19.791  67.802  1.00  0.00    -0.412 C  
HETATM   55  C   UNL     1      -7.663  19.228  67.909  1.00  0.00    -0.283 C  
HETATM   56  O   UNL     1      -6.798  17.784  66.177  1.00  0.00    -0.242 OA 
ENDBRANCH  48  50
ENDBRANCH  38  48
ENDBRANCH  35  38
ENDBRANCH  33  34
ENDBRANCH  21  22
ENDBRANCH   9  21
TORSDOF 11
ENDMDL
MODEL      100
REMARK 921   NORMALIZED FREE ENERGY PREDICTED BY IDOCK:   -0.57 KCAL/MOL
REMARK 922        TOTAL FREE ENERGY PREDICTED BY IDOCK:   -4.73 KCAL/MOL
REMARK 923 INTER-LIGAND FREE ENERGY PREDICTED BY IDOCK:   -5.87 KCAL/MOL
REMARK 924 INTRA-LIGAND FREE ENERGY PREDICTED BY IDOCK:    1.14 KCAL/MOL
REMARK 927      BINDING AFFINITY PREDICTED BY RF-SCORE:    0.00 PKD
ROOT
HETATM    1  C   UNL     1      -9.433   7.760  65.115  1.00  0.00     1.072 C  
HETATM    2  N   UNL     1      -8.014   7.991  65.295  1.00  0.00    -0.117 NA 
HETATM    3  C   UNL     1      -7.130   7.073  65.837  1.00  0.00    -0.073 A  
HETATM    4  C   UNL     1      -6.113   7.736  66.560  1.00  0.00    -0.045 A  
HETATM    5  N   UNL     1      -7.224   5.725  65.743  1.00  0.00    -0.073 NA 
HETATM    6  C   UNL     1      -6.525   9.114  66.453  1.00  0.00    -0.066 A  
HETATM    7  H2  UNL     1      -8.020   5.351  65.225  1.00  0.00     0.000 HD 
HETATM    8  H1  UNL     1      -6.574   5.049  66.142  1.00  0.00     0.000 HD 
HETATM    9  N   UNL     1      -7.461   9.218  65.388  1.00  0.00    -0.096 NA 
ENDROOT
BRANCH   4  10
HETATM   10  N   UNL     1      -5.143   7.026  67.246  1.00  0.00    -0.012 N  
HETATM   11  H   UNL     1      -4.182   7.130  66.921  1.00  0.00     0.000 HD 
BRANCH  10  12
HETATM   12  C   UNL     1      -5.345   6.203  68.310  1.00  0.00    -0.007 C  
HETATM   13  O   UNL     1      -5.499   5.002  68.121  1.00  0.00    -0.010 OA 
BRANCH  12  14
HETATM   14  N   UNL     1      -5.524   6.833  69.504  1.00  0.00    -0.014 N  
HETATM   15  H   UNL     1      -4.962   7.649  69.746  1.00  0.00     0.000 HD 
BRANCH  14  16
HETATM   16  C   UNL     1      -6.525   6.329  70.429  1.00  0.00    -0.040 C  
BRANCH  16  17
HETATM   17  C   UNL     1      -7.958   6.590  69.948  1.00  0.00    -0.116 C  
HETATM   18  H2  UNL     1      -8.181   8.280  71.112  1.00  0.00     0.000 HD 
HETATM   19  N   UNL     1      -8.677   7.412  70.909  1.00  0.00    -0.142 NA 
HETATM   20  H1  UNL     1      -9.630   7.586  70.589  1.00  0.00     0.000 HD 
ENDBRANCH  16  17
ENDBRANCH  14  16
ENDBRANCH  12  14
ENDBRANCH  10  12
ENDBRANCH   4  10
BRANCH   9  21
HETATM   21  C   UNL     1      -8.005  10.377  64.620  1.00  0.00    -0.092 C  
BRANCH  21  22
HETATM   22  C   UNL     1      -9.556  11.084  65.111  1.00  0.00    -0.281 C  
HETATM   23  CA  UNL     1     -10.580  10.951  66.727  1.00  0.00    -0.259 C  
HETATM   24  C   UNL     1     -11.571  12.896  68.062  1.00  0.00    -0.342 C  
HETATM   25  C   UNL     1     -10.077  12.185  63.681  1.00  0.00    -0.410 C  
HETATM   26  C   UNL     1     -10.411   9.842  68.274  1.00  0.00    -0.216 C  
HETATM   27  N   UNL     1     -11.866  11.887  67.126  1.00  0.00    -0.229 N  
HETATM   28  O   UNL     1     -10.740  13.021  68.952  1.00  0.00    -0.232 OA 
HETATM   29  S   UNL     1     -11.915  13.435  64.027  1.00  0.00    -0.449 SA 
HETATM   30  C   UNL     1     -12.570  12.967  66.135  1.00  0.00     0.071 C  
HETATM   31  O   UNL     1     -10.004   8.650  68.083  1.00  0.00    -0.164 OA 
HETATM   32  OXT UNL     1     -10.941  10.364  69.287  1.00  0.00    -0.213 OA 
HETATM   33  CA  UNL     1     -12.110  14.042  67.198  1.00  0.00    -0.401 C  
BRANCH  33  34
HETATM   34  N   UNL     1     -11.051  15.055  66.864  1.00  0.00    -0.330 N  
HETATM   35  C   UNL     1     -10.064  15.658  67.655  1.00  0.00    -0.248 C  
HETATM   36  H   UNL     1     -11.051  15.357  65.889  1.00  0.00     0.000 HD 
HETATM   37  O   UNL     1      -9.330  16.433  67.042  1.00  0.00    -0.220 OA 
BRANCH  35  38
HETATM   38  C   UNL     1      -9.796  15.420  69.207  1.00  0.00    -0.262 C  
HETATM   39  C   UNL     1     -10.862  15.465  70.181  1.00  0.00    -0.309 C  
HETATM   40  C   UNL     1     -12.812  15.478  72.607  1.00  0.00    -0.425 C  
HETATM   41  N   UNL     1     -12.286  15.496  69.370  1.00  0.00    -0.275 NA 
HETATM   42  N   UNL     1     -13.481  15.013  73.704  1.00  0.00    -0.443 NA 
HETATM   43  H   UNL     1     -10.377  15.307  72.735  1.00  0.00     0.000 HD 
HETATM   44  S   UNL     1     -14.240  15.706  70.757  1.00  0.00     1.170 SA 
HETATM   45  H1  UNL     1     -12.862  14.915  74.508  1.00  0.00     0.000 HD 
HETATM   46  H2  UNL     1     -14.477  14.793  73.718  1.00  0.00     0.000 HD 
HETATM   47  N   UNL     1     -11.150  15.392  72.075  1.00  0.00    -0.278 NA 
BRANCH  38  48
HETATM   48  N   UNL     1      -8.687  15.019  69.724  1.00  0.00    -0.445 NA 
HETATM   49  H   UNL     1      -8.692  14.336  70.481  1.00  0.00     0.000 HD 
BRANCH  48  50
HETATM   50  O   UNL     1      -7.508  15.513  69.253  1.00  0.00    -0.179 OA 
HETATM   51  O   UNL     1      -5.310  12.763  69.648  1.00  0.00    -0.073 OA 
HETATM   52  C   UNL     1      -5.905  13.827  69.768  1.00  0.00    -0.115 C  
HETATM   53  C   UNL     1      -5.807  15.101  67.696  1.00  0.00    -0.078 C  
HETATM   54  C   UNL     1      -7.559  13.097  68.234  1.00  0.00    -0.139 C  
HETATM   55  C   UNL     1      -6.772  14.408  68.666  1.00  0.00    -0.090 C  
HETATM   56  O   UNL     1      -5.840  14.574  70.888  1.00  0.00    -0.170 OA 
ENDBRANCH  48  50
ENDBRANCH  38  48
ENDBRANCH  35  38
ENDBRANCH  33  34
ENDBRANCH  21  22
ENDBRANCH   9  21
TORSDOF 11
ENDMDL
MODEL      101
REMARK 921   NORMALIZED FREE ENERGY PREDICTED BY IDOCK:   -0.55 KCAL/MOL
REMARK 922        TOTAL FREE ENERGY PREDICTED BY IDOCK:   -4.68 KCAL/MOL
REMARK 923 INTER-LIGAND FREE ENERGY PREDICTED BY IDOCK:   -6.63 KCAL/MOL
REMARK 924 INTRA-LIGAND FREE ENERGY PREDICTED BY IDOCK:    1.95 KCAL/MOL
REMARK 927      BINDING AFFINITY PREDICTED BY RF-SCORE:    0.00 PKD
ROOT
HETATM    1  C   UNL     1     -12.924   8.953  72.110  1.00  0.00    -0.416 C  
HETATM    2  N   UNL     1     -11.694   8.320  71.680  1.00  0.00    -0.276 NA 
HETATM    3  C   UNL     1     -11.273   7.065  72.086  1.00  0.00    -0.256 A  
HETATM    4  C   UNL     1      -9.863   7.021  72.167  1.00  0.00    -0.154 A  
HETATM    5  N   UNL     1     -12.074   6.021  72.408  1.00  0.00    -0.494 NA 
HETATM    6  C   UNL     1      -9.506   8.381  71.846  1.00  0.00    -0.253 A  
HETATM    7  H2  UNL     1     -13.081   6.174  72.347  1.00  0.00     0.000 HD 
HETATM    8  H1  UNL     1     -11.764   5.097  72.707  1.00  0.00     0.000 HD 
HETATM    9  N   UNL     1     -10.623   8.998  71.220  1.00  0.00    -0.280 NA 
ENDROOT
BRANCH   4  10
HETATM   10  N   UNL     1      -9.206   5.887  72.612  1.00  0.00    -0.138 N  
HETATM   11  H   UNL     1      -9.696   4.999  72.500  1.00  0.00     0.000 HD 
BRANCH  10  12
HETATM   12  C   UNL     1      -7.973   5.838  73.184  1.00  0.00    -0.110 C  
HETATM   13  O   UNL     1      -7.830   5.269  74.259  1.00  0.00    -0.096 OA 
BRANCH  12  14
HETATM   14  N   UNL     1      -7.019   6.590  72.568  1.00  0.00    -0.069 N  
HETATM   15  H   UNL     1      -7.031   6.710  71.555  1.00  0.00     0.000 HD 
BRANCH  14  16
HETATM   16  C   UNL     1      -5.983   7.219  73.370  1.00  0.00    -0.056 C  
BRANCH  16  17
HETATM   17  C   UNL     1      -5.141   8.219  72.568  1.00  0.00    -0.037 C  
HETATM   18  H2  UNL     1      -5.734   9.834  73.710  1.00  0.00     0.000 HD 
HETATM   19  N   UNL     1      -5.664   9.568  72.727  1.00  0.00    -0.297 NA 
HETATM   20  H1  UNL     1      -5.104  10.233  72.194  1.00  0.00     0.000 HD 
ENDBRANCH  16  17
ENDBRANCH  14  16
ENDBRANCH  12  14
ENDBRANCH  10  12
ENDBRANCH   4  10
BRANCH   9  21
HETATM   21  C   UNL     1     -10.778  10.250  70.421  1.00  0.00    -0.205 C  
BRANCH  21  22
HETATM   22  C   UNL     1      -9.492  10.718  69.293  1.00  0.00    -0.103 C  
HETATM   23  CA  UNL     1      -9.506  11.753  67.678  1.00  0.00    -0.180 C  
HETATM   24  C   UNL     1      -7.942  13.695  67.105  1.00  0.00    -0.041 C  
HETATM   25  C   UNL     1      -7.905  10.046  70.039  1.00  0.00    -0.172 C  
HETATM   26  C   UNL     1     -10.925  12.443  66.601  1.00  0.00    -0.268 C  
HETATM   27  N   UNL     1      -8.184  12.324  66.894  1.00  0.00    -0.151 N  
HETATM   28  O   UNL     1      -8.650  14.657  67.374  1.00  0.00    -0.174 OA 
HETATM   29  S   UNL     1      -6.004  10.632  68.989  1.00  0.00    -0.041 SA 
HETATM   30  C   UNL     1      -6.647  11.961  67.283  1.00  0.00    -0.141 C  
HETATM   31  O   UNL     1     -11.971  11.723  66.499  1.00  0.00    -0.545 OA 
HETATM   32  OXT UNL     1     -10.564  13.444  65.932  1.00  0.00    -0.275 OA 
HETATM   33  CA  UNL     1      -6.500  13.504  67.588  1.00  0.00    -0.160 C  
BRANCH  33  34
HETATM   34  N   UNL     1      -6.295  13.999  68.992  1.00  0.00    -0.091 N  
HETATM   35  C   UNL     1      -6.920  15.026  69.713  1.00  0.00    -0.182 C  
HETATM   36  H   UNL     1      -5.574  13.498  69.513  1.00  0.00     0.000 HD 
HETATM   37  O   UNL     1      -6.524  15.143  70.872  1.00  0.00     0.164 OA 
BRANCH  35  38
HETATM   38  C   UNL     1      -8.070  16.000  69.198  1.00  0.00    -0.238 C  
HETATM   39  C   UNL     1      -9.467  15.733  69.451  1.00  0.00    -0.275 C  
HETATM   40  C   UNL     1     -12.561  15.560  69.742  1.00  0.00    -0.062 C  
HETATM   41  N   UNL     1      -9.558  14.509  70.536  1.00  0.00     1.403 NA 
HETATM   42  N   UNL     1     -13.828  15.929  70.097  1.00  0.00     0.266 NA 
HETATM   43  H   UNL     1     -11.343  17.206  68.406  1.00  0.00     0.000 HD 
HETATM   44  S   UNL     1     -11.789  13.764  71.043  1.00  0.00     0.220 SA 
HETATM   45  H1  UNL     1     -14.164  16.709  69.532  1.00  0.00     0.000 HD 
HETATM   46  H2  UNL     1     -14.371  15.480  70.834  1.00  0.00     0.000 HD 
HETATM   47  N   UNL     1     -11.211  16.403  69.021  1.00  0.00    -0.317 NA 
BRANCH  38  48
HETATM   48  N   UNL     1      -7.889  17.161  68.669  1.00  0.00    -0.256 NA 
HETATM   49  H   UNL     1      -8.366  17.977  69.051  1.00  0.00     0.000 HD 
BRANCH  48  50
HETATM   50  O   UNL     1      -7.057  17.290  67.599  1.00  0.00    -0.159 OA 
HETATM   51  O   UNL     1      -8.629  19.838  65.705  1.00  0.00    -0.377 OA 
HETATM   52  C   UNL     1      -8.205  18.768  66.124  1.00  0.00    -0.190 C  
HETATM   53  C   UNL     1      -5.789  18.857  66.407  1.00  0.00    -0.183 C  
HETATM   54  C   UNL     1      -7.620  19.784  68.185  1.00  0.00    -0.339 C  
HETATM   55  C   UNL     1      -7.107  18.675  67.169  1.00  0.00    -0.204 C  
HETATM   56  O   UNL     1      -8.674  17.581  65.692  1.00  0.00    -0.421 OA 
ENDBRANCH  48  50
ENDBRANCH  38  48
ENDBRANCH  35  38
ENDBRANCH  33  34
ENDBRANCH  21  22
ENDBRANCH   9  21
TORSDOF 11
ENDMDL
MODEL      102
REMARK 921   NORMALIZED FREE ENERGY PREDICTED BY IDOCK:   -0.47 KCAL/MOL
REMARK 922        TOTAL FREE ENERGY PREDICTED BY IDOCK:   -4.55 KCAL/MOL
REMARK 923 INTER-LIGAND FREE ENERGY PREDICTED BY IDOCK:   -7.26 KCAL/MOL
REMARK 924 INTRA-LIGAND FREE ENERGY PREDICTED BY IDOCK:    2.71 KCAL/MOL
REMARK 927      BINDING AFFINITY PREDICTED BY RF-SCORE:    0.00 PKD
ROOT
HETATM    1  C   UNL     1     -11.748  12.569  69.574  1.00  0.00    -0.309 C  
HETATM    2  N   UNL     1     -10.989  12.497  68.342  1.00  0.00    -0.235 NA 
HETATM    3  C   UNL     1     -11.316  13.172  67.177  1.00  0.00    -0.316 A  
HETATM    4  C   UNL     1     -10.948  12.409  66.046  1.00  0.00    -0.289 A  
HETATM    5  N   UNL     1     -11.937  14.373  67.100  1.00  0.00    -0.475 NA 
HETATM    6  C   UNL     1     -10.449  11.200  66.655  1.00  0.00    -0.250 A  
HETATM    7  H2  UNL     1     -12.189  14.822  67.981  1.00  0.00     0.000 HD 
HETATM    8  H1  UNL     1     -12.178  14.870  66.243  1.00  0.00     0.000 HD 
HETATM    9  N   UNL     1     -10.173  11.471  68.022  1.00  0.00    -0.186 NA 
ENDROOT
BRANCH   4  10
HETATM   10  N   UNL     1     -11.229  12.848  64.764  1.00  0.00    -0.296 N  
HETATM   11  H   UNL     1     -10.435  12.970  64.136  1.00  0.00     0.000 HD 
BRANCH  10  12
HETATM   12  C   UNL     1     -12.460  13.133  64.259  1.00  0.00    -0.288 C  
HETATM   13  O   UNL     1     -13.356  12.303  64.352  1.00  0.00    -0.786 OA 
BRANCH  12  14
HETATM   14  N   UNL     1     -12.535  14.282  63.532  1.00  0.00    -1.102 N  
HETATM   15  H   UNL     1     -12.602  14.246  62.515  1.00  0.00     0.000 HD 
BRANCH  14  16
HETATM   16  C   UNL     1     -12.518  15.562  64.223  1.00  0.00     0.128 C  
BRANCH  16  17
HETATM   17  C   UNL     1     -11.174  16.289  64.083  1.00  0.00     0.278 C  
HETATM   18  H2  UNL     1     -10.187  14.980  65.338  1.00  0.00     0.000 HD 
HETATM   19  N   UNL     1     -10.311  15.985  65.214  1.00  0.00    -0.533 NA 
HETATM   20  H1  UNL     1      -9.417  16.468  65.121  1.00  0.00     0.000 HD 
ENDBRANCH  16  17
ENDBRANCH  14  16
ENDBRANCH  12  14
ENDBRANCH  10  12
ENDBRANCH   4  10
BRANCH   9  21
HETATM   21  C   UNL     1      -9.392  10.745  69.066  1.00  0.00    -0.156 C  
BRANCH  21  22
HETATM   22  C   UNL     1      -8.034   9.718  68.567  1.00  0.00    -0.089 C  
HETATM   23  CA  UNL     1      -6.688   8.784  69.565  1.00  0.00    -0.047 C  
HETATM   24  C   UNL     1      -6.019   6.330  69.287  1.00  0.00    -0.021 C  
HETATM   25  C   UNL     1      -8.168   9.587  66.698  1.00  0.00    -0.116 C  
HETATM   26  C   UNL     1      -6.197   8.816  71.411  1.00  0.00    -0.059 C  
HETATM   27  N   UNL     1      -5.662   7.653  68.966  1.00  0.00    -0.026 N  
HETATM   28  O   UNL     1      -6.637   5.811  70.208  1.00  0.00    -0.043 OA 
HETATM   29  S   UNL     1      -6.727   8.170  65.710  1.00  0.00    -0.056 SA 
HETATM   30  C   UNL     1      -5.525   7.268  67.392  1.00  0.00    -0.028 C  
HETATM   31  O   UNL     1      -6.283   9.938  72.009  1.00  0.00    -0.281 OA 
HETATM   32  OXT UNL     1      -5.628   7.752  71.765  1.00  0.00    -0.035 OA 
HETATM   33  CA  UNL     1      -6.026   5.837  67.836  1.00  0.00    -0.017 C  
BRANCH  33  34
HETATM   34  N   UNL     1      -7.373   5.324  67.412  1.00  0.00    -0.081 N  
HETATM   35  C   UNL     1      -8.397   4.698  68.137  1.00  0.00    -0.094 C  
HETATM   36  H   UNL     1      -7.580   5.454  66.421  1.00  0.00     0.000 HD 
HETATM   37  O   UNL     1      -9.398   4.433  67.471  1.00  0.00    -0.134 OA 
BRANCH  35  38
HETATM   38  C   UNL     1      -8.395   4.337  69.688  1.00  0.00    -0.061 C  
HETATM   39  C   UNL     1      -9.018   5.192  70.672  1.00  0.00    -0.132 C  
HETATM   40  C   UNL     1     -10.204   6.712  73.115  1.00  0.00    -0.219 C  
HETATM   41  N   UNL     1      -9.899   6.320  69.874  1.00  0.00    -0.165 NA 
HETATM   42  N   UNL     1     -10.973   6.938  74.223  1.00  0.00    -0.181 NA 
HETATM   43  H   UNL     1      -8.805   4.710  73.222  1.00  0.00     0.000 HD 
HETATM   44  S   UNL     1     -10.947   7.969  71.277  1.00  0.00    -0.241 SA 
HETATM   45  H1  UNL     1     -10.650   6.392  75.021  1.00  0.00     0.000 HD 
HETATM   46  H2  UNL     1     -11.770   7.574  74.247  1.00  0.00     0.000 HD 
HETATM   47  N   UNL     1      -9.233   5.366  72.569  1.00  0.00    -0.136 NA 
BRANCH  38  48
HETATM   48  N   UNL     1      -8.003   3.221  70.198  1.00  0.00    -0.046 NA 
HETATM   49  H   UNL     1      -8.687   2.523  70.488  1.00  0.00     0.000 HD 
BRANCH  48  50
HETATM   50  O   UNL     1      -6.671   2.980  70.347  1.00  0.00    -0.032 OA 
HETATM   51  O   UNL     1      -6.272   3.006  73.867  1.00  0.00    -0.017 OA 
HETATM   52  C   UNL     1      -6.263   3.287  72.675  1.00  0.00    -0.009 C  
HETATM   53  C   UNL     1      -5.146   1.544  71.394  1.00  0.00     0.000 C  
HETATM   54  C   UNL     1      -7.732   1.481  72.220  1.00  0.00    -0.040 C  
HETATM   55  C   UNL     1      -6.493   2.250  71.589  1.00  0.00    -0.018 C  
HETATM   56  O   UNL     1      -6.048   4.538  72.223  1.00  0.00    -0.015 OA 
ENDBRANCH  48  50
ENDBRANCH  38  48
ENDBRANCH  35  38
ENDBRANCH  33  34
ENDBRANCH  21  22
ENDBRANCH   9  21
TORSDOF 11
ENDMDL
MODEL      103
REMARK 921   NORMALIZED FREE ENERGY PREDICTED BY IDOCK:   -0.42 KCAL/MOL
REMARK 922        TOTAL FREE ENERGY PREDICTED BY IDOCK:   -4.47 KCAL/MOL
REMARK 923 INTER-LIGAND FREE ENERGY PREDICTED BY IDOCK:   -6.31 KCAL/MOL
REMARK 924 INTRA-LIGAND FREE ENERGY PREDICTED BY IDOCK:    1.84 KCAL/MOL
REMARK 927      BINDING AFFINITY PREDICTED BY RF-SCORE:    0.00 PKD
ROOT
HETATM    1  C   UNL     1      -6.293   5.841  69.364  1.00  0.00    -0.040 C  
HETATM    2  N   UNL     1      -6.428   5.888  70.806  1.00  0.00    -0.039 NA 
HETATM    3  C   UNL     1      -6.428   4.776  71.632  1.00  0.00    -0.023 A  
HETATM    4  C   UNL     1      -7.274   4.989  72.744  1.00  0.00    -0.085 A  
HETATM    5  N   UNL     1      -5.759   3.619  71.411  1.00  0.00    -0.012 NA 
HETATM    6  C   UNL     1      -7.822   6.291  72.453  1.00  0.00    -0.103 A  
HETATM    7  H2  UNL     1      -5.204   3.560  70.558  1.00  0.00     0.000 HD 
HETATM    8  H1  UNL     1      -5.759   2.800  72.019  1.00  0.00     0.000 HD 
HETATM    9  N   UNL     1      -7.001   6.911  71.473  1.00  0.00    -0.065 NA 
ENDROOT
BRANCH   4  10
HETATM   10  N   UNL     1      -7.486   3.995  73.682  1.00  0.00    -0.073 N  
HETATM   11  H   UNL     1      -6.760   3.864  74.387  1.00  0.00     0.000 HD 
BRANCH  10  12
HETATM   12  C   UNL     1      -8.568   3.173  73.759  1.00  0.00    -0.074 C  
HETATM   13  O   UNL     1      -8.489   2.131  74.397  1.00  0.00    -0.057 OA 
BRANCH  12  14
HETATM   14  N   UNL     1      -9.616   3.519  72.960  1.00  0.00    -0.116 N  
HETATM   15  H   UNL     1      -9.969   4.476  72.959  1.00  0.00     0.000 HD 
BRANCH  14  16
HETATM   16  C   UNL     1     -10.224   2.509  72.110  1.00  0.00    -0.100 C  
BRANCH  16  17
HETATM   17  C   UNL     1      -9.641   2.505  70.691  1.00  0.00    -0.090 C  
HETATM   18  H2  UNL     1      -9.572   4.565  70.572  1.00  0.00     0.000 HD 
HETATM   19  N   UNL     1      -9.909   3.772  70.027  1.00  0.00    -0.130 NA 
HETATM   20  H1  UNL     1      -9.521   3.770  69.083  1.00  0.00     0.000 HD 
ENDBRANCH  16  17
ENDBRANCH  14  16
ENDBRANCH  12  14
ENDBRANCH  10  12
ENDBRANCH   4  10
BRANCH   9  21
HETATM   21  C   UNL     1      -6.874   8.319  70.994  1.00  0.00    -0.046 C  
BRANCH  21  22
HETATM   22  C   UNL     1      -6.961   8.648  69.253  1.00  0.00    -0.058 C  
HETATM   23  CA  UNL     1      -8.338   8.353  67.951  1.00  0.00    -0.131 C  
HETATM   24  C   UNL     1      -9.232  10.062  66.270  1.00  0.00    -0.162 C  
HETATM   25  C   UNL     1      -5.348   9.512  68.827  1.00  0.00    -0.037 C  
HETATM   26  C   UNL     1      -9.993   7.401  68.019  1.00  0.00    -0.164 C  
HETATM   27  N   UNL     1      -8.366   8.963  66.429  1.00  0.00    -0.113 N  
HETATM   28  O   UNL     1     -10.255  10.432  66.830  1.00  0.00    -0.209 OA 
HETATM   29  S   UNL     1      -5.178  10.289  66.723  1.00  0.00    -0.042 SA 
HETATM   30  C   UNL     1      -7.144   9.785  65.738  1.00  0.00    -0.104 C  
HETATM   31  O   UNL     1     -10.015   6.336  68.719  1.00  0.00    -0.139 OA 
HETATM   32  OXT UNL     1     -10.817   7.828  67.171  1.00  0.00    -0.313 OA 
HETATM   33  CA  UNL     1      -8.161  10.994  65.691  1.00  0.00    -0.026 C  
BRANCH  33  34
HETATM   34  N   UNL     1      -7.947  12.216  66.538  1.00  0.00    -0.393 N  
HETATM   35  C   UNL     1      -8.841  12.986  67.296  1.00  0.00    -0.208 C  
HETATM   36  H   UNL     1      -6.982  12.545  66.565  1.00  0.00     0.000 HD 
HETATM   37  O   UNL     1      -8.314  13.918  67.904  1.00  0.00    -0.143 OA 
BRANCH  35  38
HETATM   38  C   UNL     1     -10.408  12.757  67.461  1.00  0.00    -0.219 C  
HETATM   39  C   UNL     1     -10.945  11.801  68.401  1.00  0.00    -0.231 C  
HETATM   40  C   UNL     1     -12.535   9.873  70.256  1.00  0.00     0.041 C  
HETATM   41  N   UNL     1      -9.720  11.300  69.367  1.00  0.00     0.138 NA 
HETATM   42  N   UNL     1     -13.419   9.475  71.220  1.00  0.00    -0.493 NA 
HETATM   43  H   UNL     1     -13.493  11.270  68.493  1.00  0.00     0.000 HD 
HETATM   44  S   UNL     1     -10.311   9.591  70.954  1.00  0.00    -0.271 SA 
HETATM   45  H1  UNL     1     -14.385   9.597  70.918  1.00  0.00     0.000 HD 
HETATM   46  H2  UNL     1     -13.146   9.102  72.129  1.00  0.00     0.000 HD 
HETATM   47  N   UNL     1     -12.612  11.025  68.944  1.00  0.00    -0.192 NA 
BRANCH  38  48
HETATM   48  N   UNL     1     -11.331  13.476  66.923  1.00  0.00    -0.315 NA 
HETATM   49  H   UNL     1     -12.310  13.310  67.156  1.00  0.00     0.000 HD 
BRANCH  48  50
HETATM   50  O   UNL     1     -10.993  14.458  66.042  1.00  0.00    -0.305 OA 
HETATM   51  O   UNL     1     -12.533  13.369  63.044  1.00  0.00    -0.667 OA 
HETATM   52  C   UNL     1     -11.731  13.646  63.927  1.00  0.00    -0.320 C  
HETATM   53  C   UNL     1     -11.905  15.998  64.532  1.00  0.00    -0.027 C  
HETATM   54  C   UNL     1     -13.510  14.010  65.454  1.00  0.00     0.588 C  
HETATM   55  C   UNL     1     -12.072  14.575  65.079  1.00  0.00    -0.389 C  
HETATM   56  O   UNL     1     -10.477  13.154  63.953  1.00  0.00    -0.351 OA 
ENDBRANCH  48  50
ENDBRANCH  38  48
ENDBRANCH  35  38
ENDBRANCH  33  34
ENDBRANCH  21  22
ENDBRANCH   9  21
TORSDOF 11
ENDMDL
MODEL      104
REMARK 921   NORMALIZED FREE ENERGY PREDICTED BY IDOCK:   -0.31 KCAL/MOL
REMARK 922        TOTAL FREE ENERGY PREDICTED BY IDOCK:   -4.30 KCAL/MOL
REMARK 923 INTER-LIGAND FREE ENERGY PREDICTED BY IDOCK:   -7.47 KCAL/MOL
REMARK 924 INTRA-LIGAND FREE ENERGY PREDICTED BY IDOCK:    3.17 KCAL/MOL
REMARK 927      BINDING AFFINITY PREDICTED BY RF-SCORE:    0.00 PKD
ROOT
HETATM    1  C   UNL     1     -13.538  11.468  72.149  1.00  0.00     0.001 C  
HETATM    2  N   UNL     1     -12.867  10.235  71.791  1.00  0.00    -0.443 NA 
HETATM    3  C   UNL     1     -12.918   9.068  72.535  1.00  0.00    -0.361 A  
HETATM    4  C   UNL     1     -11.699   8.362  72.428  1.00  0.00    -0.382 A  
HETATM    5  N   UNL     1     -13.957   8.656  73.301  1.00  0.00    -0.977 NA 
HETATM    6  C   UNL     1     -10.909   9.257  71.618  1.00  0.00    -0.348 A  
HETATM    7  H2  UNL     1     -14.777   9.261  73.333  1.00  0.00     0.000 HD 
HETATM    8  H1  UNL     1     -13.995   7.796  73.848  1.00  0.00     0.000 HD 
HETATM    9  N   UNL     1     -11.788  10.176  70.984  1.00  0.00    -0.357 NA 
ENDROOT
BRANCH   4  10
HETATM   10  N   UNL     1     -11.485   7.191  73.133  1.00  0.00    -0.551 N  
HETATM   11  H   UNL     1     -11.522   7.254  74.151  1.00  0.00     0.000 HD 
BRANCH  10  12
HETATM   12  C   UNL     1     -11.230   5.963  72.605  1.00  0.00    -0.291 C  
HETATM   13  O   UNL     1     -10.847   5.060  73.338  1.00  0.00    -0.244 OA 
BRANCH  12  14
HETATM   14  N   UNL     1     -11.270   5.899  71.245  1.00  0.00    -0.251 N  
HETATM   15  H   UNL     1     -12.137   6.092  70.744  1.00  0.00     0.000 HD 
BRANCH  14  16
HETATM   16  C   UNL     1     -10.062   5.552  70.515  1.00  0.00    -0.226 C  
BRANCH  16  17
HETATM   17  C   UNL     1     -10.279   4.397  69.530  1.00  0.00     0.187 C  
HETATM   18  H2  UNL     1      -8.273   4.238  69.070  1.00  0.00     0.000 HD 
HETATM   19  N   UNL     1      -9.170   4.313  68.591  1.00  0.00    -0.130 NA 
HETATM   20  H1  UNL     1      -9.315   3.544  67.936  1.00  0.00     0.000 HD 
ENDBRANCH  16  17
ENDBRANCH  14  16
ENDBRANCH  12  14
ENDBRANCH  10  12
ENDBRANCH   4  10
BRANCH   9  21
HETATM   21  C   UNL     1     -11.621  11.119  69.838  1.00  0.00    -0.337 C  
BRANCH  21  22
HETATM   22  C   UNL     1     -10.099  11.108  68.928  1.00  0.00    -0.199 C  
HETATM   23  CA  UNL     1      -9.556  11.985  67.311  1.00  0.00    -0.183 C  
HETATM   24  C   UNL     1      -7.413  13.338  66.961  1.00  0.00     0.220 C  
HETATM   25  C   UNL     1      -8.919  10.055  69.942  1.00  0.00    -0.178 C  
HETATM   26  C   UNL     1     -10.522  12.983  65.999  1.00  0.00    -0.279 C  
HETATM   27  N   UNL     1      -8.021  12.087  66.744  1.00  0.00    -0.111 N  
HETATM   28  O   UNL     1      -7.831  14.481  67.088  1.00  0.00    -0.191 OA 
HETATM   29  S   UNL     1      -6.794   9.983  69.209  1.00  0.00    -0.066 SA 
HETATM   30  C   UNL     1      -6.741  11.317  67.390  1.00  0.00    -0.085 C  
HETATM   31  O   UNL     1     -11.708  12.595  65.741  1.00  0.00    -0.373 OA 
HETATM   32  OXT UNL     1      -9.779  13.783  65.376  1.00  0.00    -0.182 OA 
HETATM   33  CA  UNL     1      -6.185  12.767  67.681  1.00  0.00    -0.153 C  
BRANCH  33  34
HETATM   34  N   UNL     1      -6.056  13.278  69.087  1.00  0.00    -0.088 N  
HETATM   35  C   UNL     1      -6.508  14.462  69.689  1.00  0.00    -0.145 C  
HETATM   36  H   UNL     1      -5.551  12.654  69.717  1.00  0.00     0.000 HD 
HETATM   37  O   UNL     1      -6.253  14.547  70.890  1.00  0.00    -0.172 OA 
BRANCH  35  38
HETATM   38  C   UNL     1      -7.314  15.646  68.994  1.00  0.00    -0.169 C  
HETATM   39  C   UNL     1      -8.758  15.693  69.000  1.00  0.00    -0.240 C  
HETATM   40  C   UNL     1     -11.820  16.198  68.752  1.00  0.00    -0.126 C  
HETATM   41  N   UNL     1      -9.296  14.547  70.040  1.00  0.00     0.707 NA 
HETATM   42  N   UNL     1     -13.018  16.841  68.887  1.00  0.00     1.629 NA 
HETATM   43  H   UNL     1     -10.065  17.506  67.663  1.00  0.00     0.000 HD 
HETATM   44  S   UNL     1     -11.688  14.314  70.147  1.00  0.00    -0.273 SA 
HETATM   45  H1  UNL     1     -13.076  17.659  68.281  1.00  0.00     0.000 HD 
HETATM   46  H2  UNL     1     -13.763  16.540  69.515  1.00  0.00     0.000 HD 
HETATM   47  N   UNL     1     -10.216  16.711  68.283  1.00  0.00    -0.267 NA 
BRANCH  38  48
HETATM   48  N   UNL     1      -6.799  16.725  68.517  1.00  0.00    -0.157 NA 
HETATM   49  H   UNL     1      -5.809  16.925  68.655  1.00  0.00     0.000 HD 
BRANCH  48  50
HETATM   50  O   UNL     1      -7.584  17.598  67.826  1.00  0.00    -0.199 OA 
HETATM   51  O   UNL     1      -5.987  20.704  68.414  1.00  0.00    -0.287 OA 
HETATM   52  C   UNL     1      -6.755  19.751  68.422  1.00  0.00    -0.289 C  
HETATM   53  C   UNL     1      -7.518  19.248  66.165  1.00  0.00    -0.294 C  
HETATM   54  C   UNL     1      -5.166  18.436  67.253  1.00  0.00    -0.140 C  
HETATM   55  C   UNL     1      -6.734  18.674  67.352  1.00  0.00    -0.202 C  
HETATM   56  O   UNL     1      -7.688  19.576  69.379  1.00  0.00    -0.267 OA 
ENDBRANCH  48  50
ENDBRANCH  38  48
ENDBRANCH  35  38
ENDBRANCH  33  34
ENDBRANCH  21  22
ENDBRANCH   9  21
TORSDOF 11
ENDMDL
MODEL      105
REMARK 921   NORMALIZED FREE ENERGY PREDICTED BY IDOCK:    0.24 KCAL/MOL
REMARK 922        TOTAL FREE ENERGY PREDICTED BY IDOCK:   -3.39 KCAL/MOL
REMARK 923 INTER-LIGAND FREE ENERGY PREDICTED BY IDOCK:   -5.94 KCAL/MOL
REMARK 924 INTRA-LIGAND FREE ENERGY PREDICTED BY IDOCK:    2.55 KCAL/MOL
REMARK 927      BINDING AFFINITY PREDICTED BY RF-SCORE:    0.00 PKD
ROOT
HETATM    1  C   UNL     1     -10.997   5.871  67.218  1.00  0.00    -0.178 C  
HETATM    2  N   UNL     1      -9.784   5.560  66.489  1.00  0.00    -0.154 NA 
HETATM    3  C   UNL     1      -9.230   4.294  66.389  1.00  0.00    -0.147 A  
HETATM    4  C   UNL     1      -7.821   4.376  66.329  1.00  0.00    -0.095 A  
HETATM    5  N   UNL     1      -9.913   3.123  66.391  1.00  0.00    -0.219 NA 
HETATM    6  C   UNL     1      -7.602   5.794  66.478  1.00  0.00    -0.091 A  
HETATM    7  H2  UNL     1     -10.928   3.179  66.474  1.00  0.00     0.000 HD 
HETATM    8  H1  UNL     1      -9.505   2.192  66.317  1.00  0.00     0.000 HD 
HETATM    9  N   UNL     1      -8.825   6.465  66.207  1.00  0.00    -0.142 NA 
ENDROOT
BRANCH   4  10
HETATM   10  N   UNL     1      -7.039   3.236  66.287  1.00  0.00    -0.061 N  
HETATM   11  H   UNL     1      -7.351   2.444  66.848  1.00  0.00     0.000 HD 
BRANCH  10  12
HETATM   12  C   UNL     1      -5.894   3.067  65.572  1.00  0.00    -0.019 C  
HETATM   13  O   UNL     1      -5.208   2.069  65.761  1.00  0.00    -0.004 OA 
BRANCH  12  14
HETATM   14  N   UNL     1      -5.523   4.134  64.811  1.00  0.00    -0.013 N  
HETATM   15  H   UNL     1      -5.363   5.044  65.242  1.00  0.00     0.000 HD 
BRANCH  14  16
HETATM   16  C   UNL     1      -5.359   3.960  63.377  1.00  0.00    -0.009 C  
BRANCH  16  17
HETATM   17  C   UNL     1      -5.523   5.273  62.602  1.00  0.00    -0.013 C  
HETATM   18  H2  UNL     1      -6.081   6.344  64.277  1.00  0.00     0.000 HD 
HETATM   19  N   UNL     1      -6.402   6.183  63.322  1.00  0.00    -0.025 NA 
HETATM   20  H1  UNL     1      -6.511   7.056  62.806  1.00  0.00     0.000 HD 
ENDBRANCH  16  17
ENDBRANCH  14  16
ENDBRANCH  12  14
ENDBRANCH  10  12
ENDBRANCH   4  10
BRANCH   9  21
HETATM   21  C   UNL     1      -9.162   7.890  65.918  1.00  0.00    -0.042 C  
BRANCH  21  22
HETATM   22  C   UNL     1      -9.088   9.078  67.233  1.00  0.00    -0.151 C  
HETATM   23  CA  UNL     1      -7.945  10.585  67.549  1.00  0.00    -0.107 C  
HETATM   24  C   UNL     1      -8.689  12.955  68.163  1.00  0.00    -0.190 C  
HETATM   25  C   UNL     1     -10.519   8.650  68.373  1.00  0.00    -0.220 C  
HETATM   26  C   UNL     1      -6.352  11.198  66.688  1.00  0.00    -0.134 C  
HETATM   27  N   UNL     1      -8.181  11.748  68.680  1.00  0.00    -0.128 N  
HETATM   28  O   UNL     1      -8.625  13.513  67.075  1.00  0.00    -0.208 OA 
HETATM   29  S   UNL     1     -10.887  10.085  70.065  1.00  0.00    -0.321 SA 
HETATM   30  C   UNL     1      -9.343  11.711  69.818  1.00  0.00     1.620 C  
HETATM   31  O   UNL     1      -5.552  10.304  66.259  1.00  0.00    -0.049 OA 
HETATM   32  OXT UNL     1      -6.176  12.432  66.848  1.00  0.00    -0.210 OA 
HETATM   33  CA  UNL     1      -9.894  13.010  69.108  1.00  0.00     0.456 C  
BRANCH  33  34
HETATM   34  N   UNL     1     -11.203  12.991  68.370  1.00  0.00    -0.251 N  
HETATM   35  C   UNL     1     -11.579  13.540  67.136  1.00  0.00    -0.357 C  
HETATM   36  H   UNL     1     -11.950  12.490  68.852  1.00  0.00     0.000 HD 
HETATM   37  O   UNL     1     -12.742  13.303  66.812  1.00  0.00    -0.115 OA 
BRANCH  35  38
HETATM   38  C   UNL     1     -10.666  14.384  66.141  1.00  0.00    -0.304 C  
HETATM   39  C   UNL     1     -10.281  15.746  66.427  1.00  0.00    -0.293 C  
HETATM   40  C   UNL     1      -9.227  18.669  66.618  1.00  0.00    -0.321 C  
HETATM   41  N   UNL     1     -10.690  16.070  67.981  1.00  0.00    -0.298 NA 
HETATM   42  N   UNL     1      -8.326  19.696  66.672  1.00  0.00    -0.305 NA 
HETATM   43  H   UNL     1      -8.987  17.188  64.687  1.00  0.00     0.000 HD 
HETATM   44  S   UNL     1     -10.278  18.331  68.690  1.00  0.00    -0.288 SA 
HETATM   45  H1  UNL     1      -7.870  19.843  65.772  1.00  0.00     0.000 HD 
HETATM   46  H2  UNL     1      -8.135  20.247  67.508  1.00  0.00     0.000 HD 
HETATM   47  N   UNL     1      -9.368  17.233  65.632  1.00  0.00    -0.410 NA 
BRANCH  38  48
HETATM   48  N   UNL     1     -10.063  13.921  65.101  1.00  0.00    -0.543 NA 
HETATM   49  H   UNL     1      -9.048  13.822  65.100  1.00  0.00     0.000 HD 
BRANCH  48  50
HETATM   50  O   UNL     1     -10.788  13.564  64.005  1.00  0.00    -0.308 OA 
HETATM   51  O   UNL     1      -9.639  10.277  63.358  1.00  0.00    -0.301 OA 
HETATM   52  C   UNL     1      -9.854  11.482  63.321  1.00  0.00    -0.409 C  
HETATM   53  C   UNL     1     -12.245  11.921  63.192  1.00  0.00    -0.340 C  
HETATM   54  C   UNL     1     -10.860  11.387  65.466  1.00  0.00    -0.282 C  
HETATM   55  C   UNL     1     -11.005  12.131  64.069  1.00  0.00    -0.380 C  
HETATM   56  O   UNL     1      -9.090  12.336  62.612  1.00  0.00     0.419 OA 
ENDBRANCH  48  50
ENDBRANCH  38  48
ENDBRANCH  35  38
ENDBRANCH  33  34
ENDBRANCH  21  22
ENDBRANCH   9  21
TORSDOF 11
ENDMDL
MODEL      106
REMARK 921   NORMALIZED FREE ENERGY PREDICTED BY IDOCK:    0.25 KCAL/MOL
REMARK 922        TOTAL FREE ENERGY PREDICTED BY IDOCK:   -3.37 KCAL/MOL
REMARK 923 INTER-LIGAND FREE ENERGY PREDICTED BY IDOCK:   -7.90 KCAL/MOL
REMARK 924 INTRA-LIGAND FREE ENERGY PREDICTED BY IDOCK:    4.53 KCAL/MOL
REMARK 927      BINDING AFFINITY PREDICTED BY RF-SCORE:    0.00 PKD
ROOT
HETATM    1  C   UNL     1     -12.227  11.537  67.758  1.00  0.00     0.512 C  
HETATM    2  N   UNL     1     -11.136  12.479  67.607  1.00  0.00    -0.245 NA 
HETATM    3  C   UNL     1     -11.201  13.643  66.859  1.00  0.00    -0.312 A  
HETATM    4  C   UNL     1      -9.943  13.928  66.282  1.00  0.00    -0.306 A  
HETATM    5  N   UNL     1     -12.307  14.399  66.655  1.00  0.00    -0.518 NA 
HETATM    6  C   UNL     1      -9.162  12.789  66.698  1.00  0.00    -0.212 A  
HETATM    7  H2  UNL     1     -13.172  14.081  67.092  1.00  0.00     0.000 HD 
HETATM    8  H1  UNL     1     -12.355  15.255  66.104  1.00  0.00     0.000 HD 
HETATM    9  N   UNL     1      -9.838  12.156  67.777  1.00  0.00    -0.194 NA 
ENDROOT
BRANCH   4  10
HETATM   10  N   UNL     1      -9.772  15.011  65.438  1.00  0.00    -0.421 N  
HETATM   11  H   UNL     1      -9.061  14.920  64.712  1.00  0.00     0.000 HD 
BRANCH  10  12
HETATM   12  C   UNL     1     -10.457  16.186  65.481  1.00  0.00    -0.386 C  
HETATM   13  O   UNL     1     -11.178  16.496  64.541  1.00  0.00    -0.775 OA 
BRANCH  12  14
HETATM   14  N   UNL     1     -10.140  17.003  66.523  1.00  0.00    -0.302 N  
HETATM   15  H   UNL     1     -10.874  17.405  67.106  1.00  0.00     0.000 HD 
BRANCH  14  16
HETATM   16  C   UNL     1      -8.742  17.298  66.794  1.00  0.00    -0.251 C  
BRANCH  16  17
HETATM   17  C   UNL     1      -8.481  18.798  66.975  1.00  0.00    -0.281 C  
HETATM   18  H2  UNL     1     -10.089  19.353  65.806  1.00  0.00     0.000 HD 
HETATM   19  N   UNL     1      -9.093  19.556  65.894  1.00  0.00    -0.400 NA 
HETATM   20  H1  UNL     1      -8.920  20.554  66.015  1.00  0.00     0.000 HD 
ENDBRANCH  16  17
ENDBRANCH  14  16
ENDBRANCH  12  14
ENDBRANCH  10  12
ENDBRANCH   4  10
BRANCH   9  21
HETATM   21  C   UNL     1      -9.413  11.147  68.792  1.00  0.00    -0.165 C  
BRANCH  21  22
HETATM   22  C   UNL     1     -10.535   9.847  69.236  1.00  0.00    -0.240 C  
HETATM   23  CA  UNL     1     -10.606   7.989  68.768  1.00  0.00    -0.118 C  
HETATM   24  C   UNL     1     -10.869   6.023  70.386  1.00  0.00    -0.318 C  
HETATM   25  C   UNL     1     -11.745  10.623  70.446  1.00  0.00    -0.446 C  
HETATM   26  C   UNL     1      -9.643   6.942  67.492  1.00  0.00    -0.128 C  
HETATM   27  N   UNL     1     -11.554   6.856  69.481  1.00  0.00    -0.109 N  
HETATM   28  O   UNL     1      -9.709   5.646  70.490  1.00  0.00    -0.167 OA 
HETATM   29  S   UNL     1     -13.208   9.212  71.408  1.00  0.00    -0.260 SA 
HETATM   30  C   UNL     1     -12.701   7.172  70.591  1.00  0.00     0.041 C  
HETATM   31  O   UNL     1      -9.341   7.512  66.393  1.00  0.00    -0.174 OA 
HETATM   32  OXT UNL     1      -9.614   5.725  67.807  1.00  0.00    -0.111 OA 
HETATM   33  CA  UNL     1     -11.811   6.300  71.563  1.00  0.00    -0.230 C  
BRANCH  33  34
HETATM   34  N   UNL     1     -11.102   6.925  72.731  1.00  0.00    -0.313 N  
HETATM   35  C   UNL     1      -9.737   7.097  73.002  1.00  0.00    -0.179 C  
HETATM   36  H   UNL     1     -11.723   7.288  73.454  1.00  0.00     0.000 HD 
HETATM   37  O   UNL     1      -9.503   7.689  74.055  1.00  0.00    -0.249 OA 
BRANCH  35  38
HETATM   38  C   UNL     1      -8.511   6.641  72.094  1.00  0.00    -0.112 C  
HETATM   39  C   UNL     1      -7.911   5.334  72.223  1.00  0.00    -0.102 C  
HETATM   40  C   UNL     1      -6.313   2.663  72.155  1.00  0.00    -0.014 C  
HETATM   41  N   UNL     1      -8.878   4.426  73.184  1.00  0.00    -0.107 NA 
HETATM   42  N   UNL     1      -5.784   1.509  71.648  1.00  0.00    -0.008 NA 
HETATM   43  H   UNL     1      -5.764   4.687  70.897  1.00  0.00     0.000 HD 
HETATM   44  S   UNL     1      -8.044   2.225  73.678  1.00  0.00    -0.055 SA 
HETATM   45  H1  UNL     1      -5.031   1.700  70.986  1.00  0.00     0.000 HD 
HETATM   46  H2  UNL     1      -6.102   0.574  71.900  1.00  0.00     0.000 HD 
HETATM   47  N   UNL     1      -6.437   4.302  71.560  1.00  0.00    -0.018 NA 
BRANCH  38  48
HETATM   48  N   UNL     1      -8.045   7.288  71.083  1.00  0.00    -0.102 NA 
HETATM   49  H   UNL     1      -7.662   6.783  70.284  1.00  0.00     0.000 HD 
BRANCH  48  50
HETATM   50  O   UNL     1      -8.068   8.650  71.086  1.00  0.00    -0.118 OA 
HETATM   51  O   UNL     1      -5.194   9.464  72.991  1.00  0.00    -0.084 OA 
HETATM   52  C   UNL     1      -6.341   9.274  72.605  1.00  0.00     0.318 C  
HETATM   53  C   UNL     1      -6.777  10.534  70.567  1.00  0.00     0.024 C  
HETATM   54  C   UNL     1      -5.528   8.126  70.696  1.00  0.00    -0.025 C  
HETATM   55  C   UNL     1      -6.694   9.112  71.136  1.00  0.00    -0.090 C  
HETATM   56  O   UNL     1      -7.389   9.195  73.448  1.00  0.00    -0.150 OA 
ENDBRANCH  48  50
ENDBRANCH  38  48
ENDBRANCH  35  38
ENDBRANCH  33  34
ENDBRANCH  21  22
ENDBRANCH   9  21
TORSDOF 11
ENDMDL
MODEL      107
REMARK 921   NORMALIZED FREE ENERGY PREDICTED BY IDOCK:    0.39 KCAL/MOL
REMARK 922        TOTAL FREE ENERGY PREDICTED BY IDOCK:   -3.15 KCAL/MOL
REMARK 923 INTER-LIGAND FREE ENERGY PREDICTED BY IDOCK:   -4.34 KCAL/MOL
REMARK 924 INTRA-LIGAND FREE ENERGY PREDICTED BY IDOCK:    1.19 KCAL/MOL
REMARK 927      BINDING AFFINITY PREDICTED BY RF-SCORE:    0.00 PKD
ROOT
HETATM    1  C   UNL     1     -12.503   5.754  70.877  1.00  0.00     1.858 C  
HETATM    2  N   UNL     1     -11.178   6.166  71.291  1.00  0.00    -0.292 NA 
HETATM    3  C   UNL     1     -10.657   5.981  72.561  1.00  0.00    -0.216 A  
HETATM    4  C   UNL     1      -9.791   7.045  72.898  1.00  0.00    -0.177 A  
HETATM    5  N   UNL     1     -10.951   4.960  73.401  1.00  0.00    -0.299 NA 
HETATM    6  C   UNL     1      -9.912   7.902  71.744  1.00  0.00    -0.177 A  
HETATM    7  H2  UNL     1     -11.617   4.263  73.068  1.00  0.00     0.000 HD 
HETATM    8  H1  UNL     1     -10.568   4.823  74.336  1.00  0.00     0.000 HD 
HETATM    9  N   UNL     1     -10.472   7.141  70.682  1.00  0.00    -0.208 NA 
ENDROOT
BRANCH   4  10
HETATM   10  N   UNL     1      -9.195   7.116  74.145  1.00  0.00    -0.240 N  
HETATM   11  H   UNL     1      -9.729   6.746  74.931  1.00  0.00     0.000 HD 
BRANCH  10  12
HETATM   12  C   UNL     1      -7.967   7.629  74.426  1.00  0.00    -0.203 C  
HETATM   13  O   UNL     1      -7.815   8.845  74.453  1.00  0.00    -0.378 OA 
BRANCH  12  14
HETATM   14  N   UNL     1      -6.959   6.717  74.492  1.00  0.00    -0.092 N  
HETATM   15  H   UNL     1      -6.237   6.796  75.209  1.00  0.00     0.000 HD 
BRANCH  14  16
HETATM   16  C   UNL     1      -6.922   5.628  73.530  1.00  0.00    -0.085 C  
BRANCH  16  17
HETATM   17  C   UNL     1      -6.493   6.091  72.132  1.00  0.00    -0.058 C  
HETATM   18  H2  UNL     1      -4.533   6.411  72.697  1.00  0.00     0.000 HD 
HETATM   19  N   UNL     1      -5.286   6.900  72.212  1.00  0.00    -0.035 NA 
HETATM   20  H1  UNL     1      -4.999   7.208  71.283  1.00  0.00     0.000 HD 
ENDBRANCH  16  17
ENDBRANCH  14  16
ENDBRANCH  12  14
ENDBRANCH  10  12
ENDBRANCH   4  10
BRANCH   9  21
HETATM   21  C   UNL     1     -10.566   7.366  69.209  1.00  0.00    -0.213 C  
BRANCH  21  22
HETATM   22  C   UNL     1      -9.559   8.621  68.462  1.00  0.00    -0.162 C  
HETATM   23  CA  UNL     1      -8.919   8.865  66.671  1.00  0.00    -0.136 C  
HETATM   24  C   UNL     1      -9.077  11.007  65.280  1.00  0.00    -0.189 C  
HETATM   25  C   UNL     1      -9.238   9.877  69.822  1.00  0.00    -0.252 C  
HETATM   26  C   UNL     1      -8.945   7.739  65.127  1.00  0.00     0.296 C  
HETATM   27  N   UNL     1      -8.221  10.226  66.079  1.00  0.00    -0.135 N  
HETATM   28  O   UNL     1     -10.052  10.764  64.580  1.00  0.00    -0.297 OA 
HETATM   29  S   UNL     1      -8.160  11.748  69.191  1.00  0.00     0.375 SA 
HETATM   30  C   UNL     1      -7.819  11.525  66.973  1.00  0.00    -0.161 C  
HETATM   31  O   UNL     1      -8.797   6.490  65.326  1.00  0.00    -0.029 OA 
HETATM   32  OXT UNL     1      -8.885   8.402  64.061  1.00  0.00     0.126 OA 
HETATM   33  CA  UNL     1      -8.874  12.296  66.085  1.00  0.00     0.067 C  
BRANCH  33  34
HETATM   34  N   UNL     1     -10.155  12.809  66.679  1.00  0.00    -0.239 N  
HETATM   35  C   UNL     1     -10.545  14.098  67.071  1.00  0.00    -0.276 C  
HETATM   36  H   UNL     1     -10.868  12.093  66.823  1.00  0.00     0.000 HD 
HETATM   37  O   UNL     1     -11.697  14.169  67.496  1.00  0.00    -0.344 OA 
BRANCH  35  38
HETATM   38  C   UNL     1      -9.676  15.430  66.992  1.00  0.00    -0.224 C  
HETATM   39  C   UNL     1      -8.661  15.739  67.972  1.00  0.00    -0.171 C  
HETATM   40  C   UNL     1      -6.409  16.813  69.834  1.00  0.00    -0.085 C  
HETATM   41  N   UNL     1      -8.423  14.403  68.890  1.00  0.00    -0.115 NA 
HETATM   42  N   UNL     1      -5.172  17.256  70.209  1.00  0.00    -0.215 NA 
HETATM   43  H   UNL     1      -7.414  18.025  67.963  1.00  0.00     0.000 HD 
HETATM   44  S   UNL     1      -6.864  14.679  70.701  1.00  0.00     0.547 SA 
HETATM   45  H1  UNL     1      -4.974  18.183  69.833  1.00  0.00     0.000 HD 
HETATM   46  H2  UNL     1      -4.527  16.725  70.794  1.00  0.00     0.000 HD 
HETATM   47  N   UNL     1      -7.450  17.140  68.467  1.00  0.00    -0.227 NA 
BRANCH  38  48
HETATM   48  N   UNL     1      -9.665  16.261  66.008  1.00  0.00    -0.325 NA 
HETATM   49  H   UNL     1      -8.893  16.257  65.342  1.00  0.00     0.000 HD 
BRANCH  48  50
HETATM   50  O   UNL     1     -10.691  17.145  65.862  1.00  0.00    -0.270 OA 
HETATM   51  O   UNL     1      -9.852  19.690  68.178  1.00  0.00    -0.369 OA 
HETATM   52  C   UNL     1     -10.364  18.737  67.604  1.00  0.00    -0.420 C  
HETATM   53  C   UNL     1     -11.159  19.392  65.398  1.00  0.00     0.273 C  
HETATM   54  C   UNL     1      -8.601  18.722  66.017  1.00  0.00    -0.037 C  
HETATM   55  C   UNL     1     -10.168  18.473  66.121  1.00  0.00    -0.398 C  
HETATM   56  O   UNL     1     -11.146  17.841  68.237  1.00  0.00    -0.135 OA 
ENDBRANCH  48  50
ENDBRANCH  38  48
ENDBRANCH  35  38
ENDBRANCH  33  34
ENDBRANCH  21  22
ENDBRANCH   9  21
TORSDOF 11
ENDMDL
MODEL      108
REMARK 921   NORMALIZED FREE ENERGY PREDICTED BY IDOCK:    0.48 KCAL/MOL
REMARK 922        TOTAL FREE ENERGY PREDICTED BY IDOCK:   -3.00 KCAL/MOL
REMARK 923 INTER-LIGAND FREE ENERGY PREDICTED BY IDOCK:   -2.14 KCAL/MOL
REMARK 924 INTRA-LIGAND FREE ENERGY PREDICTED BY IDOCK:   -0.86 KCAL/MOL
REMARK 927      BINDING AFFINITY PREDICTED BY RF-SCORE:    0.00 PKD
ROOT
HETATM    1  C   UNL     1      -6.523   9.037  62.508  1.00  0.00    -0.094 C  
HETATM    2  N   UNL     1      -7.224   8.486  63.650  1.00  0.00    -0.092 NA 
HETATM    3  C   UNL     1      -6.750   7.452  64.440  1.00  0.00    -0.047 A  
HETATM    4  C   UNL     1      -7.822   6.663  64.914  1.00  0.00    -0.115 A  
HETATM    5  N   UNL     1      -5.449   7.184  64.704  1.00  0.00    -0.032 NA 
HETATM    6  C   UNL     1      -8.953   7.284  64.269  1.00  0.00     1.092 A  
HETATM    7  H2  UNL     1      -4.754   7.799  64.282  1.00  0.00     0.000 HD 
HETATM    8  H1  UNL     1      -5.099   6.422  65.286  1.00  0.00     0.000 HD 
HETATM    9  N   UNL     1      -8.559   8.574  63.824  1.00  0.00    -0.017 NA 
ENDROOT
BRANCH   4  10
HETATM   10  N   UNL     1      -7.595   5.531  65.676  1.00  0.00    -0.081 N  
HETATM   11  H   UNL     1      -6.890   4.879  65.333  1.00  0.00     0.000 HD 
BRANCH  10  12
HETATM   12  C   UNL     1      -8.219   5.200  66.839  1.00  0.00    -0.108 C  
HETATM   13  O   UNL     1      -7.989   4.115  67.359  1.00  0.00    -0.091 OA 
BRANCH  12  14
HETATM   14  N   UNL     1      -9.193   6.065  67.239  1.00  0.00    -0.114 N  
HETATM   15  H   UNL     1     -10.036   6.188  66.679  1.00  0.00     0.000 HD 
BRANCH  14  16
HETATM   16  C   UNL     1      -9.016   6.810  68.475  1.00  0.00    -0.121 C  
BRANCH  16  17
HETATM   17  C   UNL     1      -7.547   7.152  68.752  1.00  0.00    -0.108 C  
HETATM   18  H2  UNL     1      -7.893   9.188  68.789  1.00  0.00     0.000 HD 
HETATM   19  N   UNL     1      -7.258   8.520  68.349  1.00  0.00    -0.084 NA 
HETATM   20  H1  UNL     1      -6.281   8.749  68.533  1.00  0.00     0.000 HD 
ENDBRANCH  16  17
ENDBRANCH  14  16
ENDBRANCH  12  14
ENDBRANCH  10  12
ENDBRANCH   4  10
BRANCH   9  21
HETATM   21  C   UNL     1      -9.325   9.773  63.370  1.00  0.00    -0.079 C  
BRANCH  21  22
HETATM   22  C   UNL     1      -9.463  11.169  64.454  1.00  0.00    -0.251 C  
HETATM   23  CA  UNL     1     -10.977  12.139  65.122  1.00  0.00    -0.310 C  
HETATM   24  C   UNL     1     -11.432  12.752  67.565  1.00  0.00    -0.336 C  
HETATM   25  C   UNL     1      -7.706  11.560  64.990  1.00  0.00     1.242 C  
HETATM   26  C   UNL     1     -12.836  12.093  64.681  1.00  0.00     0.079 C  
HETATM   27  N   UNL     1     -10.950  13.242  66.336  1.00  0.00    -0.287 N  
HETATM   28  O   UNL     1     -12.228  11.878  67.883  1.00  0.00    -0.508 OA 
HETATM   29  S   UNL     1      -7.494  13.158  66.560  1.00  0.00     1.630 SA 
HETATM   30  C   UNL     1      -9.600  13.799  67.052  1.00  0.00    -0.251 C  
HETATM   31  O   UNL     1     -13.130  11.891  63.457  1.00  0.00    -0.715 OA 
HETATM   32  OXT UNL     1     -13.555  12.493  65.631  1.00  0.00     1.159 OA 
HETATM   33  CA  UNL     1     -10.179  13.131  68.362  1.00  0.00    -0.247 C  
BRANCH  33  34
HETATM   34  N   UNL     1      -9.510  11.936  68.980  1.00  0.00    -0.397 N  
HETATM   35  C   UNL     1      -9.995  10.951  69.852  1.00  0.00     0.446 C  
HETATM   36  H   UNL     1      -8.530  11.822  68.720  1.00  0.00     0.000 HD 
HETATM   37  O   UNL     1      -9.171  10.083  70.141  1.00  0.00    -0.189 OA 
BRANCH  35  38
HETATM   38  C   UNL     1     -11.463  10.840  70.457  1.00  0.00    -0.275 C  
HETATM   39  C   UNL     1     -12.029   9.573  70.861  1.00  0.00    -0.295 C  
HETATM   40  C   UNL     1     -13.642   7.099  71.844  1.00  0.00    -0.190 C  
HETATM   41  N   UNL     1     -10.828   8.458  70.852  1.00  0.00    -0.225 NA 
HETATM   42  N   UNL     1     -14.343   6.294  72.697  1.00  0.00    -0.420 NA 
HETATM   43  H   UNL     1     -14.510   9.375  71.628  1.00  0.00     0.000 HD 
HETATM   44  S   UNL     1     -11.522   6.213  71.364  1.00  0.00    -0.202 SA 
HETATM   45  H1  UNL     1     -15.264   6.679  72.906  1.00  0.00     0.000 HD 
HETATM   46  H2  UNL     1     -13.988   5.417  73.079  1.00  0.00     0.000 HD 
HETATM   47  N   UNL     1     -13.669   8.813  71.498  1.00  0.00    -0.363 NA 
BRANCH  38  48
HETATM   48  N   UNL     1     -12.215  11.831  70.790  1.00  0.00    -0.371 NA 
HETATM   49  H   UNL     1     -13.211  11.816  70.570  1.00  0.00     0.000 HD 
BRANCH  48  50
HETATM   50  O   UNL     1     -11.671  12.900  71.436  1.00  0.00     0.803 OA 
HETATM   51  O   UNL     1     -14.205  15.356  71.130  1.00  0.00    -0.493 OA 
HETATM   52  C   UNL     1     -13.184  14.691  71.010  1.00  0.00    -0.374 C  
HETATM   53  C   UNL     1     -12.073  14.433  73.161  1.00  0.00     0.017 C  
HETATM   54  C   UNL     1     -14.157  12.935  72.273  1.00  0.00    -0.205 C  
HETATM   55  C   UNL     1     -12.759  13.652  72.033  1.00  0.00    -0.197 C  
HETATM   56  O   UNL     1     -12.348  14.824  69.962  1.00  0.00    -0.325 OA 
ENDBRANCH  48  50
ENDBRANCH  38  48
ENDBRANCH  35  38
ENDBRANCH  33  34
ENDBRANCH  21  22
ENDBRANCH   9  21
TORSDOF 11
ENDMDL
MODEL      109
REMARK 921   NORMALIZED FREE ENERGY PREDICTED BY IDOCK:    0.58 KCAL/MOL
REMARK 922        TOTAL FREE ENERGY PREDICTED BY IDOCK:   -2.83 KCAL/MOL
REMARK 923 INTER-LIGAND FREE ENERGY PREDICTED BY IDOCK:   -3.54 KCAL/MOL
REMARK 924 INTRA-LIGAND FREE ENERGY PREDICTED BY IDOCK:    0.70 KCAL/MOL
REMARK 927      BINDING AFFINITY PREDICTED BY RF-SCORE:    0.00 PKD
ROOT
HETATM    1  C   UNL     1      -7.403  13.891  69.123  1.00  0.00    -0.004 C  
HETATM    2  N   UNL     1      -8.051  13.411  67.920  1.00  0.00    -0.147 NA 
HETATM    3  C   UNL     1      -9.243  13.908  67.418  1.00  0.00    -0.224 A  
HETATM    4  C   UNL     1      -9.980  12.879  66.790  1.00  0.00    -0.243 A  
HETATM    5  N   UNL     1      -9.687  15.183  67.534  1.00  0.00    -0.205 NA 
HETATM    6  C   UNL     1      -9.148  11.727  67.037  1.00  0.00    -0.187 A  
HETATM    7  H2  UNL     1      -9.088  15.837  68.038  1.00  0.00     0.000 HD 
HETATM    8  H1  UNL     1     -10.564  15.549  67.164  1.00  0.00     0.000 HD 
HETATM    9  N   UNL     1      -7.851  12.183  67.399  1.00  0.00    -0.159 NA 
ENDROOT
BRANCH   4  10
HETATM   10  N   UNL     1     -11.237  13.118  66.263  1.00  0.00    -0.295 N  
HETATM   11  H   UNL     1     -11.872  13.682  66.827  1.00  0.00     0.000 HD 
BRANCH  10  12
HETATM   12  C   UNL     1     -11.710  12.674  65.067  1.00  0.00    -0.359 C  
HETATM   13  O   UNL     1     -12.727  11.991  65.039  1.00  0.00    -0.381 OA 
BRANCH  12  14
HETATM   14  N   UNL     1     -10.894  12.901  64.001  1.00  0.00    -0.409 N  
HETATM   15  H   UNL     1     -10.377  13.776  63.925  1.00  0.00     0.000 HD 
BRANCH  14  16
HETATM   16  C   UNL     1     -10.769  11.881  62.973  1.00  0.00    -0.073 C  
BRANCH  16  17
HETATM   17  C   UNL     1     -10.175  10.572  63.510  1.00  0.00    -0.003 C  
HETATM   18  H2  UNL     1      -9.293  10.081  61.708  1.00  0.00     0.000 HD 
HETATM   19  N   UNL     1      -9.892   9.655  62.416  1.00  0.00    -0.485 NA 
HETATM   20  H1  UNL     1      -9.497   8.785  62.772  1.00  0.00     0.000 HD 
ENDBRANCH  16  17
ENDBRANCH  14  16
ENDBRANCH  12  14
ENDBRANCH  10  12
ENDBRANCH   4  10
BRANCH   9  21
HETATM   21  C   UNL     1      -6.522  11.509  67.483  1.00  0.00    -0.079 C  
BRANCH  21  22
HETATM   22  C   UNL     1      -6.345  10.081  68.520  1.00  0.00    -0.049 C  
HETATM   23  CA  UNL     1      -6.175   9.878  70.419  1.00  0.00    -0.094 C  
HETATM   24  C   UNL     1      -7.526   8.292  71.905  1.00  0.00    -0.098 C  
HETATM   25  C   UNL     1      -6.444   8.607  67.360  1.00  0.00    -0.058 C  
HETATM   26  C   UNL     1      -5.908  11.137  71.832  1.00  0.00     1.001 C  
HETATM   27  N   UNL     1      -6.293   8.468  71.248  1.00  0.00    -0.042 N  
HETATM   28  O   UNL     1      -8.367   9.054  72.362  1.00  0.00    -0.342 OA 
HETATM   29  S   UNL     1      -6.476   6.585  68.345  1.00  0.00    -0.051 SA 
HETATM   30  C   UNL     1      -6.413   6.998  70.562  1.00  0.00    -0.047 C  
HETATM   31  O   UNL     1      -5.164  12.140  71.574  1.00  0.00    -0.301 OA 
HETATM   32  OXT UNL     1      -6.327  10.704  72.935  1.00  0.00     1.485 OA 
HETATM   33  CA  UNL     1      -7.828   6.933  71.262  1.00  0.00    -0.097 C  
BRANCH  33  34
HETATM   34  N   UNL     1      -9.092   6.951  70.452  1.00  0.00    -0.156 N  
HETATM   35  C   UNL     1      -9.606   6.043  69.515  1.00  0.00    -0.143 C  
HETATM   36  H   UNL     1      -9.682   7.769  70.610  1.00  0.00     0.000 HD 
HETATM   37  O   UNL     1     -10.703   6.358  69.055  1.00  0.00    -0.226 OA 
BRANCH  35  38
HETATM   38  C   UNL     1      -8.939   4.680  69.032  1.00  0.00    -0.110 C  
HETATM   39  C   UNL     1      -9.195   4.127  67.722  1.00  0.00    -0.152 C  
HETATM   40  C   UNL     1      -9.460   2.573  65.038  1.00  0.00    -0.051 C  
HETATM   41  N   UNL     1      -9.985   5.261  66.841  1.00  0.00    -0.172 NA 
HETATM   42  N   UNL     1      -9.075   1.975  63.870  1.00  0.00    -0.098 NA 
HETATM   43  H   UNL     1      -8.286   1.786  67.033  1.00  0.00     0.000 HD 
HETATM   44  S   UNL     1     -10.657   4.553  64.643  1.00  0.00     0.202 SA 
HETATM   45  H1  UNL     1      -8.555   1.115  64.042  1.00  0.00     0.000 HD 
HETATM   46  H2  UNL     1      -9.283   2.344  62.943  1.00  0.00     0.000 HD 
HETATM   47  N   UNL     1      -8.824   2.570  66.666  1.00  0.00    -0.125 NA 
BRANCH  38  48
HETATM   48  N   UNL     1      -8.016   4.034  69.656  1.00  0.00    -0.055 NA 
HETATM   49  H   UNL     1      -7.115   4.475  69.837  1.00  0.00     0.000 HD 
BRANCH  48  50
HETATM   50  O   UNL     1      -8.251   2.759  70.072  1.00  0.00    -0.041 OA 
HETATM   51  O   UNL     1      -7.134   2.826  73.433  1.00  0.00    -0.037 OA 
HETATM   52  C   UNL     1      -7.243   2.637  72.228  1.00  0.00    -0.038 C  
HETATM   53  C   UNL     1      -9.344   1.513  71.726  1.00  0.00    -0.155 C  
HETATM   54  C   UNL     1      -9.041   4.181  72.129  1.00  0.00    -0.156 C  
HETATM   55  C   UNL     1      -8.559   2.808  71.489  1.00  0.00    -0.064 C  
HETATM   56  O   UNL     1      -6.208   2.257  71.453  1.00  0.00    -0.017 OA 
ENDBRANCH  48  50
ENDBRANCH  38  48
ENDBRANCH  35  38
ENDBRANCH  33  34
ENDBRANCH  21  22
ENDBRANCH   9  21
TORSDOF 11
ENDMDL
MODEL      110
REMARK 921   NORMALIZED FREE ENERGY PREDICTED BY IDOCK:    0.60 KCAL/MOL
REMARK 922        TOTAL FREE ENERGY PREDICTED BY IDOCK:   -2.80 KCAL/MOL
REMARK 923 INTER-LIGAND FREE ENERGY PREDICTED BY IDOCK:   -6.42 KCAL/MOL
REMARK 924 INTRA-LIGAND FREE ENERGY PREDICTED BY IDOCK:    3.62 KCAL/MOL
REMARK 927      BINDING AFFINITY PREDICTED BY RF-SCORE:    0.00 PKD
ROOT
HETATM    1  C   UNL     1      -5.258   7.815  68.301  1.00  0.00    -0.027 C  
HETATM    2  N   UNL     1      -6.442   7.160  68.819  1.00  0.00    -0.035 NA 
HETATM    3  C   UNL     1      -6.904   5.924  68.398  1.00  0.00    -0.066 A  
HETATM    4  C   UNL     1      -8.315   5.881  68.453  1.00  0.00    -0.112 A  
HETATM    5  N   UNL     1      -6.140   4.898  67.952  1.00  0.00    -0.026 NA 
HETATM    6  C   UNL     1      -8.636   7.224  68.869  1.00  0.00    -0.129 A  
HETATM    7  H2  UNL     1      -5.132   5.049  67.922  1.00  0.00     0.000 HD 
HETATM    8  H1  UNL     1      -6.480   3.988  67.642  1.00  0.00     0.000 HD 
HETATM    9  N   UNL     1      -7.462   7.814  69.412  1.00  0.00    -0.086 NA 
ENDROOT
BRANCH   4  10
HETATM   10  N   UNL     1      -9.014   4.767  68.023  1.00  0.00    -0.108 N  
HETATM   11  H   UNL     1      -8.963   3.936  68.612  1.00  0.00     0.000 HD 
BRANCH  10  12
HETATM   12  C   UNL     1      -9.763   4.670  66.891  1.00  0.00    -0.197 C  
HETATM   13  O   UNL     1     -10.340   5.663  66.464  1.00  0.00    -0.217 OA 
BRANCH  12  14
HETATM   14  N   UNL     1      -9.938   3.405  66.419  1.00  0.00    -0.357 N  
HETATM   15  H   UNL     1     -10.546   2.750  66.910  1.00  0.00     0.000 HD 
BRANCH  14  16
HETATM   16  C   UNL     1      -9.246   2.998  65.206  1.00  0.00    -0.146 C  
BRANCH  16  17
HETATM   17  C   UNL     1      -9.961   3.469  63.934  1.00  0.00    -0.183 C  
HETATM   18  H2  UNL     1     -11.304   4.648  64.968  1.00  0.00     0.000 HD 
HETATM   19  N   UNL     1     -11.307   3.927  64.246  1.00  0.00    -0.621 NA 
HETATM   20  H1  UNL     1     -11.782   4.241  63.400  1.00  0.00     0.000 HD 
ENDBRANCH  16  17
ENDBRANCH  14  16
ENDBRANCH  12  14
ENDBRANCH  10  12
ENDBRANCH   4  10
BRANCH   9  21
HETATM   21  C   UNL     1      -7.226   9.028  70.248  1.00  0.00    -0.058 C  
BRANCH  21  22
HETATM   22  C   UNL     1      -6.728  10.535  69.457  1.00  0.00    -0.089 C  
HETATM   23  CA  UNL     1      -6.897  11.162  67.652  1.00  0.00    -0.076 C  
HETATM   24  C   UNL     1      -7.800  13.439  66.912  1.00  0.00     0.253 C  
HETATM   25  C   UNL     1      -5.998  11.599  70.823  1.00  0.00     0.089 C  
HETATM   26  C   UNL     1      -7.445  10.304  66.035  1.00  0.00    -0.128 C  
HETATM   27  N   UNL     1      -6.626  12.697  67.141  1.00  0.00    -0.098 N  
HETATM   28  O   UNL     1      -8.949  13.149  66.603  1.00  0.00    -0.210 OA 
HETATM   29  S   UNL     1      -5.445  13.699  70.239  1.00  0.00    -0.135 SA 
HETATM   30  C   UNL     1      -6.016  13.888  68.065  1.00  0.00    -0.139 C  
HETATM   31  O   UNL     1      -7.116   9.082  65.894  1.00  0.00    -0.086 OA 
HETATM   32  OXT UNL     1      -7.884  11.127  65.192  1.00  0.00     0.196 OA 
HETATM   33  CA  UNL     1      -7.406  14.601  67.831  1.00  0.00    -0.154 C  
BRANCH  33  34
HETATM   34  N   UNL     1      -8.376  14.792  68.962  1.00  0.00    -0.248 N  
HETATM   35  C   UNL     1      -9.650  14.252  69.192  1.00  0.00     0.084 C  
HETATM   36  H   UNL     1      -8.051  15.426  69.692  1.00  0.00     0.000 HD 
HETATM   37  O   UNL     1     -10.162  14.603  70.255  1.00  0.00     0.224 OA 
BRANCH  35  38
HETATM   38  C   UNL     1     -10.451  13.245  68.255  1.00  0.00    -0.250 C  
HETATM   39  C   UNL     1     -10.982  13.651  66.974  1.00  0.00    -0.289 C  
HETATM   40  C   UNL     1     -12.298  14.077  64.186  1.00  0.00    -0.332 C  
HETATM   41  N   UNL     1     -10.363  15.126  66.616  1.00  0.00    -0.268 NA 
HETATM   42  N   UNL     1     -12.548  13.892  62.855  1.00  0.00    -0.788 NA 
HETATM   43  H   UNL     1     -12.486  12.064  65.561  1.00  0.00     0.000 HD 
HETATM   44  S   UNL     1     -11.189  16.108  64.582  1.00  0.00    -0.127 SA 
HETATM   45  H1  UNL     1     -13.030  13.009  62.683  1.00  0.00     0.000 HD 
HETATM   46  H2  UNL     1     -12.286  14.553  62.125  1.00  0.00     0.000 HD 
HETATM   47  N   UNL     1     -12.068  12.993  65.538  1.00  0.00    -0.427 NA 
BRANCH  38  48
HETATM   48  N   UNL     1     -10.569  11.977  68.445  1.00  0.00    -0.210 NA 
HETATM   49  H   UNL     1     -10.903  11.375  67.692  1.00  0.00     0.000 HD 
BRANCH  48  50
HETATM   50  O   UNL     1     -10.245  11.444  69.656  1.00  0.00     0.110 OA 
HETATM   51  O   UNL     1     -13.313  10.031  70.723  1.00  0.00    -0.350 OA 
HETATM   52  C   UNL     1     -12.327  10.743  70.579  1.00  0.00    -0.369 C  
HETATM   53  C   UNL     1     -10.286   9.450  70.883  1.00  0.00    -0.380 C  
HETATM   54  C   UNL     1     -11.749   9.573  68.598  1.00  0.00     0.767 C  
HETATM   55  C   UNL     1     -11.076  10.272  69.857  1.00  0.00    -0.304 C  
HETATM   56  O   UNL     1     -12.264  12.004  71.049  1.00  0.00    -0.311 OA 
ENDBRANCH  48  50
ENDBRANCH  38  48
ENDBRANCH  35  38
ENDBRANCH  33  34
ENDBRANCH  21  22
ENDBRANCH   9  21
TORSDOF 11
ENDMDL
MODEL      111
REMARK 921   NORMALIZED FREE ENERGY PREDICTED BY IDOCK:    0.69 KCAL/MOL
REMARK 922        TOTAL FREE ENERGY PREDICTED BY IDOCK:   -2.65 KCAL/MOL
REMARK 923 INTER-LIGAND FREE ENERGY PREDICTED BY IDOCK:   -4.51 KCAL/MOL
REMARK 924 INTRA-LIGAND FREE ENERGY PREDICTED BY IDOCK:    1.85 KCAL/MOL
REMARK 927      BINDING AFFINITY PREDICTED BY RF-SCORE:    0.00 PKD
ROOT
HETATM    1  C   UNL     1     -10.583  11.599  62.532  1.00  0.00     0.983 C  
HETATM    2  N   UNL     1     -11.196  11.657  63.843  1.00  0.00    -0.396 NA 
HETATM    3  C   UNL     1     -11.893  12.746  64.338  1.00  0.00    -0.384 A  
HETATM    4  C   UNL     1     -11.712  12.854  65.735  1.00  0.00    -0.390 A  
HETATM    5  N   UNL     1     -12.619  13.626  63.607  1.00  0.00    -0.770 NA 
HETATM    6  C   UNL     1     -10.788  11.778  65.997  1.00  0.00    -0.296 A  
HETATM    7  H2  UNL     1     -12.655  13.473  62.599  1.00  0.00     0.000 HD 
HETATM    8  H1  UNL     1     -13.133  14.428  63.971  1.00  0.00     0.000 HD 
HETATM    9  N   UNL     1     -10.810  10.892  64.885  1.00  0.00    -0.168 NA 
ENDROOT
BRANCH   4  10
HETATM   10  N   UNL     1     -12.263  13.903  66.449  1.00  0.00    -0.451 N  
HETATM   11  H   UNL     1     -13.137  14.291  66.095  1.00  0.00     0.000 HD 
BRANCH  10  12
HETATM   12  C   UNL     1     -11.754  14.469  67.577  1.00  0.00    -0.386 C  
HETATM   13  O   UNL     1     -11.099  15.501  67.489  1.00  0.00    -0.321 OA 
BRANCH  12  14
HETATM   14  N   UNL     1     -11.886  13.725  68.709  1.00  0.00    -0.346 N  
HETATM   15  H   UNL     1     -11.546  12.764  68.737  1.00  0.00     0.000 HD 
BRANCH  14  16
HETATM   16  C   UNL     1     -12.518  14.316  69.878  1.00  0.00    -0.264 C  
BRANCH  16  17
HETATM   17  C   UNL     1     -12.869  13.274  70.947  1.00  0.00    -0.181 C  
HETATM   18  H2  UNL     1     -14.074  14.575  72.005  1.00  0.00     0.000 HD 
HETATM   19  N   UNL     1     -13.302  13.929  72.173  1.00  0.00    -0.420 NA 
HETATM   20  H1  UNL     1     -13.537  13.237  72.884  1.00  0.00     0.000 HD 
ENDBRANCH  16  17
ENDBRANCH  14  16
ENDBRANCH  12  14
ENDBRANCH  10  12
ENDBRANCH   4  10
BRANCH   9  21
HETATM   21  C   UNL     1     -10.320   9.496  64.687  1.00  0.00     1.620 C  
BRANCH  21  22
HETATM   22  C   UNL     1      -8.605   9.137  64.965  1.00  0.00    -0.204 C  
HETATM   23  CA  UNL     1      -7.318   9.862  66.189  1.00  0.00    -0.104 C  
HETATM   24  C   UNL     1      -5.766   8.530  67.728  1.00  0.00    -0.039 C  
HETATM   25  C   UNL     1      -8.199   7.713  63.810  1.00  0.00     0.040 C  
HETATM   26  C   UNL     1      -7.362  11.366  67.366  1.00  0.00    -0.119 C  
HETATM   27  N   UNL     1      -5.838   9.231  66.509  1.00  0.00    -0.057 N  
HETATM   28  O   UNL     1      -6.371   8.598  68.790  1.00  0.00    -0.047 OA 
HETATM   29  S   UNL     1      -6.144   6.825  64.035  1.00  0.00    -0.036 SA 
HETATM   30  C   UNL     1      -5.173   7.978  65.713  1.00  0.00    -0.028 C  
HETATM   31  O   UNL     1      -7.995  12.395  66.959  1.00  0.00    -0.167 OA 
HETATM   32  OXT UNL     1      -6.560  11.237  68.325  1.00  0.00    -0.056 OA 
HETATM   33  CA  UNL     1      -5.224   7.238  67.107  1.00  0.00    -0.018 C  
BRANCH  33  34
HETATM   34  N   UNL     1      -6.140   6.068  67.327  1.00  0.00    -0.018 N  
HETATM   35  C   UNL     1      -7.015   5.761  68.379  1.00  0.00    -0.068 C  
HETATM   36  H   UNL     1      -6.123   5.373  66.580  1.00  0.00     0.000 HD 
HETATM   37  O   UNL     1      -7.650   4.718  68.220  1.00  0.00    -0.076 OA 
BRANCH  35  38
HETATM   38  C   UNL     1      -7.274   6.618  69.696  1.00  0.00    -0.078 C  
HETATM   39  C   UNL     1      -8.296   7.637  69.755  1.00  0.00    -0.133 C  
HETATM   40  C   UNL     1     -10.345   9.909  70.333  1.00  0.00    -0.260 C  
HETATM   41  N   UNL     1      -9.227   7.497  68.413  1.00  0.00    -0.140 NA 
HETATM   42  N   UNL     1     -11.375  10.568  70.942  1.00  0.00    -0.352 NA 
HETATM   43  H   UNL     1      -8.553   9.187  71.832  1.00  0.00     0.000 HD 
HETATM   44  S   UNL     1     -10.942   9.169  68.186  1.00  0.00     0.149 SA 
HETATM   45  H1  UNL     1     -11.116  10.890  71.875  1.00  0.00     0.000 HD 
HETATM   46  H2  UNL     1     -12.290  10.720  70.517  1.00  0.00     0.000 HD 
HETATM   47  N   UNL     1      -8.971   9.001  70.921  1.00  0.00    -0.226 NA 
BRANCH  38  48
HETATM   48  N   UNL     1      -6.743   6.401  70.849  1.00  0.00    -0.056 NA 
HETATM   49  H   UNL     1      -6.988   6.990  71.645  1.00  0.00     0.000 HD 
BRANCH  48  50
HETATM   50  O   UNL     1      -5.852   5.382  70.998  1.00  0.00    -0.019 OA 
HETATM   51  O   UNL     1      -6.878   3.903  74.049  1.00  0.00    -0.050 OA 
HETATM   52  C   UNL     1      -6.281   4.526  73.180  1.00  0.00    -0.032 C  
HETATM   53  C   UNL     1      -5.710   3.066  71.318  1.00  0.00    -0.013 C  
HETATM   54  C   UNL     1      -8.117   4.263  71.703  1.00  0.00    -0.091 C  
HETATM   55  C   UNL     1      -6.528   4.306  71.698  1.00  0.00    -0.019 C  
HETATM   56  O   UNL     1      -5.352   5.461  73.463  1.00  0.00    -0.021 OA 
ENDBRANCH  48  50
ENDBRANCH  38  48
ENDBRANCH  35  38
ENDBRANCH  33  34
ENDBRANCH  21  22
ENDBRANCH   9  21
TORSDOF 11
ENDMDL
MODEL      112
REMARK 921   NORMALIZED FREE ENERGY PREDICTED BY IDOCK:    0.95 KCAL/MOL
REMARK 922        TOTAL FREE ENERGY PREDICTED BY IDOCK:   -2.22 KCAL/MOL
REMARK 923 INTER-LIGAND FREE ENERGY PREDICTED BY IDOCK:   -5.03 KCAL/MOL
REMARK 924 INTRA-LIGAND FREE ENERGY PREDICTED BY IDOCK:    2.81 KCAL/MOL
REMARK 927      BINDING AFFINITY PREDICTED BY RF-SCORE:    0.00 PKD
ROOT
HETATM    1  C   UNL     1      -5.131   7.842  68.426  1.00  0.00    -0.031 C  
HETATM    2  N   UNL     1      -6.196   7.153  69.126  1.00  0.00    -0.033 NA 
HETATM    3  C   UNL     1      -6.596   5.853  68.863  1.00  0.00    -0.055 A  
HETATM    4  C   UNL     1      -7.986   5.712  69.079  1.00  0.00    -0.096 A  
HETATM    5  N   UNL     1      -5.802   4.849  68.421  1.00  0.00    -0.020 NA 
HETATM    6  C   UNL     1      -8.370   7.061  69.417  1.00  0.00    -0.133 A  
HETATM    7  H2  UNL     1      -4.818   5.070  68.265  1.00  0.00     0.000 HD 
HETATM    8  H1  UNL     1      -6.096   3.892  68.227  1.00  0.00     0.000 HD 
HETATM    9  N   UNL     1      -7.198   7.782  69.773  1.00  0.00    -0.066 NA 
ENDROOT
BRANCH   4  10
HETATM   10  N   UNL     1      -8.632   4.516  68.824  1.00  0.00    -0.084 N  
HETATM   11  H   UNL     1      -8.926   4.348  67.862  1.00  0.00     0.000 HD 
BRANCH  10  12
HETATM   12  C   UNL     1      -8.915   3.541  69.729  1.00  0.00    -0.109 C  
HETATM   13  O   UNL     1      -9.336   2.459  69.337  1.00  0.00    -0.122 OA 
BRANCH  12  14
HETATM   14  N   UNL     1      -8.857   3.927  71.034  1.00  0.00    -0.081 N  
HETATM   15  H   UNL     1      -9.545   4.579  71.410  1.00  0.00     0.000 HD 
BRANCH  14  16
HETATM   16  C   UNL     1      -7.801   3.400  71.884  1.00  0.00    -0.058 C  
BRANCH  16  17
HETATM   17  C   UNL     1      -8.264   3.179  73.329  1.00  0.00    -0.073 C  
HETATM   18  H2  UNL     1     -10.150   3.945  72.980  1.00  0.00     0.000 HD 
HETATM   19  N   UNL     1      -9.384   4.055  73.645  1.00  0.00    -0.103 NA 
HETATM   20  H1  UNL     1      -9.692   3.908  74.606  1.00  0.00     0.000 HD 
ENDBRANCH  16  17
ENDBRANCH  14  16
ENDBRANCH  12  14
ENDBRANCH  10  12
ENDBRANCH   4  10
BRANCH   9  21
HETATM   21  C   UNL     1      -6.976   9.081  70.475  1.00  0.00    -0.069 C  
BRANCH  21  22
HETATM   22  C   UNL     1      -6.560  10.516  69.519  1.00  0.00    -0.080 C  
HETATM   23  CA  UNL     1      -6.805  10.947  67.666  1.00  0.00    -0.081 C  
HETATM   24  C   UNL     1      -7.817  13.103  66.728  1.00  0.00     0.371 C  
HETATM   25  C   UNL     1      -5.832  11.739  70.745  1.00  0.00    -0.004 C  
HETATM   26  C   UNL     1      -7.366   9.909  66.163  1.00  0.00    -0.104 C  
HETATM   27  N   UNL     1      -6.609  12.430  66.992  1.00  0.00    -0.080 N  
HETATM   28  O   UNL     1      -8.961  12.742  66.487  1.00  0.00    -0.189 OA 
HETATM   29  S   UNL     1      -5.377  13.787  69.933  1.00  0.00    -0.103 SA 
HETATM   30  C   UNL     1      -6.018  13.730  67.770  1.00  0.00    -0.116 C  
HETATM   31  O   UNL     1      -6.994   8.691  66.136  1.00  0.00    -0.077 OA 
HETATM   32  OXT UNL     1      -7.860  10.624  65.255  1.00  0.00    -0.131 OA 
HETATM   33  CA  UNL     1      -7.441  14.366  67.511  1.00  0.00    -0.186 C  
BRANCH  33  34
HETATM   34  N   UNL     1      -8.384  14.638  68.648  1.00  0.00    -0.161 N  
HETATM   35  C   UNL     1      -9.594  14.031  69.013  1.00  0.00     0.090 C  
HETATM   36  H   UNL     1      -8.093  15.399  69.262  1.00  0.00     0.000 HD 
HETATM   37  O   UNL     1     -10.100  14.489  70.038  1.00  0.00     0.232 OA 
BRANCH  35  38
HETATM   38  C   UNL     1     -10.331  12.831  68.270  1.00  0.00    -0.243 C  
HETATM   39  C   UNL     1     -11.041  13.023  67.027  1.00  0.00    -0.281 C  
HETATM   40  C   UNL     1     -12.678  12.968  64.381  1.00  0.00    -0.201 C  
HETATM   41  N   UNL     1     -10.681  14.520  66.467  1.00  0.00    -0.307 NA 
HETATM   42  N   UNL     1     -13.031  12.609  63.110  1.00  0.00    -0.434 NA 
HETATM   43  H   UNL     1     -12.434  11.106  65.947  1.00  0.00     0.000 HD 
HETATM   44  S   UNL     1     -11.840  15.160  64.459  1.00  0.00    -0.240 SA 
HETATM   45  H1  UNL     1     -13.395  11.657  63.075  1.00  0.00     0.000 HD 
HETATM   46  H2  UNL     1     -12.941  13.218  62.297  1.00  0.00     0.000 HD 
HETATM   47  N   UNL     1     -12.159  12.076  65.791  1.00  0.00    -0.489 NA 
BRANCH  38  48
HETATM   48  N   UNL     1     -10.245  11.586  68.588  1.00  0.00    -0.209 NA 
HETATM   49  H   UNL     1     -10.263  10.869  67.863  1.00  0.00     0.000 HD 
BRANCH  48  50
HETATM   50  O   UNL     1     -10.129  11.232  69.899  1.00  0.00     0.387 OA 
HETATM   51  O   UNL     1     -13.365  10.005  70.654  1.00  0.00    -0.294 OA 
HETATM   52  C   UNL     1     -12.349  10.683  70.569  1.00  0.00    -0.359 C  
HETATM   53  C   UNL     1     -10.419   9.436  71.374  1.00  0.00    -0.358 C  
HETATM   54  C   UNL     1     -11.502   9.236  68.891  1.00  0.00     0.437 C  
HETATM   55  C   UNL     1     -11.015  10.106  70.130  1.00  0.00    -0.316 C  
HETATM   56  O   UNL     1     -12.325  11.999  70.860  1.00  0.00    -0.373 OA 
ENDBRANCH  48  50
ENDBRANCH  38  48
ENDBRANCH  35  38
ENDBRANCH  33  34
ENDBRANCH  21  22
ENDBRANCH   9  21
TORSDOF 11
ENDMDL
MODEL      113
REMARK 921   NORMALIZED FREE ENERGY PREDICTED BY IDOCK:    0.95 KCAL/MOL
REMARK 922        TOTAL FREE ENERGY PREDICTED BY IDOCK:   -2.22 KCAL/MOL
REMARK 923 INTER-LIGAND FREE ENERGY PREDICTED BY IDOCK:   -2.81 KCAL/MOL
REMARK 924 INTRA-LIGAND FREE ENERGY PREDICTED BY IDOCK:    0.59 KCAL/MOL
REMARK 927      BINDING AFFINITY PREDICTED BY RF-SCORE:    0.00 PKD
ROOT
HETATM    1  C   UNL     1     -11.962  14.960  67.873  1.00  0.00    -0.176 C  
HETATM    2  N   UNL     1     -10.759  15.625  67.416  1.00  0.00    -0.306 NA 
HETATM    3  C   UNL     1     -10.190  16.729  68.030  1.00  0.00    -0.300 A  
HETATM    4  C   UNL     1      -9.584  17.569  67.069  1.00  0.00    -0.268 A  
HETATM    5  N   UNL     1     -10.230  17.013  69.354  1.00  0.00    -0.241 NA 
HETATM    6  C   UNL     1      -9.915  16.895  65.837  1.00  0.00    -0.252 A  
HETATM    7  H2  UNL     1     -10.725  16.354  69.954  1.00  0.00     0.000 HD 
HETATM    8  H1  UNL     1      -9.811  17.826  69.806  1.00  0.00     0.000 HD 
HETATM    9  N   UNL     1     -10.304  15.564  66.148  1.00  0.00    -0.298 NA 
ENDROOT
BRANCH   4  10
HETATM   10  N   UNL     1      -9.000  18.769  67.434  1.00  0.00    -0.271 N  
HETATM   11  H   UNL     1      -9.396  19.245  68.244  1.00  0.00     0.000 HD 
BRANCH  10  12
HETATM   12  C   UNL     1      -7.950  19.377  66.819  1.00  0.00    -0.273 C  
HETATM   13  O   UNL     1      -7.929  19.451  65.596  1.00  0.00    -0.427 OA 
BRANCH  12  14
HETATM   14  N   UNL     1      -6.914  19.710  67.637  1.00  0.00    -0.235 N  
HETATM   15  H   UNL     1      -5.974  19.825  67.258  1.00  0.00     0.000 HD 
BRANCH  14  16
HETATM   16  C   UNL     1      -7.162  19.900  69.056  1.00  0.00    -0.246 C  
BRANCH  16  17
HETATM   17  C   UNL     1      -5.964  20.519  69.787  1.00  0.00    -0.317 C  
HETATM   18  H2  UNL     1      -5.904  19.035  71.220  1.00  0.00     0.000 HD 
HETATM   19  N   UNL     1      -5.911  20.053  71.164  1.00  0.00    -0.338 NA 
HETATM   20  H1  UNL     1      -5.114  20.465  71.650  1.00  0.00     0.000 HD 
ENDBRANCH  16  17
ENDBRANCH  14  16
ENDBRANCH  12  14
ENDBRANCH  10  12
ENDBRANCH   4  10
BRANCH   9  21
HETATM   21  C   UNL     1     -10.470  14.333  65.320  1.00  0.00    -0.389 C  
BRANCH  21  22
HETATM   22  C   UNL     1      -9.343  12.982  65.550  1.00  0.00     0.277 C  
HETATM   23  CA  UNL     1      -7.991  12.640  66.866  1.00  0.00     0.026 C  
HETATM   24  C   UNL     1      -7.685  10.482  68.206  1.00  0.00    -0.101 C  
HETATM   25  C   UNL     1      -9.771  11.740  64.207  1.00  0.00    -0.170 C  
HETATM   26  C   UNL     1      -7.227  13.724  68.243  1.00  0.00    -0.114 C  
HETATM   27  N   UNL     1      -7.217  11.213  67.098  1.00  0.00    -0.112 N  
HETATM   28  O   UNL     1      -8.218  10.784  69.266  1.00  0.00    -0.146 OA 
HETATM   29  S   UNL     1      -8.685   9.773  64.310  1.00  0.00    -0.222 SA 
HETATM   30  C   UNL     1      -7.367   9.910  66.135  1.00  0.00    -0.104 C  
HETATM   31  O   UNL     1      -7.081  14.963  67.983  1.00  0.00    -0.109 OA 
HETATM   32  OXT UNL     1      -6.750  13.031  69.177  1.00  0.00    -0.105 OA 
HETATM   33  CA  UNL     1      -7.972   9.203  67.412  1.00  0.00    -0.103 C  
BRANCH  33  34
HETATM   34  N   UNL     1      -9.421   8.810  67.463  1.00  0.00    -0.139 N  
HETATM   35  C   UNL     1     -10.322   8.727  68.535  1.00  0.00    -0.199 C  
HETATM   36  H   UNL     1      -9.821   8.558  66.558  1.00  0.00     0.000 HD 
HETATM   37  O   UNL     1     -11.462   8.395  68.212  1.00  0.00     0.717 OA 
BRANCH  35  38
HETATM   38  C   UNL     1     -10.023   9.037  70.068  1.00  0.00    -0.188 C  
HETATM   39  C   UNL     1      -9.220   8.155  70.883  1.00  0.00    -0.151 C  
HETATM   40  C   UNL     1      -7.581   6.565  72.999  1.00  0.00    -0.093 C  
HETATM   41  N   UNL     1      -8.510   7.059  69.893  1.00  0.00    -0.139 NA 
HETATM   42  N   UNL     1      -6.612   6.309  73.928  1.00  0.00    -0.070 NA 
HETATM   43  H   UNL     1      -8.935   8.553  73.441  1.00  0.00     0.000 HD 
HETATM   44  S   UNL     1      -7.208   5.374  71.011  1.00  0.00    -0.076 SA 
HETATM   45  H1  UNL     1      -6.774   6.827  74.792  1.00  0.00     0.000 HD 
HETATM   46  H2  UNL     1      -5.825   5.679  73.777  1.00  0.00     0.000 HD 
HETATM   47  N   UNL     1      -8.641   7.922  72.696  1.00  0.00    -0.137 NA 
BRANCH  38  48
HETATM   48  N   UNL     1     -10.309  10.132  70.681  1.00  0.00    -0.374 NA 
HETATM   49  H   UNL     1      -9.891  10.336  71.589  1.00  0.00     0.000 HD 
BRANCH  48  50
HETATM   50  O   UNL     1     -11.174  11.017  70.110  1.00  0.00    -0.270 OA 
HETATM   51  O   UNL     1     -14.329   9.807  71.172  1.00  0.00     0.206 OA 
HETATM   52  C   UNL     1     -13.333  10.097  70.522  1.00  0.00     0.069 C  
HETATM   53  C   UNL     1     -12.922  12.495  70.607  1.00  0.00     0.132 C  
HETATM   54  C   UNL     1     -12.188  10.701  72.509  1.00  0.00     1.836 C  
HETATM   55  C   UNL     1     -12.325  11.134  70.986  1.00  0.00    -0.382 C  
HETATM   56  O   UNL     1     -13.044   9.522  69.337  1.00  0.00     1.771 OA 
ENDBRANCH  48  50
ENDBRANCH  38  48
ENDBRANCH  35  38
ENDBRANCH  33  34
ENDBRANCH  21  22
ENDBRANCH   9  21
TORSDOF 11
ENDMDL
MODEL      114
REMARK 921   NORMALIZED FREE ENERGY PREDICTED BY IDOCK:    0.95 KCAL/MOL
REMARK 922        TOTAL FREE ENERGY PREDICTED BY IDOCK:   -2.22 KCAL/MOL
REMARK 923 INTER-LIGAND FREE ENERGY PREDICTED BY IDOCK:   -6.29 KCAL/MOL
REMARK 924 INTRA-LIGAND FREE ENERGY PREDICTED BY IDOCK:    4.08 KCAL/MOL
REMARK 927      BINDING AFFINITY PREDICTED BY RF-SCORE:    0.00 PKD
ROOT
HETATM    1  C   UNL     1     -12.623  11.924  69.103  1.00  0.00     0.603 C  
HETATM    2  N   UNL     1     -11.507  12.827  68.914  1.00  0.00    -0.285 NA 
HETATM    3  C   UNL     1     -11.623  14.150  68.521  1.00  0.00    -0.316 A  
HETATM    4  C   UNL     1     -10.517  14.528  67.727  1.00  0.00    -0.242 A  
HETATM    5  N   UNL     1     -12.659  14.977  68.804  1.00  0.00    -0.360 NA 
HETATM    6  C   UNL     1      -9.786  13.288  67.631  1.00  0.00    -0.219 A  
HETATM    7  H2  UNL     1     -13.423  14.589  69.357  1.00  0.00     0.000 HD 
HETATM    8  H1  UNL     1     -12.745  15.950  68.515  1.00  0.00     0.000 HD 
HETATM    9  N   UNL     1     -10.247  12.418  68.656  1.00  0.00    -0.196 NA 
ENDROOT
BRANCH   4  10
HETATM   10  N   UNL     1     -10.438  15.789  67.164  1.00  0.00    -0.303 N  
HETATM   11  H   UNL     1     -11.312  16.204  66.843  1.00  0.00     0.000 HD 
BRANCH  10  12
HETATM   12  C   UNL     1      -9.309  16.530  66.996  1.00  0.00    -0.230 C  
HETATM   13  O   UNL     1      -8.858  16.692  65.868  1.00  0.00    -0.486 OA 
BRANCH  12  14
HETATM   14  N   UNL     1      -8.680  16.895  68.147  1.00  0.00    -0.219 N  
HETATM   15  H   UNL     1      -9.195  17.366  68.890  1.00  0.00     0.000 HD 
BRANCH  14  16
HETATM   16  C   UNL     1      -7.263  16.607  68.304  1.00  0.00    -0.169 C  
BRANCH  16  17
HETATM   17  C   UNL     1      -6.985  15.623  69.447  1.00  0.00    -0.196 C  
HETATM   18  H2  UNL     1      -5.657  14.501  68.334  1.00  0.00     0.000 HD 
HETATM   19  N   UNL     1      -6.478  14.364  68.923  1.00  0.00    -0.089 NA 
HETATM   20  H1  UNL     1      -6.293  13.709  69.684  1.00  0.00     0.000 HD 
ENDBRANCH  16  17
ENDBRANCH  14  16
ENDBRANCH  12  14
ENDBRANCH  10  12
ENDBRANCH   4  10
BRANCH   9  21
HETATM   21  C   UNL     1      -9.702  11.158  69.243  1.00  0.00     0.057 C  
BRANCH  21  22
HETATM   22  C   UNL     1     -10.832   9.929  69.843  1.00  0.00    -0.316 C  
HETATM   23  CA  UNL     1     -11.229   8.147  69.258  1.00  0.00     0.292 C  
HETATM   24  C   UNL     1     -11.329   6.052  70.724  1.00  0.00    -0.225 C  
HETATM   25  C   UNL     1     -11.620  10.680  71.374  1.00  0.00     0.177 C  
HETATM   26  C   UNL     1     -10.726   7.158  67.702  1.00  0.00    -0.244 C  
HETATM   27  N   UNL     1     -12.107   7.038  70.088  1.00  0.00    -0.099 N  
HETATM   28  O   UNL     1     -10.230   5.558  70.506  1.00  0.00    -0.208 OA 
HETATM   29  S   UNL     1     -12.968   9.317  72.551  1.00  0.00    -0.214 SA 
HETATM   30  C   UNL     1     -12.912   7.339  71.469  1.00  0.00    -0.389 C  
HETATM   31  O   UNL     1     -10.629   7.812  66.613  1.00  0.00    -0.276 OA 
HETATM   32  OXT UNL     1     -10.766   5.917  67.900  1.00  0.00    -0.251 OA 
HETATM   33  CA  UNL     1     -11.926   6.287  72.116  1.00  0.00    -0.287 C  
BRANCH  33  34
HETATM   34  N   UNL     1     -10.891   6.713  73.119  1.00  0.00    -0.339 N  
HETATM   35  C   UNL     1      -9.496   6.812  73.026  1.00  0.00    -0.140 C  
HETATM   36  H   UNL     1     -11.271   6.977  74.028  1.00  0.00     0.000 HD 
HETATM   37  O   UNL     1      -8.950   7.233  74.046  1.00  0.00    -0.192 OA 
BRANCH  35  38
HETATM   38  C   UNL     1      -8.590   6.470  71.762  1.00  0.00    -0.124 C  
HETATM   39  C   UNL     1      -7.952   5.183  71.605  1.00  0.00    -0.114 C  
HETATM   40  C   UNL     1      -6.395   2.594  70.860  1.00  0.00    -0.023 C  
HETATM   41  N   UNL     1      -8.568   4.173  72.739  1.00  0.00    -0.100 NA 
HETATM   42  N   UNL     1      -6.019   1.499  70.131  1.00  0.00    -0.021 NA 
HETATM   43  H   UNL     1      -6.289   4.719  69.656  1.00  0.00     0.000 HD 
HETATM   44  S   UNL     1      -7.581   1.981  72.791  1.00  0.00    -0.040 SA 
HETATM   45  H1  UNL     1      -5.504   1.765  69.292  1.00  0.00     0.000 HD 
HETATM   46  H2  UNL     1      -6.228   0.537  70.394  1.00  0.00     0.000 HD 
HETATM   47  N   UNL     1      -6.725   4.262  70.456  1.00  0.00    -0.032 NA 
BRANCH  38  48
HETATM   48  N   UNL     1      -8.461   7.203  70.711  1.00  0.00    -0.132 NA 
HETATM   49  H   UNL     1      -9.042   7.028  69.890  1.00  0.00     0.000 HD 
BRANCH  48  50
HETATM   50  O   UNL     1      -7.547   8.212  70.701  1.00  0.00    -0.069 OA 
HETATM   51  O   UNL     1      -5.184   7.088  68.313  1.00  0.00    -0.017 OA 
HETATM   52  C   UNL     1      -5.765   7.393  69.347  1.00  0.00    -0.023 C  
HETATM   53  C   UNL     1      -6.461   9.726  69.282  1.00  0.00    -0.048 C  
HETATM   54  C   UNL     1      -7.797   7.649  68.151  1.00  0.00    -0.121 C  
HETATM   55  C   UNL     1      -6.991   8.289  69.363  1.00  0.00    -0.050 C  
HETATM   56  O   UNL     1      -5.367   6.963  70.560  1.00  0.00    -0.022 OA 
ENDBRANCH  48  50
ENDBRANCH  38  48
ENDBRANCH  35  38
ENDBRANCH  33  34
ENDBRANCH  21  22
ENDBRANCH   9  21
TORSDOF 11
ENDMDL
MODEL      115
REMARK 921   NORMALIZED FREE ENERGY PREDICTED BY IDOCK:    1.33 KCAL/MOL
REMARK 922        TOTAL FREE ENERGY PREDICTED BY IDOCK:   -1.59 KCAL/MOL
REMARK 923 INTER-LIGAND FREE ENERGY PREDICTED BY IDOCK:   -7.30 KCAL/MOL
REMARK 924 INTRA-LIGAND FREE ENERGY PREDICTED BY IDOCK:    5.71 KCAL/MOL
REMARK 927      BINDING AFFINITY PREDICTED BY RF-SCORE:    0.00 PKD
ROOT
HETATM    1  C   UNL     1     -12.697   7.018  70.841  1.00  0.00    -0.167 C  
HETATM    2  N   UNL     1     -11.259   7.191  70.825  1.00  0.00    -0.268 NA 
HETATM    3  C   UNL     1     -10.343   6.171  71.023  1.00  0.00    -0.210 A  
HETATM    4  C   UNL     1      -9.194   6.663  71.682  1.00  0.00    -0.145 A  
HETATM    5  N   UNL     1     -10.512   4.870  70.683  1.00  0.00    -0.159 NA 
HETATM    6  C   UNL     1      -9.554   8.039  71.917  1.00  0.00    -0.183 A  
HETATM    7  H2  UNL     1     -11.397   4.618  70.242  1.00  0.00     0.000 HD 
HETATM    8  H1  UNL     1      -9.838   4.120  70.828  1.00  0.00     0.000 HD 
HETATM    9  N   UNL     1     -10.643   8.366  71.063  1.00  0.00    -0.208 NA 
ENDROOT
BRANCH   4  10
HETATM   10  N   UNL     1      -8.160   5.817  72.045  1.00  0.00    -0.111 N  
HETATM   11  H   UNL     1      -7.538   5.506  71.299  1.00  0.00     0.000 HD 
BRANCH  10  12
HETATM   12  C   UNL     1      -7.892   5.359  73.298  1.00  0.00    -0.104 C  
HETATM   13  O   UNL     1      -8.633   4.525  73.804  1.00  0.00    -0.103 OA 
BRANCH  12  14
HETATM   14  N   UNL     1      -6.891   6.011  73.950  1.00  0.00    -0.080 N  
HETATM   15  H   UNL     1      -7.088   6.544  74.797  1.00  0.00     0.000 HD 
BRANCH  14  16
HETATM   16  C   UNL     1      -5.537   5.938  73.427  1.00  0.00    -0.036 C  
BRANCH  16  17
HETATM   17  C   UNL     1      -5.128   4.510  73.045  1.00  0.00    -0.007 C  
HETATM   18  H2  UNL     1      -4.603   5.035  71.119  1.00  0.00     0.000 HD 
HETATM   19  N   UNL     1      -5.170   4.337  71.601  1.00  0.00     0.000 NA 
HETATM   20  H1  UNL     1      -4.898   3.387  71.347  1.00  0.00     0.000 HD 
ENDBRANCH  16  17
ENDBRANCH  14  16
ENDBRANCH  12  14
ENDBRANCH  10  12
ENDBRANCH   4  10
BRANCH   9  21
HETATM   21  C   UNL     1     -11.249   9.663  70.638  1.00  0.00    -0.320 C  
BRANCH  21  22
HETATM   22  C   UNL     1     -10.360  10.700  69.507  1.00  0.00    -0.214 C  
HETATM   23  CA  UNL     1      -9.317  10.309  67.946  1.00  0.00    -0.138 C  
HETATM   24  C   UNL     1      -9.529  11.433  65.656  1.00  0.00    -0.230 C  
HETATM   25  C   UNL     1     -10.694  12.459  70.074  1.00  0.00     1.043 C  
HETATM   26  C   UNL     1      -8.682   8.670  67.196  1.00  0.00    -0.128 C  
HETATM   27  N   UNL     1      -8.783  11.406  66.850  1.00  0.00    -0.159 N  
HETATM   28  O   UNL     1     -10.200  10.609  65.049  1.00  0.00    -0.305 OA 
HETATM   29  S   UNL     1      -9.899  14.086  68.740  1.00  0.00    -0.076 SA 
HETATM   30  C   UNL     1      -8.921  13.019  67.010  1.00  0.00    -0.225 C  
HETATM   31  O   UNL     1      -8.337   7.759  68.017  1.00  0.00    -0.122 OA 
HETATM   32  OXT UNL     1      -8.469   8.768  65.961  1.00  0.00    -0.121 OA 
HETATM   33  CA  UNL     1      -9.828  12.935  65.719  1.00  0.00    -0.209 C  
BRANCH  33  34
HETATM   34  N   UNL     1     -11.301  13.223  65.789  1.00  0.00    -0.303 N  
HETATM   35  C   UNL     1     -12.019  14.214  66.474  1.00  0.00    -0.442 C  
HETATM   36  H   UNL     1     -11.881  12.586  65.242  1.00  0.00     0.000 HD 
HETATM   37  O   UNL     1     -13.235  14.180  66.281  1.00  0.00     0.069 OA 
BRANCH  35  38
HETATM   38  C   UNL     1     -11.428  15.352  67.417  1.00  0.00    -0.195 C  
HETATM   39  C   UNL     1     -11.826  15.480  68.800  1.00  0.00    -0.317 C  
HETATM   40  C   UNL     1     -12.388  16.139  71.790  1.00  0.00    -0.341 C  
HETATM   41  N   UNL     1     -12.681  14.143  69.205  1.00  0.00     0.179 NA 
HETATM   42  N   UNL     1     -12.134  16.343  73.118  1.00  0.00    -0.521 NA 
HETATM   43  H   UNL     1     -11.030  17.482  70.263  1.00  0.00     0.000 HD 
HETATM   44  S   UNL     1     -13.586  14.151  71.434  1.00  0.00    -0.247 SA 
HETATM   45  H1  UNL     1     -11.614  17.206  73.272  1.00  0.00     0.000 HD 
HETATM   46  H2  UNL     1     -12.429  15.710  73.861  1.00  0.00     0.000 HD 
HETATM   47  N   UNL     1     -11.590  16.631  70.315  1.00  0.00     0.176 NA 
BRANCH  38  48
HETATM   48  N   UNL     1     -10.458  16.144  67.119  1.00  0.00    -0.303 NA 
HETATM   49  H   UNL     1      -9.499  15.796  67.101  1.00  0.00     0.000 HD 
BRANCH  48  50
HETATM   50  O   UNL     1     -10.719  17.449  66.829  1.00  0.00    -0.236 OA 
HETATM   51  O   UNL     1      -8.042  19.142  68.415  1.00  0.00    -0.315 OA 
HETATM   52  C   UNL     1      -9.135  18.678  68.118  1.00  0.00    -0.313 C  
HETATM   53  C   UNL     1      -9.775  19.367  65.872  1.00  0.00    -0.205 C  
HETATM   54  C   UNL     1      -8.124  17.298  66.476  1.00  0.00    -0.313 C  
HETATM   55  C   UNL     1      -9.447  18.141  66.732  1.00  0.00    -0.294 C  
HETATM   56  O   UNL     1     -10.158  18.605  68.993  1.00  0.00    -0.394 OA 
ENDBRANCH  48  50
ENDBRANCH  38  48
ENDBRANCH  35  38
ENDBRANCH  33  34
ENDBRANCH  21  22
ENDBRANCH   9  21
TORSDOF 11
ENDMDL
MODEL      116
REMARK 921   NORMALIZED FREE ENERGY PREDICTED BY IDOCK:    1.40 KCAL/MOL
REMARK 922        TOTAL FREE ENERGY PREDICTED BY IDOCK:   -1.49 KCAL/MOL
REMARK 923 INTER-LIGAND FREE ENERGY PREDICTED BY IDOCK:   -3.02 KCAL/MOL
REMARK 924 INTRA-LIGAND FREE ENERGY PREDICTED BY IDOCK:    1.53 KCAL/MOL
REMARK 927      BINDING AFFINITY PREDICTED BY RF-SCORE:    0.00 PKD
ROOT
HETATM    1  C   UNL     1      -6.707  13.422  68.881  1.00  0.00    -0.110 C  
HETATM    2  N   UNL     1      -7.327  12.977  67.650  1.00  0.00    -0.133 NA 
HETATM    3  C   UNL     1      -8.391  13.612  67.032  1.00  0.00    -0.082 A  
HETATM    4  C   UNL     1      -9.223  12.667  66.390  1.00  0.00    -0.160 A  
HETATM    5  N   UNL     1      -8.649  14.942  67.057  1.00  0.00    -0.226 NA 
HETATM    6  C   UNL     1      -8.590  11.422  66.752  1.00  0.00    -0.166 A  
HETATM    7  H2  UNL     1      -8.000  15.530  67.580  1.00  0.00     0.000 HD 
HETATM    8  H1  UNL     1      -9.432  15.409  66.602  1.00  0.00     0.000 HD 
HETATM    9  N   UNL     1      -7.272  11.707  67.200  1.00  0.00    -0.136 NA 
ENDROOT
BRANCH   4  10
HETATM   10  N   UNL     1     -10.388  13.055  65.752  1.00  0.00    -0.282 N  
HETATM   11  H   UNL     1     -10.424  12.924  64.741  1.00  0.00     0.000 HD 
BRANCH  10  12
HETATM   12  C   UNL     1     -11.489  13.596  66.340  1.00  0.00    -0.338 C  
HETATM   13  O   UNL     1     -11.967  14.629  65.887  1.00  0.00    -0.332 OA 
BRANCH  12  14
HETATM   14  N   UNL     1     -11.870  13.008  67.508  1.00  0.00    -0.366 N  
HETATM   15  H   UNL     1     -12.116  12.018  67.531  1.00  0.00     0.000 HD 
BRANCH  14  16
HETATM   16  C   UNL     1     -11.922  13.807  68.721  1.00  0.00    -0.365 C  
BRANCH  16  17
HETATM   17  C   UNL     1     -11.025  13.249  69.833  1.00  0.00     0.393 C  
HETATM   18  H2  UNL     1     -12.260  11.635  70.199  1.00  0.00     0.000 HD 
HETATM   19  N   UNL     1     -11.788  12.379  70.715  1.00  0.00    -0.394 NA 
HETATM   20  H1  UNL     1     -11.192  12.007  71.454  1.00  0.00     0.000 HD 
ENDBRANCH  16  17
ENDBRANCH  14  16
ENDBRANCH  12  14
ENDBRANCH  10  12
ENDBRANCH   4  10
BRANCH   9  21
HETATM   21  C   UNL     1      -6.066  10.854  67.422  1.00  0.00    -0.055 C  
BRANCH  21  22
HETATM   22  C   UNL     1      -6.164   9.507  68.571  1.00  0.00    -0.048 C  
HETATM   23  CA  UNL     1      -6.244   9.448  70.486  1.00  0.00    -0.064 C  
HETATM   24  C   UNL     1      -7.920   8.126  71.898  1.00  0.00    -0.121 C  
HETATM   25  C   UNL     1      -6.278   7.957  67.515  1.00  0.00    -0.051 C  
HETATM   26  C   UNL     1      -6.017  10.790  71.828  1.00  0.00     0.812 C  
HETATM   27  N   UNL     1      -6.607   8.130  71.391  1.00  0.00    -0.043 N  
HETATM   28  O   UNL     1      -8.726   9.000  72.189  1.00  0.00    -0.368 OA 
HETATM   29  S   UNL     1      -6.637   6.037  68.630  1.00  0.00    -0.061 SA 
HETATM   30  C   UNL     1      -6.796   6.625  70.802  1.00  0.00    -0.063 C  
HETATM   31  O   UNL     1      -5.148  11.692  71.596  1.00  0.00    -0.267 OA 
HETATM   32  OXT UNL     1      -6.608  10.491  72.897  1.00  0.00     1.909 OA 
HETATM   33  CA  UNL     1      -8.283   6.754  71.320  1.00  0.00    -0.119 C  
BRANCH  33  34
HETATM   34  N   UNL     1      -9.433   6.824  70.356  1.00  0.00    -0.166 N  
HETATM   35  C   UNL     1      -9.851   5.945  69.346  1.00  0.00    -0.161 C  
HETATM   36  H   UNL     1     -10.013   7.658  70.454  1.00  0.00     0.000 HD 
HETATM   37  O   UNL     1     -10.871   6.302  68.756  1.00  0.00    -0.268 OA 
BRANCH  35  38
HETATM   38  C   UNL     1      -9.169   4.569  68.926  1.00  0.00    -0.134 C  
HETATM   39  C   UNL     1      -9.296   4.029  67.592  1.00  0.00    -0.181 C  
HETATM   40  C   UNL     1      -9.306   2.496  64.883  1.00  0.00    -0.112 C  
HETATM   41  N   UNL     1      -9.957   5.187  66.640  1.00  0.00    -0.186 NA 
HETATM   42  N   UNL     1      -8.813   1.896  63.759  1.00  0.00    -0.088 NA 
HETATM   43  H   UNL     1      -8.374   1.670  66.987  1.00  0.00     0.000 HD 
HETATM   44  S   UNL     1     -10.405   4.508  64.377  1.00  0.00     0.279 SA 
HETATM   45  H1  UNL     1      -8.335   1.022  63.979  1.00  0.00     0.000 HD 
HETATM   46  H2  UNL     1      -8.910   2.275  62.817  1.00  0.00     0.000 HD 
HETATM   47  N   UNL     1      -8.850   2.470  66.571  1.00  0.00    -0.124 NA 
BRANCH  38  48
HETATM   48  N   UNL     1      -8.335   3.896  69.641  1.00  0.00    -0.056 NA 
HETATM   49  H   UNL     1      -7.433   4.301  69.893  1.00  0.00     0.000 HD 
BRANCH  48  50
HETATM   50  O   UNL     1      -8.664   2.643  70.059  1.00  0.00    -0.058 OA 
HETATM   51  O   UNL     1      -7.218   2.501  73.289  1.00  0.00    -0.034 OA 
HETATM   52  C   UNL     1      -7.467   2.356  72.099  1.00  0.00    -0.044 C  
HETATM   53  C   UNL     1      -9.716   1.476  71.796  1.00  0.00    -0.196 C  
HETATM   54  C   UNL     1      -9.087   4.085  72.208  1.00  0.00    -0.149 C  
HETATM   55  C   UNL     1      -8.823   2.687  71.500  1.00  0.00    -0.076 C  
HETATM   56  O   UNL     1      -6.561   1.890  71.217  1.00  0.00    -0.022 OA 
ENDBRANCH  48  50
ENDBRANCH  38  48
ENDBRANCH  35  38
ENDBRANCH  33  34
ENDBRANCH  21  22
ENDBRANCH   9  21
TORSDOF 11
ENDMDL
MODEL      117
REMARK 921   NORMALIZED FREE ENERGY PREDICTED BY IDOCK:    1.45 KCAL/MOL
REMARK 922        TOTAL FREE ENERGY PREDICTED BY IDOCK:   -1.41 KCAL/MOL
REMARK 923 INTER-LIGAND FREE ENERGY PREDICTED BY IDOCK:   -0.78 KCAL/MOL
REMARK 924 INTRA-LIGAND FREE ENERGY PREDICTED BY IDOCK:   -0.63 KCAL/MOL
REMARK 927      BINDING AFFINITY PREDICTED BY RF-SCORE:    0.00 PKD
ROOT
HETATM    1  C   UNL     1      -8.568  17.477  69.839  1.00  0.00     1.713 C  
HETATM    2  N   UNL     1      -8.290  16.084  69.552  1.00  0.00    -0.125 NA 
HETATM    3  C   UNL     1      -7.022  15.531  69.496  1.00  0.00    -0.190 A  
HETATM    4  C   UNL     1      -6.977  14.498  68.533  1.00  0.00    -0.105 A  
HETATM    5  N   UNL     1      -5.946  15.930  70.217  1.00  0.00    -0.132 NA 
HETATM    6  C   UNL     1      -8.309  14.550  67.982  1.00  0.00    -0.153 A  
HETATM    7  H2  UNL     1      -6.083  16.710  70.860  1.00  0.00     0.000 HD 
HETATM    8  H1  UNL     1      -5.012  15.523  70.176  1.00  0.00     0.000 HD 
HETATM    9  N   UNL     1      -9.136  15.273  68.884  1.00  0.00    -0.196 NA 
ENDROOT
BRANCH   4  10
HETATM   10  N   UNL     1      -5.797  13.834  68.251  1.00  0.00    -0.098 N  
HETATM   11  H   UNL     1      -5.097  14.346  67.715  1.00  0.00     0.000 HD 
BRANCH  10  12
HETATM   12  C   UNL     1      -5.477  12.563  68.618  1.00  0.00    -0.054 C  
HETATM   13  O   UNL     1      -5.128  12.339  69.771  1.00  0.00    -0.070 OA 
BRANCH  12  14
HETATM   14  N   UNL     1      -5.416  11.663  67.597  1.00  0.00    -0.053 N  
HETATM   15  H   UNL     1      -5.023  11.932  66.696  1.00  0.00     0.000 HD 
BRANCH  14  16
HETATM   16  C   UNL     1      -5.920  10.316  67.808  1.00  0.00    -0.045 C  
BRANCH  16  17
HETATM   17  C   UNL     1      -5.305   9.644  69.042  1.00  0.00    -0.036 C  
HETATM   18  H2  UNL     1      -5.274   7.773  68.169  1.00  0.00     0.000 HD 
HETATM   19  N   UNL     1      -5.583   8.215  69.035  1.00  0.00    -0.034 NA 
HETATM   20  H1  UNL     1      -5.174   7.767  69.855  1.00  0.00     0.000 HD 
ENDBRANCH  16  17
ENDBRANCH  14  16
ENDBRANCH  12  14
ENDBRANCH  10  12
ENDBRANCH   4  10
BRANCH   9  21
HETATM   21  C   UNL     1     -10.616  15.410  69.020  1.00  0.00    -0.247 C  
BRANCH  21  22
HETATM   22  C   UNL     1     -11.588  13.964  69.351  1.00  0.00    -0.350 C  
HETATM   23  CA  UNL     1     -12.106  12.479  68.254  1.00  0.00    -0.069 C  
HETATM   24  C   UNL     1     -11.885  10.000  68.848  1.00  0.00     0.354 C  
HETATM   25  C   UNL     1     -12.021  14.060  71.177  1.00  0.00    -0.257 C  
HETATM   26  C   UNL     1     -11.957  12.148  66.377  1.00  0.00    -0.121 C  
HETATM   27  N   UNL     1     -12.782  11.083  68.786  1.00  0.00     0.794 N  
HETATM   28  O   UNL     1     -10.861   9.703  68.246  1.00  0.00    -0.231 OA 
HETATM   29  S   UNL     1     -13.080  12.268  72.028  1.00  0.00    -0.228 SA 
HETATM   30  C   UNL     1     -13.265  10.811  70.316  1.00  0.00     0.217 C  
HETATM   31  O   UNL     1     -12.100  13.151  65.605  1.00  0.00    -0.399 OA 
HETATM   32  OXT UNL     1     -11.954  10.919  66.116  1.00  0.00     0.582 OA 
HETATM   33  CA  UNL     1     -12.162   9.679  70.321  1.00  0.00     0.089 C  
BRANCH  33  34
HETATM   34  N   UNL     1     -10.933   9.802  71.175  1.00  0.00    -0.352 N  
HETATM   35  C   UNL     1      -9.877   8.911  71.414  1.00  0.00    -0.306 C  
HETATM   36  H   UNL     1     -10.852  10.692  71.670  1.00  0.00     0.000 HD 
HETATM   37  O   UNL     1      -9.001   9.354  72.157  1.00  0.00    -0.011 OA 
BRANCH  35  38
HETATM   38  C   UNL     1      -9.700   7.447  70.814  1.00  0.00    -0.171 C  
HETATM   39  C   UNL     1      -9.295   7.227  69.445  1.00  0.00    -0.151 C  
HETATM   40  C   UNL     1      -8.466   6.283  66.597  1.00  0.00    -0.114 C  
HETATM   41  N   UNL     1      -8.809   8.664  68.825  1.00  0.00    -0.138 NA 
HETATM   42  N   UNL     1      -7.738   5.652  65.627  1.00  0.00    -0.086 NA 
HETATM   43  H   UNL     1      -9.236   4.837  68.412  1.00  0.00     0.000 HD 
HETATM   44  S   UNL     1      -8.200   8.613  66.498  1.00  0.00    -0.109 SA 
HETATM   45  H1  UNL     1      -7.854   4.639  65.670  1.00  0.00     0.000 HD 
HETATM   46  H2  UNL     1      -7.153   6.134  64.946  1.00  0.00     0.000 HD 
HETATM   47  N   UNL     1      -9.044   5.810  68.178  1.00  0.00    -0.111 NA 
BRANCH  38  48
HETATM   48  N   UNL     1      -9.736   6.350  71.488  1.00  0.00    -0.169 NA 
HETATM   49  H   UNL     1      -8.905   6.027  71.985  1.00  0.00     0.000 HD 
BRANCH  48  50
HETATM   50  O   UNL     1     -10.888   5.626  71.535  1.00  0.00    -0.254 OA 
HETATM   51  O   UNL     1      -9.703   2.328  72.053  1.00  0.00    -0.117 OA 
HETATM   52  C   UNL     1     -10.166   3.355  71.573  1.00  0.00     0.147 C  
HETATM   53  C   UNL     1     -12.083   4.115  72.867  1.00  0.00     0.542 C  
HETATM   54  C   UNL     1      -9.480   4.579  73.485  1.00  0.00    -0.127 C  
HETATM   55  C   UNL     1     -10.666   4.505  72.430  1.00  0.00    -0.083 C  
HETATM   56  O   UNL     1     -10.274   3.554  70.245  1.00  0.00     0.268 OA 
ENDBRANCH  48  50
ENDBRANCH  38  48
ENDBRANCH  35  38
ENDBRANCH  33  34
ENDBRANCH  21  22
ENDBRANCH   9  21
TORSDOF 11
ENDMDL
MODEL      118
REMARK 921   NORMALIZED FREE ENERGY PREDICTED BY IDOCK:    1.66 KCAL/MOL
REMARK 922        TOTAL FREE ENERGY PREDICTED BY IDOCK:   -1.06 KCAL/MOL
REMARK 923 INTER-LIGAND FREE ENERGY PREDICTED BY IDOCK:   -2.19 KCAL/MOL
REMARK 924 INTRA-LIGAND FREE ENERGY PREDICTED BY IDOCK:    1.13 KCAL/MOL
REMARK 927      BINDING AFFINITY PREDICTED BY RF-SCORE:    0.00 PKD
ROOT
HETATM    1  C   UNL     1     -11.487   9.191  67.287  1.00  0.00     1.581 C  
HETATM    2  N   UNL     1     -10.645  10.333  66.991  1.00  0.00    -0.251 NA 
HETATM    3  C   UNL     1     -10.516  11.446  67.805  1.00  0.00    -0.185 A  
HETATM    4  C   UNL     1     -10.311  12.606  67.024  1.00  0.00    -0.232 A  
HETATM    5  N   UNL     1     -10.611  11.460  69.157  1.00  0.00    -0.341 NA 
HETATM    6  C   UNL     1     -10.407  12.081  65.685  1.00  0.00    -0.253 A  
HETATM    7  H2  UNL     1     -10.795  10.569  69.617  1.00  0.00     0.000 HD 
HETATM    8  H1  UNL     1     -10.516  12.279  69.756  1.00  0.00     0.000 HD 
HETATM    9  N   UNL     1     -10.249  10.670  65.747  1.00  0.00    -0.260 NA 
ENDROOT
BRANCH   4  10
HETATM   10  N   UNL     1     -10.214  13.855  67.611  1.00  0.00    -0.239 N  
HETATM   11  H   UNL     1     -11.088  14.355  67.776  1.00  0.00     0.000 HD 
BRANCH  10  12
HETATM   12  C   UNL     1      -9.068  14.484  67.990  1.00  0.00    -0.185 C  
HETATM   13  O   UNL     1      -8.084  14.431  67.262  1.00  0.00    -0.188 OA 
BRANCH  12  14
HETATM   14  N   UNL     1      -9.075  14.989  69.254  1.00  0.00    -0.356 N  
HETATM   15  H   UNL     1      -9.430  14.430  70.031  1.00  0.00     0.000 HD 
BRANCH  14  16
HETATM   16  C   UNL     1      -8.572  16.333  69.485  1.00  0.00     0.118 C  
BRANCH  16  17
HETATM   17  C   UNL     1      -9.559  17.417  69.034  1.00  0.00    -0.162 C  
HETATM   18  H2  UNL     1     -10.884  17.033  70.571  1.00  0.00     0.000 HD 
HETATM   19  N   UNL     1     -10.890  17.143  69.556  1.00  0.00    -0.345 NA 
HETATM   20  H1  UNL     1     -11.547  17.864  69.257  1.00  0.00     0.000 HD 
ENDBRANCH  16  17
ENDBRANCH  14  16
ENDBRANCH  12  14
ENDBRANCH  10  12
ENDBRANCH   4  10
BRANCH   9  21
HETATM   21  C   UNL     1      -9.965   9.631  64.712  1.00  0.00     0.254 C  
BRANCH  21  22
HETATM   22  C   UNL     1      -8.448   8.717  64.803  1.00  0.00    -0.168 C  
HETATM   23  CA  UNL     1      -6.834   8.992  65.803  1.00  0.00    -0.076 C  
HETATM   24  C   UNL     1      -5.616   7.253  67.232  1.00  0.00    -0.029 C  
HETATM   25  C   UNL     1      -8.707   7.209  63.714  1.00  0.00     0.713 C  
HETATM   26  C   UNL     1      -6.207  10.452  66.864  1.00  0.00    -0.066 C  
HETATM   27  N   UNL     1      -5.621   7.903  65.983  1.00  0.00    -0.032 N  
HETATM   28  O   UNL     1      -6.008   7.551  68.352  1.00  0.00    -0.029 OA 
HETATM   29  S   UNL     1      -7.057   5.681  63.747  1.00  0.00    -0.054 SA 
HETATM   30  C   UNL     1      -5.531   6.478  65.205  1.00  0.00    -0.022 C  
HETATM   31  O   UNL     1      -6.510  11.623  66.464  1.00  0.00    -0.099 OA 
HETATM   32  OXT UNL     1      -5.369  10.083  67.724  1.00  0.00    -0.038 OA 
HETATM   33  CA  UNL     1      -5.630   5.836  66.645  1.00  0.00    -0.013 C  
BRANCH  33  34
HETATM   34  N   UNL     1      -6.844   5.055  67.061  1.00  0.00    -0.058 N  
HETATM   35  C   UNL     1      -7.274   4.612  68.319  1.00  0.00    -0.065 C  
HETATM   36  H   UNL     1      -7.465   4.803  66.291  1.00  0.00     0.000 HD 
HETATM   37  O   UNL     1      -8.351   4.015  68.304  1.00  0.00    -0.090 OA 
BRANCH  35  38
HETATM   38  C   UNL     1      -6.541   4.825  69.717  1.00  0.00    -0.036 C  
HETATM   39  C   UNL     1      -6.552   6.098  70.399  1.00  0.00    -0.048 C  
HETATM   40  C   UNL     1      -6.303   8.624  72.200  1.00  0.00    -0.072 C  
HETATM   41  N   UNL     1      -7.637   7.066  69.642  1.00  0.00    -0.102 NA 
HETATM   42  N   UNL     1      -6.421   9.411  73.312  1.00  0.00    -0.098 NA 
HETATM   43  H   UNL     1      -5.157   6.495  72.561  1.00  0.00     0.000 HD 
HETATM   44  S   UNL     1      -7.766   9.311  70.497  1.00  0.00    -0.156 SA 
HETATM   45  H1  UNL     1      -5.785   9.113  74.052  1.00  0.00     0.000 HD 
HETATM   46  H2  UNL     1      -7.064  10.199  73.391  1.00  0.00     0.000 HD 
HETATM   47  N   UNL     1      -5.807   6.969  71.935  1.00  0.00    -0.037 NA 
BRANCH  38  48
HETATM   48  N   UNL     1      -6.021   3.895  70.441  1.00  0.00    -0.017 NA 
HETATM   49  H   UNL     1      -5.270   3.315  70.068  1.00  0.00     0.000 HD 
BRANCH  48  50
HETATM   50  O   UNL     1      -6.481   3.692  71.707  1.00  0.00    -0.014 OA 
HETATM   51  O   UNL     1      -9.730   2.397  71.149  1.00  0.00    -0.151 OA 
HETATM   52  C   UNL     1      -8.775   3.110  71.426  1.00  0.00    -0.074 C  
HETATM   53  C   UNL     1      -7.380   2.055  73.119  1.00  0.00    -0.032 C  
HETATM   54  C   UNL     1      -7.292   1.534  70.456  1.00  0.00    -0.033 C  
HETATM   55  C   UNL     1      -7.382   2.555  71.670  1.00  0.00    -0.040 C  
HETATM   56  O   UNL     1      -8.875   4.450  71.540  1.00  0.00    -0.113 OA 
ENDBRANCH  48  50
ENDBRANCH  38  48
ENDBRANCH  35  38
ENDBRANCH  33  34
ENDBRANCH  21  22
ENDBRANCH   9  21
TORSDOF 11
ENDMDL
MODEL      119
REMARK 921   NORMALIZED FREE ENERGY PREDICTED BY IDOCK:    1.96 KCAL/MOL
REMARK 922        TOTAL FREE ENERGY PREDICTED BY IDOCK:   -0.56 KCAL/MOL
REMARK 923 INTER-LIGAND FREE ENERGY PREDICTED BY IDOCK:    0.52 KCAL/MOL
REMARK 924 INTRA-LIGAND FREE ENERGY PREDICTED BY IDOCK:   -1.08 KCAL/MOL
REMARK 927      BINDING AFFINITY PREDICTED BY RF-SCORE:    0.00 PKD
ROOT
HETATM    1  C   UNL     1     -10.530  15.364  71.887  1.00  0.00     1.236 C  
HETATM    2  N   UNL     1     -11.861  14.868  71.601  1.00  0.00    -0.363 NA 
HETATM    3  C   UNL     1     -12.613  14.091  72.466  1.00  0.00    -0.127 A  
HETATM    4  C   UNL     1     -13.417  13.184  71.740  1.00  0.00    -0.335 A  
HETATM    5  N   UNL     1     -12.573  14.139  73.820  1.00  0.00    -0.014 NA 
HETATM    6  C   UNL     1     -13.011  13.451  70.382  1.00  0.00     0.172 A  
HETATM    7  H2  UNL     1     -11.930  14.809  74.240  1.00  0.00     0.000 HD 
HETATM    8  H1  UNL     1     -13.126  13.567  74.456  1.00  0.00     0.000 HD 
HETATM    9  N   UNL     1     -12.350  14.708  70.354  1.00  0.00    -0.320 NA 
ENDROOT
BRANCH   4  10
HETATM   10  N   UNL     1     -14.214  12.257  72.388  1.00  0.00    -0.004 N  
HETATM   11  H   UNL     1     -15.069  12.607  72.819  1.00  0.00     0.000 HD 
BRANCH  10  12
HETATM   12  C   UNL     1     -13.969  10.924  72.509  1.00  0.00     0.945 C  
HETATM   13  O   UNL     1     -14.290  10.344  73.539  1.00  0.00     2.158 OA 
BRANCH  12  14
HETATM   14  N   UNL     1     -13.222  10.380  71.509  1.00  0.00    -0.396 N  
HETATM   15  H   UNL     1     -12.884  10.961  70.742  1.00  0.00     0.000 HD 
BRANCH  14  16
HETATM   16  C   UNL     1     -12.910   8.960  71.548  1.00  0.00    -0.334 C  
BRANCH  16  17
HETATM   17  C   UNL     1     -11.529   8.645  70.961  1.00  0.00    -0.278 C  
HETATM   18  H2  UNL     1     -11.156   7.128  72.311  1.00  0.00     0.000 HD 
HETATM   19  N   UNL     1     -10.700   7.964  71.944  1.00  0.00    -0.226 NA 
HETATM   20  H1  UNL     1      -9.781   7.753  71.554  1.00  0.00     0.000 HD 
ENDBRANCH  16  17
ENDBRANCH  14  16
ENDBRANCH  12  14
ENDBRANCH  10  12
ENDBRANCH   4  10
BRANCH   9  21
HETATM   21  C   UNL     1     -11.976  15.638  69.247  1.00  0.00    -0.320 C  
BRANCH  21  22
HETATM   22  C   UNL     1     -11.091  14.999  67.849  1.00  0.00    -0.310 C  
HETATM   23  CA  UNL     1      -9.220  14.914  67.435  1.00  0.00    -0.194 C  
HETATM   24  C   UNL     1      -7.930  12.851  66.642  1.00  0.00     0.374 C  
HETATM   25  C   UNL     1     -12.399  14.248  66.730  1.00  0.00    -0.280 C  
HETATM   26  C   UNL     1      -7.679  15.684  68.264  1.00  0.00    -0.130 C  
HETATM   27  N   UNL     1      -8.545  14.045  66.220  1.00  0.00     0.344 N  
HETATM   28  O   UNL     1      -7.412  12.480  67.687  1.00  0.00    -0.115 OA 
HETATM   29  S   UNL     1     -11.630  13.134  64.933  1.00  0.00    -0.341 SA 
HETATM   30  C   UNL     1      -9.382  13.246  65.076  1.00  0.00     0.709 C  
HETATM   31  O   UNL     1      -7.819  16.847  68.766  1.00  0.00    -0.233 OA 
HETATM   32  OXT UNL     1      -6.635  15.030  68.016  1.00  0.00    -0.116 OA 
HETATM   33  CA  UNL     1      -8.716  11.949  65.684  1.00  0.00     0.296 C  
BRANCH  33  34
HETATM   34  N   UNL     1      -9.542  10.924  66.408  1.00  0.00    -0.191 N  
HETATM   35  C   UNL     1      -9.191   9.707  67.010  1.00  0.00    -0.142 C  
HETATM   36  H   UNL     1     -10.534  11.154  66.474  1.00  0.00     0.000 HD 
HETATM   37  O   UNL     1     -10.129   9.123  67.552  1.00  0.00    -0.197 OA 
BRANCH  35  38
HETATM   38  C   UNL     1      -7.742   9.052  67.078  1.00  0.00    -0.098 C  
HETATM   39  C   UNL     1      -7.392   7.890  66.295  1.00  0.00    -0.075 C  
HETATM   40  C   UNL     1      -6.206   5.416  64.823  1.00  0.00    -0.029 C  
HETATM   41  N   UNL     1      -8.593   7.631  65.210  1.00  0.00    -0.079 NA 
HETATM   42  N   UNL     1      -5.367   4.694  64.021  1.00  0.00    -0.012 NA 
HETATM   43  H   UNL     1      -5.098   6.691  66.591  1.00  0.00     0.000 HD 
HETATM   44  S   UNL     1      -8.329   5.664  63.851  1.00  0.00     0.001 SA 
HETATM   45  H1  UNL     1      -4.445   4.586  64.443  1.00  0.00     0.000 HD 
HETATM   46  H2  UNL     1      -5.631   4.310  63.114  1.00  0.00     0.000 HD 
HETATM   47  N   UNL     1      -5.957   6.642  66.044  1.00  0.00    -0.029 NA 
BRANCH  38  48
HETATM   48  N   UNL     1      -6.720   9.552  67.682  1.00  0.00    -0.063 NA 
HETATM   49  H   UNL     1      -5.793   9.486  67.261  1.00  0.00     0.000 HD 
BRANCH  48  50
HETATM   50  O   UNL     1      -6.884  10.169  68.885  1.00  0.00    -0.052 OA 
HETATM   51  O   UNL     1      -7.504   7.449  71.068  1.00  0.00    -0.072 OA 
HETATM   52  C   UNL     1      -7.609   8.437  70.352  1.00  0.00    -0.072 C  
HETATM   53  C   UNL     1      -6.090  10.192  71.088  1.00  0.00     0.046 C  
HETATM   54  C   UNL     1      -5.420   8.084  69.511  1.00  0.00    -0.026 C  
HETATM   55  C   UNL     1      -6.411   9.261  69.913  1.00  0.00    -0.044 C  
HETATM   56  O   UNL     1      -8.796   8.882  69.895  1.00  0.00    -0.138 OA 
ENDBRANCH  48  50
ENDBRANCH  38  48
ENDBRANCH  35  38
ENDBRANCH  33  34
ENDBRANCH  21  22
ENDBRANCH   9  21
TORSDOF 11
ENDMDL
MODEL      120
REMARK 921   NORMALIZED FREE ENERGY PREDICTED BY IDOCK:    2.07 KCAL/MOL
REMARK 922        TOTAL FREE ENERGY PREDICTED BY IDOCK:   -0.38 KCAL/MOL
REMARK 923 INTER-LIGAND FREE ENERGY PREDICTED BY IDOCK:   -2.44 KCAL/MOL
REMARK 924 INTRA-LIGAND FREE ENERGY PREDICTED BY IDOCK:    2.07 KCAL/MOL
REMARK 927      BINDING AFFINITY PREDICTED BY RF-SCORE:    0.00 PKD
ROOT
HETATM    1  C   UNL     1      -5.746   7.211  69.529  1.00  0.00    -0.023 C  
HETATM    2  N   UNL     1      -6.550   6.706  70.623  1.00  0.00    -0.051 NA 
HETATM    3  C   UNL     1      -6.727   5.363  70.913  1.00  0.00    -0.044 A  
HETATM    4  C   UNL     1      -8.019   5.139  71.439  1.00  0.00    -0.112 A  
HETATM    5  N   UNL     1      -5.825   4.375  70.696  1.00  0.00    -0.013 NA 
HETATM    6  C   UNL     1      -8.603   6.456  71.359  1.00  0.00    -0.130 A  
HETATM    7  H2  UNL     1      -4.934   4.645  70.279  1.00  0.00     0.000 HD 
HETATM    8  H1  UNL     1      -5.955   3.387  70.909  1.00  0.00     0.000 HD 
HETATM    9  N   UNL     1      -7.552   7.400  71.200  1.00  0.00    -0.081 NA 
ENDROOT
BRANCH   4  10
HETATM   10  N   UNL     1      -8.454   3.863  71.749  1.00  0.00    -0.089 N  
HETATM   11  H   UNL     1      -8.366   3.571  72.723  1.00  0.00     0.000 HD 
BRANCH  10  12
HETATM   12  C   UNL     1      -8.987   2.958  70.885  1.00  0.00    -0.097 C  
HETATM   13  O   UNL     1      -9.852   2.185  71.280  1.00  0.00    -0.147 OA 
BRANCH  12  14
HETATM   14  N   UNL     1      -8.375   2.887  69.671  1.00  0.00    -0.054 N  
HETATM   15  H   UNL     1      -7.374   3.066  69.586  1.00  0.00     0.000 HD 
BRANCH  14  16
HETATM   16  C   UNL     1      -9.164   2.553  68.496  1.00  0.00    -0.193 C  
BRANCH  16  17
HETATM   17  C   UNL     1      -8.313   1.965  67.363  1.00  0.00    -0.076 C  
HETATM   18  H2  UNL     1      -7.401   3.767  66.936  1.00  0.00     0.000 HD 
HETATM   19  N   UNL     1      -7.887   3.014  66.449  1.00  0.00    -0.077 NA 
HETATM   20  H1  UNL     1      -7.321   2.623  65.695  1.00  0.00     0.000 HD 
ENDBRANCH  16  17
ENDBRANCH  14  16
ENDBRANCH  12  14
ENDBRANCH  10  12
ENDBRANCH   4  10
BRANCH   9  21
HETATM   21  C   UNL     1      -7.487   8.884  71.348  1.00  0.00    -0.079 C  
BRANCH  21  22
HETATM   22  C   UNL     1      -7.001   9.868  69.955  1.00  0.00    -0.105 C  
HETATM   23  CA  UNL     1      -7.478   9.799  68.098  1.00  0.00    -0.081 C  
HETATM   24  C   UNL     1      -8.255  11.764  66.655  1.00  0.00    -0.117 C  
HETATM   25  C   UNL     1      -5.882  11.205  70.653  1.00  0.00    -0.103 C  
HETATM   26  C   UNL     1      -8.451   8.522  67.063  1.00  0.00    -0.114 C  
HETATM   27  N   UNL     1      -7.151  10.954  66.981  1.00  0.00    -0.102 N  
HETATM   28  O   UNL     1      -9.468  11.601  66.665  1.00  0.00    -0.190 OA 
HETATM   29  S   UNL     1      -5.232  12.795  69.201  1.00  0.00    -0.069 SA 
HETATM   30  C   UNL     1      -6.227  12.266  67.247  1.00  0.00    -0.152 C  
HETATM   31  O   UNL     1      -8.300   7.295  67.374  1.00  0.00    -0.118 OA 
HETATM   32  OXT UNL     1      -8.963   9.039  66.038  1.00  0.00    -0.160 OA 
HETATM   33  CA  UNL     1      -7.546  13.088  66.961  1.00  0.00     0.105 C  
BRANCH  33  34
HETATM   34  N   UNL     1      -8.225  13.864  68.054  1.00  0.00    -0.149 N  
HETATM   35  C   UNL     1      -9.548  13.845  68.519  1.00  0.00    -0.185 C  
HETATM   36  H   UNL     1      -7.617  14.520  68.544  1.00  0.00     0.000 HD 
HETATM   37  O   UNL     1      -9.760  14.599  69.468  1.00  0.00    -0.041 OA 
BRANCH  35  38
HETATM   38  C   UNL     1     -10.747  12.951  67.972  1.00  0.00    -0.228 C  
HETATM   39  C   UNL     1     -11.419  11.982  68.806  1.00  0.00    -0.300 C  
HETATM   40  C   UNL     1     -13.130   9.794  70.211  1.00  0.00     0.366 C  
HETATM   41  N   UNL     1     -10.928  12.220  70.352  1.00  0.00     1.098 NA 
HETATM   42  N   UNL     1     -14.243   9.164  70.693  1.00  0.00    -0.205 NA 
HETATM   43  H   UNL     1     -13.217  10.368  67.836  1.00  0.00     0.000 HD 
HETATM   44  S   UNL     1     -11.800  10.646  71.948  1.00  0.00     1.283 SA 
HETATM   45  H1  UNL     1     -14.821   8.794  69.939  1.00  0.00     0.000 HD 
HETATM   46  H2  UNL     1     -14.467   9.074  71.684  1.00  0.00     0.000 HD 
HETATM   47  N   UNL     1     -12.754  10.609  68.711  1.00  0.00     0.468 NA 
BRANCH  38  48
HETATM   48  N   UNL     1     -11.332  13.097  66.835  1.00  0.00    -0.304 NA 
HETATM   49  H   UNL     1     -12.125  12.505  66.587  1.00  0.00     0.000 HD 
BRANCH  48  50
HETATM   50  O   UNL     1     -10.887  14.045  65.965  1.00  0.00    -0.290 OA 
HETATM   51  O   UNL     1     -12.571  13.194  62.967  1.00  0.00    -0.572 OA 
HETATM   52  C   UNL     1     -11.735  13.360  63.845  1.00  0.00    -0.404 C  
HETATM   53  C   UNL     1     -11.622  15.706  64.486  1.00  0.00    -0.262 C  
HETATM   54  C   UNL     1     -13.444  13.909  65.395  1.00  0.00     0.575 C  
HETATM   55  C   UNL     1     -11.952  14.305  65.014  1.00  0.00    -0.410 C  
HETATM   56  O   UNL     1     -10.548  12.722  63.851  1.00  0.00    -0.414 OA 
ENDBRANCH  48  50
ENDBRANCH  38  48
ENDBRANCH  35  38
ENDBRANCH  33  34
ENDBRANCH  21  22
ENDBRANCH   9  21
TORSDOF 11
ENDMDL
MODEL      121
REMARK 921   NORMALIZED FREE ENERGY PREDICTED BY IDOCK:    2.14 KCAL/MOL
REMARK 922        TOTAL FREE ENERGY PREDICTED BY IDOCK:   -0.27 KCAL/MOL
REMARK 923 INTER-LIGAND FREE ENERGY PREDICTED BY IDOCK:   -3.22 KCAL/MOL
REMARK 924 INTRA-LIGAND FREE ENERGY PREDICTED BY IDOCK:    2.95 KCAL/MOL
REMARK 927      BINDING AFFINITY PREDICTED BY RF-SCORE:    0.00 PKD
ROOT
HETATM    1  C   UNL     1      -7.025   9.908  69.555  1.00  0.00    -0.070 C  
HETATM    2  N   UNL     1      -6.909   8.789  68.643  1.00  0.00    -0.062 NA 
HETATM    3  C   UNL     1      -6.792   7.465  69.033  1.00  0.00    -0.068 A  
HETATM    4  C   UNL     1      -5.985   6.751  68.118  1.00  0.00    -0.031 A  
HETATM    5  N   UNL     1      -7.326   6.913  70.149  1.00  0.00    -0.080 NA 
HETATM    6  C   UNL     1      -5.583   7.792  67.205  1.00  0.00    -0.032 A  
HETATM    7  H2  UNL     1      -7.864   7.529  70.759  1.00  0.00     0.000 HD 
HETATM    8  H1  UNL     1      -7.240   5.939  70.437  1.00  0.00     0.000 HD 
HETATM    9  N   UNL     1      -6.459   8.898  67.376  1.00  0.00    -0.057 NA 
ENDROOT
BRANCH   4  10
HETATM   10  N   UNL     1      -5.671   5.420  68.329  1.00  0.00    -0.015 N  
HETATM   11  H   UNL     1      -4.811   5.226  68.840  1.00  0.00     0.000 HD 
BRANCH  10  12
HETATM   12  C   UNL     1      -6.397   4.344  67.920  1.00  0.00    -0.037 C  
HETATM   13  O   UNL     1      -6.202   3.875  66.806  1.00  0.00    -0.030 OA 
BRANCH  12  14
HETATM   14  N   UNL     1      -7.414   3.982  68.751  1.00  0.00    -0.055 N  
HETATM   15  H   UNL     1      -8.279   4.521  68.771  1.00  0.00     0.000 HD 
BRANCH  14  16
HETATM   16  C   UNL     1      -7.251   2.819  69.608  1.00  0.00    -0.044 C  
BRANCH  16  17
HETATM   17  C   UNL     1      -6.875   3.195  71.046  1.00  0.00    -0.032 C  
HETATM   18  H2  UNL     1      -6.323   5.119  70.537  1.00  0.00     0.000 HD 
HETATM   19  N   UNL     1      -5.952   4.321  71.053  1.00  0.00    -0.013 NA 
HETATM   20  H1  UNL     1      -5.702   4.572  72.010  1.00  0.00     0.000 HD 
ENDBRANCH  16  17
ENDBRANCH  14  16
ENDBRANCH  12  14
ENDBRANCH  10  12
ENDBRANCH   4  10
BRANCH   9  21
HETATM   21  C   UNL     1      -6.738  10.112  66.553  1.00  0.00    -0.085 C  
BRANCH  21  22
HETATM   22  C   UNL     1      -8.401  10.435  66.030  1.00  0.00    -0.149 C  
HETATM   23  CA  UNL     1     -10.069  10.466  66.977  1.00  0.00    -0.215 C  
HETATM   24  C   UNL     1     -11.828  12.323  66.898  1.00  0.00    -0.264 C  
HETATM   25  C   UNL     1      -8.274  10.882  64.209  1.00  0.00     0.225 C  
HETATM   26  C   UNL     1     -10.556   9.940  68.748  1.00  0.00    -0.222 C  
HETATM   27  N   UNL     1     -11.489  11.050  66.400  1.00  0.00     0.171 N  
HETATM   28  O   UNL     1     -11.574  12.934  67.928  1.00  0.00    -0.301 OA 
HETATM   29  S   UNL     1     -10.180  11.574  63.235  1.00  0.00    -0.374 SA 
HETATM   30  C   UNL     1     -11.733  11.548  64.871  1.00  0.00     0.091 C  
HETATM   31  O   UNL     1      -9.962   8.919  69.227  1.00  0.00    -0.182 OA 
HETATM   32  OXT UNL     1     -11.581  10.544  69.153  1.00  0.00    -0.261 OA 
HETATM   33  CA  UNL     1     -12.002  12.965  65.517  1.00  0.00    -0.436 C  
BRANCH  33  34
HETATM   34  N   UNL     1     -11.055  14.108  65.292  1.00  0.00    -0.317 N  
HETATM   35  C   UNL     1     -10.047  14.650  66.103  1.00  0.00    -0.300 C  
HETATM   36  H   UNL     1     -11.164  14.573  64.390  1.00  0.00     0.000 HD 
HETATM   37  O   UNL     1      -9.429  15.581  65.586  1.00  0.00    -0.320 OA 
BRANCH  35  38
HETATM   38  C   UNL     1      -9.626  14.171  67.562  1.00  0.00    -0.223 C  
HETATM   39  C   UNL     1     -10.398  14.518  68.732  1.00  0.00    -0.243 C  
HETATM   40  C   UNL     1     -11.726  15.024  71.501  1.00  0.00    -0.370 C  
HETATM   41  N   UNL     1     -11.814  15.170  68.227  1.00  0.00    -0.306 NA 
HETATM   42  N   UNL     1     -12.319  14.739  72.699  1.00  0.00    -0.312 NA 
HETATM   43  H   UNL     1      -9.573  13.928  71.130  1.00  0.00     0.000 HD 
HETATM   44  S   UNL     1     -13.252  15.965  69.984  1.00  0.00     1.554 SA 
HETATM   45  H1  UNL     1     -11.657  14.331  73.359  1.00  0.00     0.000 HD 
HETATM   46  H2  UNL     1     -13.302  14.913  72.908  1.00  0.00     0.000 HD 
HETATM   47  N   UNL     1     -10.353  14.367  70.642  1.00  0.00     0.960 NA 
BRANCH  38  48
HETATM   48  N   UNL     1      -8.691  13.328  67.834  1.00  0.00    -0.180 NA 
HETATM   49  H   UNL     1      -8.870  12.553  68.472  1.00  0.00     0.000 HD 
BRANCH  48  50
HETATM   50  O   UNL     1      -7.462  13.479  67.265  1.00  0.00    -0.147 OA 
HETATM   51  O   UNL     1      -5.964  15.954  69.310  1.00  0.00    -0.117 OA 
HETATM   52  C   UNL     1      -6.504  15.346  68.394  1.00  0.00    -0.111 C  
HETATM   53  C   UNL     1      -5.170  13.416  67.743  1.00  0.00    -0.063 C  
HETATM   54  C   UNL     1      -6.907  13.502  69.829  1.00  0.00     0.170 C  
HETATM   55  C   UNL     1      -6.530  13.830  68.320  1.00  0.00    -0.110 C  
HETATM   56  O   UNL     1      -7.121  15.970  67.370  1.00  0.00    -0.153 OA 
ENDBRANCH  48  50
ENDBRANCH  38  48
ENDBRANCH  35  38
ENDBRANCH  33  34
ENDBRANCH  21  22
ENDBRANCH   9  21
TORSDOF 11
ENDMDL
MODEL      122
REMARK 921   NORMALIZED FREE ENERGY PREDICTED BY IDOCK:    2.29 KCAL/MOL
REMARK 922        TOTAL FREE ENERGY PREDICTED BY IDOCK:   -0.01 KCAL/MOL
REMARK 923 INTER-LIGAND FREE ENERGY PREDICTED BY IDOCK:   -4.17 KCAL/MOL
REMARK 924 INTRA-LIGAND FREE ENERGY PREDICTED BY IDOCK:    4.16 KCAL/MOL
REMARK 927      BINDING AFFINITY PREDICTED BY RF-SCORE:    0.00 PKD
ROOT
HETATM    1  C   UNL     1     -12.508  15.034  73.762  1.00  0.00    -0.533 C  
HETATM    2  N   UNL     1     -12.428  14.819  72.331  1.00  0.00    -0.335 NA 
HETATM    3  C   UNL     1     -11.975  15.758  71.419  1.00  0.00    -0.441 A  
HETATM    4  C   UNL     1     -12.665  15.626  70.193  1.00  0.00    -0.124 A  
HETATM    5  N   UNL     1     -11.037  16.707  71.653  1.00  0.00     0.250 NA 
HETATM    6  C   UNL     1     -13.610  14.580  70.497  1.00  0.00     0.274 A  
HETATM    7  H2  UNL     1     -10.627  16.733  72.586  1.00  0.00     0.000 HD 
HETATM    8  H1  UNL     1     -10.703  17.398  70.982  1.00  0.00     0.000 HD 
HETATM    9  N   UNL     1     -13.168  13.907  71.668  1.00  0.00    -0.354 NA 
ENDROOT
BRANCH   4  10
HETATM   10  N   UNL     1     -12.429  16.495  69.143  1.00  0.00     0.046 N  
HETATM   11  H   UNL     1     -12.964  17.364  69.136  1.00  0.00     0.000 HD 
BRANCH  10  12
HETATM   12  C   UNL     1     -11.555  16.306  68.117  1.00  0.00    -0.072 C  
HETATM   13  O   UNL     1     -11.627  15.283  67.447  1.00  0.00    -0.303 OA 
BRANCH  12  14
HETATM   14  N   UNL     1     -10.552  17.223  68.035  1.00  0.00    -0.384 N  
HETATM   15  H   UNL     1     -10.508  18.000  68.693  1.00  0.00     0.000 HD 
BRANCH  14  16
HETATM   16  C   UNL     1      -9.543  17.080  66.998  1.00  0.00    -0.254 C  
BRANCH  16  17
HETATM   17  C   UNL     1      -8.527  18.229  67.002  1.00  0.00    -0.250 C  
HETATM   18  H2  UNL     1      -8.373  18.274  64.943  1.00  0.00     0.000 HD 
HETATM   19  N   UNL     1      -7.765  18.240  65.762  1.00  0.00    -0.532 NA 
HETATM   20  H1  UNL     1      -7.089  19.004  65.765  1.00  0.00     0.000 HD 
ENDBRANCH  16  17
ENDBRANCH  14  16
ENDBRANCH  12  14
ENDBRANCH  10  12
ENDBRANCH   4  10
BRANCH   9  21
HETATM   21  C   UNL     1     -13.536  12.601  72.292  1.00  0.00    -0.409 C  
BRANCH  21  22
HETATM   22  C   UNL     1     -13.039  11.096  71.496  1.00  0.00    -0.489 C  
HETATM   23  CA  UNL     1     -12.369  10.726  69.738  1.00  0.00    -0.236 C  
HETATM   24  C   UNL     1     -10.292   9.347  69.161  1.00  0.00    -0.211 C  
HETATM   25  C   UNL     1     -13.201   9.761  72.808  1.00  0.00     0.199 C  
HETATM   26  C   UNL     1     -12.219  11.799  68.163  1.00  0.00     0.291 C  
HETATM   27  N   UNL     1     -11.697   9.314  69.244  1.00  0.00     0.493 N  
HETATM   28  O   UNL     1      -9.468  10.230  68.965  1.00  0.00    -0.179 OA 
HETATM   29  S   UNL     1     -12.445   7.723  72.230  1.00  0.00    -0.128 SA 
HETATM   30  C   UNL     1     -11.644   7.952  70.133  1.00  0.00     0.066 C  
HETATM   31  O   UNL     1     -13.150  12.643  67.953  1.00  0.00     1.825 OA 
HETATM   32  OXT UNL     1     -11.317  11.381  67.394  1.00  0.00    -0.322 OA 
HETATM   33  CA  UNL     1     -10.076   8.129  70.067  1.00  0.00    -0.196 C  
BRANCH  33  34
HETATM   34  N   UNL     1      -9.283   8.464  71.298  1.00  0.00    -0.162 N  
HETATM   35  C   UNL     1      -7.904   8.618  71.499  1.00  0.00    -0.125 C  
HETATM   36  H   UNL     1      -9.848   8.603  72.136  1.00  0.00     0.000 HD 
HETATM   37  O   UNL     1      -7.593   8.930  72.648  1.00  0.00    -0.359 OA 
BRANCH  35  38
HETATM   38  C   UNL     1      -6.750   8.460  70.413  1.00  0.00    -0.036 C  
HETATM   39  C   UNL     1      -6.590   9.400  69.327  1.00  0.00    -0.048 C  
HETATM   40  C   UNL     1      -5.878  11.142  66.848  1.00  0.00    -0.092 C  
HETATM   41  N   UNL     1      -7.558  10.687  69.627  1.00  0.00    -0.131 NA 
HETATM   42  N   UNL     1      -5.131  11.934  66.021  1.00  0.00    -0.411 NA 
HETATM   43  H   UNL     1      -4.850   9.002  67.431  1.00  0.00     0.000 HD 
HETATM   44  S   UNL     1      -7.587  12.361  67.899  1.00  0.00    -0.145 SA 
HETATM   45  H1  UNL     1      -4.388  11.405  65.565  1.00  0.00     0.000 HD 
HETATM   46  H2  UNL     1      -5.296  12.930  65.879  1.00  0.00     0.000 HD 
HETATM   47  N   UNL     1      -5.552   9.674  67.739  1.00  0.00    -0.040 NA 
BRANCH  38  48
HETATM   48  N   UNL     1      -5.779   7.616  70.467  1.00  0.00    -0.026 NA 
HETATM   49  H   UNL     1      -5.309   7.432  71.353  1.00  0.00     0.000 HD 
BRANCH  48  50
HETATM   50  O   UNL     1      -5.384   6.971  69.335  1.00  0.00    -0.014 OA 
HETATM   51  O   UNL     1      -7.300   3.994  69.434  1.00  0.00    -0.052 OA 
HETATM   52  C   UNL     1      -6.398   4.820  69.484  1.00  0.00    -0.027 C  
HETATM   53  C   UNL     1      -6.198   6.001  67.365  1.00  0.00    -0.033 C  
HETATM   54  C   UNL     1      -7.978   6.582  69.332  1.00  0.00    -0.114 C  
HETATM   55  C   UNL     1      -6.512   6.196  68.853  1.00  0.00    -0.046 C  
HETATM   56  O   UNL     1      -5.225   4.580  70.103  1.00  0.00     0.000 OA 
ENDBRANCH  48  50
ENDBRANCH  38  48
ENDBRANCH  35  38
ENDBRANCH  33  34
ENDBRANCH  21  22
ENDBRANCH   9  21
TORSDOF 11
ENDMDL
MODEL      123
REMARK 921   NORMALIZED FREE ENERGY PREDICTED BY IDOCK:    2.42 KCAL/MOL
REMARK 922        TOTAL FREE ENERGY PREDICTED BY IDOCK:    0.19 KCAL/MOL
REMARK 923 INTER-LIGAND FREE ENERGY PREDICTED BY IDOCK:   -5.62 KCAL/MOL
REMARK 924 INTRA-LIGAND FREE ENERGY PREDICTED BY IDOCK:    5.82 KCAL/MOL
REMARK 927      BINDING AFFINITY PREDICTED BY RF-SCORE:    0.00 PKD
ROOT
HETATM    1  C   UNL     1     -12.500  11.680  68.834  1.00  0.00     0.424 C  
HETATM    2  N   UNL     1     -11.361  12.512  68.504  1.00  0.00    -0.272 NA 
HETATM    3  C   UNL     1     -11.442  13.746  67.880  1.00  0.00    -0.314 A  
HETATM    4  C   UNL     1     -10.319  13.953  67.049  1.00  0.00    -0.267 A  
HETATM    5  N   UNL     1     -12.462  14.631  67.996  1.00  0.00    -0.472 NA 
HETATM    6  C   UNL     1      -9.615  12.702  67.186  1.00  0.00    -0.207 A  
HETATM    7  H2  UNL     1     -13.241  14.364  68.597  1.00  0.00     0.000 HD 
HETATM    8  H1  UNL     1     -12.522  15.539  67.537  1.00  0.00     0.000 HD 
HETATM    9  N   UNL     1     -10.108  12.038  68.342  1.00  0.00    -0.208 NA 
ENDROOT
BRANCH   4  10
HETATM   10  N   UNL     1     -10.204  15.092  66.272  1.00  0.00    -0.281 N  
HETATM   11  H   UNL     1     -10.381  15.984  66.734  1.00  0.00     0.000 HD 
BRANCH  10  12
HETATM   12  C   UNL     1      -9.878  15.140  64.952  1.00  0.00     0.151 C  
HETATM   13  O   UNL     1      -8.935  15.834  64.590  1.00  0.00     1.909 OA 
BRANCH  12  14
HETATM   14  N   UNL     1     -10.758  14.524  64.115  1.00  0.00    -0.293 N  
HETATM   15  H   UNL     1     -11.179  15.037  63.341  1.00  0.00     0.000 HD 
BRANCH  14  16
HETATM   16  C   UNL     1     -11.091  13.127  64.339  1.00  0.00    -0.381 C  
BRANCH  16  17
HETATM   17  C   UNL     1     -10.501  12.202  63.267  1.00  0.00    -0.317 C  
HETATM   18  H2  UNL     1     -11.096  10.480  64.238  1.00  0.00     0.000 HD 
HETATM   19  N   UNL     1     -10.256  10.877  63.816  1.00  0.00    -0.401 NA 
HETATM   20  H1  UNL     1      -9.864  10.261  63.103  1.00  0.00     0.000 HD 
ENDBRANCH  16  17
ENDBRANCH  14  16
ENDBRANCH  12  14
ENDBRANCH  10  12
ENDBRANCH   4  10
BRANCH   9  21
HETATM   21  C   UNL     1      -9.599  10.892  69.153  1.00  0.00    -0.106 C  
BRANCH  21  22
HETATM   22  C   UNL     1     -10.720   9.595  69.609  1.00  0.00    -0.260 C  
HETATM   23  CA  UNL     1     -10.854   7.758  69.074  1.00  0.00    -0.021 C  
HETATM   24  C   UNL     1     -11.064   5.734  70.626  1.00  0.00    -0.202 C  
HETATM   25  C   UNL     1     -11.843  10.343  70.916  1.00  0.00    -0.475 C  
HETATM   26  C   UNL     1      -9.986   6.747  67.705  1.00  0.00    -0.137 C  
HETATM   27  N   UNL     1     -11.782   6.614  69.795  1.00  0.00    -0.296 N  
HETATM   28  O   UNL     1      -9.908   5.333  70.649  1.00  0.00    -0.173 OA 
HETATM   29  S   UNL     1     -13.277   8.920  71.905  1.00  0.00    -0.422 SA 
HETATM   30  C   UNL     1     -12.858   6.906  70.981  1.00  0.00    -0.152 C  
HETATM   31  O   UNL     1      -9.736   7.355  66.613  1.00  0.00    -0.197 OA 
HETATM   32  OXT UNL     1      -9.963   5.518  67.970  1.00  0.00    -0.132 OA 
HETATM   33  CA  UNL     1     -11.932   5.980  71.865  1.00  0.00    -0.122 C  
BRANCH  33  34
HETATM   34  N   UNL     1     -11.146   6.545  73.014  1.00  0.00    -0.401 N  
HETATM   35  C   UNL     1      -9.768   6.737  73.188  1.00  0.00    -0.168 C  
HETATM   36  H   UNL     1     -11.714   6.841  73.807  1.00  0.00     0.000 HD 
HETATM   37  O   UNL     1      -9.462   7.263  74.258  1.00  0.00    -0.240 OA 
BRANCH  35  38
HETATM   38  C   UNL     1      -8.609   6.377  72.157  1.00  0.00    -0.125 C  
HETATM   39  C   UNL     1      -7.879   5.133  72.233  1.00  0.00    -0.101 C  
HETATM   40  C   UNL     1      -6.055   2.619  72.018  1.00  0.00    -0.013 C  
HETATM   41  N   UNL     1      -8.649   4.159  73.302  1.00  0.00    -0.089 NA 
HETATM   42  N   UNL     1      -5.478   1.508  71.468  1.00  0.00    -0.004 NA 
HETATM   43  H   UNL     1      -5.835   4.660  70.689  1.00  0.00     0.000 HD 
HETATM   44  S   UNL     1      -7.565   2.054  73.724  1.00  0.00    -0.038 SA 
HETATM   45  H1  UNL     1      -4.822   1.754  70.727  1.00  0.00     0.000 HD 
HETATM   46  H2  UNL     1      -5.679   0.553  71.763  1.00  0.00     0.000 HD 
HETATM   47  N   UNL     1      -6.394   4.228  71.424  1.00  0.00    -0.018 NA 
BRANCH  38  48
HETATM   48  N   UNL     1      -8.316   7.044  71.095  1.00  0.00    -0.117 NA 
HETATM   49  H   UNL     1      -8.140   6.557  70.216  1.00  0.00     0.000 HD 
BRANCH  48  50
HETATM   50  O   UNL     1      -8.241   8.402  71.152  1.00  0.00    -0.108 OA 
HETATM   51  O   UNL     1      -5.132   8.938  72.762  1.00  0.00    -0.047 OA 
HETATM   52  C   UNL     1      -6.323   8.842  72.496  1.00  0.00    -0.028 C  
HETATM   53  C   UNL     1      -6.883  10.218  70.567  1.00  0.00    -0.047 C  
HETATM   54  C   UNL     1      -5.800   7.730  70.468  1.00  0.00    -0.030 C  
HETATM   55  C   UNL     1      -6.840   8.770  71.070  1.00  0.00    -0.074 C  
HETATM   56  O   UNL     1      -7.280   8.794  73.445  1.00  0.00    -0.352 OA 
ENDBRANCH  48  50
ENDBRANCH  38  48
ENDBRANCH  35  38
ENDBRANCH  33  34
ENDBRANCH  21  22
ENDBRANCH   9  21
TORSDOF 11
ENDMDL
MODEL      124
REMARK 921   NORMALIZED FREE ENERGY PREDICTED BY IDOCK:    2.58 KCAL/MOL
REMARK 922        TOTAL FREE ENERGY PREDICTED BY IDOCK:    0.46 KCAL/MOL
REMARK 923 INTER-LIGAND FREE ENERGY PREDICTED BY IDOCK:   -1.76 KCAL/MOL
REMARK 924 INTRA-LIGAND FREE ENERGY PREDICTED BY IDOCK:    2.22 KCAL/MOL
REMARK 927      BINDING AFFINITY PREDICTED BY RF-SCORE:    0.00 PKD
ROOT
HETATM    1  C   UNL     1      -8.702  10.643  62.787  1.00  0.00    -0.238 C  
HETATM    2  N   UNL     1      -9.854  10.727  63.660  1.00  0.00    -0.323 NA 
HETATM    3  C   UNL     1     -10.518  11.901  63.976  1.00  0.00    -0.373 A  
HETATM    4  C   UNL     1     -11.021  11.843  65.295  1.00  0.00    -0.302 A  
HETATM    5  N   UNL     1     -10.647  12.984  63.172  1.00  0.00    -0.226 NA 
HETATM    6  C   UNL     1     -10.527  10.565  65.744  1.00  0.00    -0.143 A  
HETATM    7  H2  UNL     1     -10.215  12.931  62.250  1.00  0.00     0.000 HD 
HETATM    8  H1  UNL     1     -11.135  13.848  63.404  1.00  0.00     0.000 HD 
HETATM    9  N   UNL     1     -10.150   9.807  64.602  1.00  0.00     0.115 NA 
ENDROOT
BRANCH   4  10
HETATM   10  N   UNL     1     -11.671  12.926  65.861  1.00  0.00    -0.377 N  
HETATM   11  H   UNL     1     -12.631  13.095  65.559  1.00  0.00     0.000 HD 
BRANCH  10  12
HETATM   12  C   UNL     1     -11.158  13.787  66.781  1.00  0.00    -0.308 C  
HETATM   13  O   UNL     1     -11.690  13.882  67.880  1.00  0.00    -0.321 OA 
BRANCH  12  14
HETATM   14  N   UNL     1     -10.171  14.605  66.320  1.00  0.00    -0.281 N  
HETATM   15  H   UNL     1      -9.576  14.310  65.546  1.00  0.00     0.000 HD 
BRANCH  14  16
HETATM   16  C   UNL     1      -9.975  15.902  66.945  1.00  0.00    -0.249 C  
BRANCH  16  17
HETATM   17  C   UNL     1      -9.331  16.922  65.998  1.00  0.00    -0.179 C  
HETATM   18  H2  UNL     1      -8.946  18.278  67.506  1.00  0.00     0.000 HD 
HETATM   19  N   UNL     1      -9.372  18.255  66.580  1.00  0.00    -0.302 NA 
HETATM   20  H1  UNL     1      -8.944  18.933  65.950  1.00  0.00     0.000 HD 
ENDBRANCH  16  17
ENDBRANCH  14  16
ENDBRANCH  12  14
ENDBRANCH  10  12
ENDBRANCH   4  10
BRANCH   9  21
HETATM   21  C   UNL     1      -9.857   8.358  64.393  1.00  0.00     2.863 C  
BRANCH  21  22
HETATM   22  C   UNL     1      -8.258   7.730  64.833  1.00  0.00    -0.111 C  
HETATM   23  CA  UNL     1      -6.932   8.337  66.079  1.00  0.00    -0.065 C  
HETATM   24  C   UNL     1      -5.746   6.918  67.847  1.00  0.00    -0.020 C  
HETATM   25  C   UNL     1      -8.056   6.144  63.848  1.00  0.00    -0.068 C  
HETATM   26  C   UNL     1      -6.765   9.940  67.106  1.00  0.00    -0.074 C  
HETATM   27  N   UNL     1      -5.616   7.490  66.567  1.00  0.00    -0.024 N  
HETATM   28  O   UNL     1      -6.388   7.204  68.850  1.00  0.00    -0.030 OA 
HETATM   29  S   UNL     1      -6.218   4.932  64.309  1.00  0.00    -0.023 SA 
HETATM   30  C   UNL     1      -5.149   6.062  65.943  1.00  0.00    -0.012 C  
HETATM   31  O   UNL     1      -7.172  11.017  66.559  1.00  0.00    -0.138 OA 
HETATM   32  OXT UNL     1      -6.058   9.770  68.131  1.00  0.00    -0.050 OA 
HETATM   33  CA  UNL     1      -5.417   5.492  67.392  1.00  0.00    -0.012 C  
BRANCH  33  34
HETATM   34  N   UNL     1      -6.545   4.534  67.648  1.00  0.00    -0.045 N  
HETATM   35  C   UNL     1      -7.531   4.509  68.645  1.00  0.00    -0.064 C  
HETATM   36  H   UNL     1      -6.604   3.766  66.979  1.00  0.00     0.000 HD 
HETATM   37  O   UNL     1      -8.334   3.582  68.538  1.00  0.00    -0.075 OA 
BRANCH  35  38
HETATM   38  C   UNL     1      -7.717   5.544  69.840  1.00  0.00    -0.082 C  
HETATM   39  C   UNL     1      -8.750   6.554  69.821  1.00  0.00    -0.143 C  
HETATM   40  C   UNL     1     -10.792   8.872  70.205  1.00  0.00    -0.239 C  
HETATM   41  N   UNL     1      -9.763   6.217  68.579  1.00  0.00    -0.128 NA 
HETATM   42  N   UNL     1     -11.791   9.605  70.782  1.00  0.00    -0.294 NA 
HETATM   43  H   UNL     1      -8.895   8.385  71.668  1.00  0.00     0.000 HD 
HETATM   44  S   UNL     1     -11.516   7.827  68.232  1.00  0.00     1.336 SA 
HETATM   45  H1  UNL     1     -11.477  10.059  71.640  1.00  0.00     0.000 HD 
HETATM   46  H2  UNL     1     -12.734   9.688  70.402  1.00  0.00     0.000 HD 
HETATM   47  N   UNL     1      -9.368   8.067  70.823  1.00  0.00    -0.156 NA 
BRANCH  38  48
HETATM   48  N   UNL     1      -7.108   5.499  70.974  1.00  0.00    -0.067 NA 
HETATM   49  H   UNL     1      -7.001   6.345  71.533  1.00  0.00     0.000 HD 
BRANCH  48  50
HETATM   50  O   UNL     1      -6.608   4.314  71.422  1.00  0.00    -0.025 OA 
HETATM   51  O   UNL     1      -8.849   3.468  74.031  1.00  0.00    -0.087 OA 
HETATM   52  C   UNL     1      -7.877   3.829  73.379  1.00  0.00    -0.079 C  
HETATM   53  C   UNL     1      -7.190   2.082  71.828  1.00  0.00    -0.035 C  
HETATM   54  C   UNL     1      -9.192   3.868  71.406  1.00  0.00    -0.189 C  
HETATM   55  C   UNL     1      -7.723   3.518  71.900  1.00  0.00    -0.058 C  
HETATM   56  O   UNL     1      -6.860   4.531  73.917  1.00  0.00    -0.061 OA 
ENDBRANCH  48  50
ENDBRANCH  38  48
ENDBRANCH  35  38
ENDBRANCH  33  34
ENDBRANCH  21  22
ENDBRANCH   9  21
TORSDOF 11
ENDMDL
MODEL      125
REMARK 921   NORMALIZED FREE ENERGY PREDICTED BY IDOCK:    2.70 KCAL/MOL
REMARK 922        TOTAL FREE ENERGY PREDICTED BY IDOCK:    0.66 KCAL/MOL
REMARK 923 INTER-LIGAND FREE ENERGY PREDICTED BY IDOCK:   -3.27 KCAL/MOL
REMARK 924 INTRA-LIGAND FREE ENERGY PREDICTED BY IDOCK:    3.93 KCAL/MOL
REMARK 927      BINDING AFFINITY PREDICTED BY RF-SCORE:    0.00 PKD
ROOT
HETATM    1  C   UNL     1      -7.873   9.139  69.399  1.00  0.00    -0.095 C  
HETATM    2  N   UNL     1      -8.058   8.092  68.415  1.00  0.00    -0.126 NA 
HETATM    3  C   UNL     1      -8.306   6.763  68.717  1.00  0.00    -0.121 A  
HETATM    4  C   UNL     1      -7.717   5.920  67.749  1.00  0.00    -0.097 A  
HETATM    5  N   UNL     1      -8.976   6.304  69.802  1.00  0.00    -0.139 NA 
HETATM    6  C   UNL     1      -7.043   6.871  66.899  1.00  0.00    -0.075 A  
HETATM    7  H2  UNL     1      -9.330   7.001  70.456  1.00  0.00     0.000 HD 
HETATM    8  H1  UNL     1      -9.158   5.326  70.025  1.00  0.00     0.000 HD 
HETATM    9  N   UNL     1      -7.589   8.159  67.152  1.00  0.00    -0.095 NA 
ENDROOT
BRANCH   4  10
HETATM   10  N   UNL     1      -7.776   4.543  67.868  1.00  0.00    -0.081 N  
HETATM   11  H   UNL     1      -6.893   4.057  68.025  1.00  0.00     0.000 HD 
BRANCH  10  12
HETATM   12  C   UNL     1      -8.895   3.772  67.797  1.00  0.00    -0.114 C  
HETATM   13  O   UNL     1      -8.795   2.555  67.899  1.00  0.00    -0.100 OA 
BRANCH  12  14
HETATM   14  N   UNL     1     -10.032   4.434  67.446  1.00  0.00    -0.140 N  
HETATM   15  H   UNL     1     -10.718   4.692  68.154  1.00  0.00     0.000 HD 
BRANCH  14  16
HETATM   16  C   UNL     1     -10.257   4.767  66.049  1.00  0.00    -0.278 C  
BRANCH  16  17
HETATM   17  C   UNL     1      -9.738   3.685  65.094  1.00  0.00    -0.157 C  
HETATM   18  H2  UNL     1      -9.811   4.922  63.442  1.00  0.00     0.000 HD 
HETATM   19  N   UNL     1     -10.118   3.991  63.723  1.00  0.00    -0.292 NA 
HETATM   20  H1  UNL     1      -9.773   3.271  63.087  1.00  0.00     0.000 HD 
ENDBRANCH  16  17
ENDBRANCH  14  16
ENDBRANCH  12  14
ENDBRANCH  10  12
ENDBRANCH   4  10
BRANCH   9  21
HETATM   21  C   UNL     1      -7.524   9.455  66.414  1.00  0.00    -0.093 C  
BRANCH  21  22
HETATM   22  C   UNL     1      -9.029  10.191  65.831  1.00  0.00    -0.182 C  
HETATM   23  CA  UNL     1     -10.692  10.585  66.699  1.00  0.00    -0.155 C  
HETATM   24  C   UNL     1     -11.949  12.813  66.636  1.00  0.00    -0.341 C  
HETATM   25  C   UNL     1      -8.693  10.665  64.045  1.00  0.00    -0.136 C  
HETATM   26  C   UNL     1     -11.393  10.122  68.416  1.00  0.00    -0.113 C  
HETATM   27  N   UNL     1     -11.896  11.518  66.089  1.00  0.00     0.235 N  
HETATM   28  O   UNL     1     -11.617  13.303  67.708  1.00  0.00    -0.300 OA 
HETATM   29  S   UNL     1     -10.318  11.836  63.021  1.00  0.00    -0.016 SA 
HETATM   30  C   UNL     1     -11.925  12.120  64.578  1.00  0.00    -0.337 C  
HETATM   31  O   UNL     1     -11.090   8.970  68.868  1.00  0.00    -0.021 OA 
HETATM   32  OXT UNL     1     -12.266  10.939  68.804  1.00  0.00    -0.518 OA 
HETATM   33  CA  UNL     1     -11.885  13.533  65.284  1.00  0.00    -0.352 C  
BRANCH  33  34
HETATM   34  N   UNL     1     -10.680  14.422  65.165  1.00  0.00    -0.372 N  
HETATM   35  C   UNL     1      -9.600  14.641  66.032  1.00  0.00    -0.290 C  
HETATM   36  H   UNL     1     -10.640  14.962  64.300  1.00  0.00     0.000 HD 
HETATM   37  O   UNL     1      -8.756  15.426  65.600  1.00  0.00     0.238 OA 
BRANCH  35  38
HETATM   38  C   UNL     1      -9.360  13.973  67.457  1.00  0.00    -0.209 C  
HETATM   39  C   UNL     1     -10.032  14.446  68.645  1.00  0.00    -0.241 C  
HETATM   40  C   UNL     1     -11.227  15.125  71.438  1.00  0.00    -0.264 C  
HETATM   41  N   UNL     1     -11.199  15.497  68.181  1.00  0.00    -0.330 NA 
HETATM   42  N   UNL     1     -11.902  14.940  72.613  1.00  0.00    -0.269 NA 
HETATM   43  H   UNL     1      -9.455  13.497  71.001  1.00  0.00     0.000 HD 
HETATM   44  S   UNL     1     -12.398  16.547  69.983  1.00  0.00     1.808 SA 
HETATM   45  H1  UNL     1     -11.394  14.322  73.245  1.00  0.00     0.000 HD 
HETATM   46  H2  UNL     1     -12.802  15.368  72.829  1.00  0.00     0.000 HD 
HETATM   47  N   UNL     1     -10.072  14.167  70.542  1.00  0.00     1.615 NA 
BRANCH  38  48
HETATM   48  N   UNL     1      -8.702  12.887  67.675  1.00  0.00    -0.173 NA 
HETATM   49  H   UNL     1      -9.105  12.152  68.256  1.00  0.00     0.000 HD 
BRANCH  48  50
HETATM   50  O   UNL     1      -7.467  12.727  67.126  1.00  0.00    -0.126 OA 
HETATM   51  O   UNL     1      -5.426  14.723  69.223  1.00  0.00    -0.089 OA 
HETATM   52  C   UNL     1      -6.086  14.281  68.292  1.00  0.00    -0.119 C  
HETATM   53  C   UNL     1      -5.273  12.082  67.634  1.00  0.00    -0.078 C  
HETATM   54  C   UNL     1      -6.967  12.585  69.697  1.00  0.00     0.260 C  
HETATM   55  C   UNL     1      -6.493  12.820  68.198  1.00  0.00    -0.085 C  
HETATM   56  O   UNL     1      -6.508  15.050  67.268  1.00  0.00    -0.305 OA 
ENDBRANCH  48  50
ENDBRANCH  38  48
ENDBRANCH  35  38
ENDBRANCH  33  34
ENDBRANCH  21  22
ENDBRANCH   9  21
TORSDOF 11
ENDMDL
MODEL      126
REMARK 921   NORMALIZED FREE ENERGY PREDICTED BY IDOCK:    3.25 KCAL/MOL
REMARK 922        TOTAL FREE ENERGY PREDICTED BY IDOCK:    1.56 KCAL/MOL
REMARK 923 INTER-LIGAND FREE ENERGY PREDICTED BY IDOCK:   -3.04 KCAL/MOL
REMARK 924 INTRA-LIGAND FREE ENERGY PREDICTED BY IDOCK:    4.59 KCAL/MOL
REMARK 927      BINDING AFFINITY PREDICTED BY RF-SCORE:    0.00 PKD
ROOT
HETATM    1  C   UNL     1      -6.522  14.097  71.385  1.00  0.00     0.655 C  
HETATM    2  N   UNL     1      -7.000  14.199  70.021  1.00  0.00     0.061 NA 
HETATM    3  C   UNL     1      -8.025  15.034  69.608  1.00  0.00    -0.069 A  
HETATM    4  C   UNL     1      -8.749  14.439  68.550  1.00  0.00    -0.180 A  
HETATM    5  N   UNL     1      -8.341  16.236  70.148  1.00  0.00     1.159 NA 
HETATM    6  C   UNL     1      -8.103  13.154  68.436  1.00  0.00    -0.130 A  
HETATM    7  H2  UNL     1      -7.772  16.555  70.932  1.00  0.00     0.000 HD 
HETATM    8  H1  UNL     1      -9.095  16.850  69.844  1.00  0.00     0.000 HD 
HETATM    9  N   UNL     1      -6.847  13.227  69.098  1.00  0.00    -0.095 NA 
ENDROOT
BRANCH   4  10
HETATM   10  N   UNL     1      -9.862  15.057  68.008  1.00  0.00    -0.216 N  
HETATM   11  H   UNL     1     -10.005  14.946  67.004  1.00  0.00     0.000 HD 
BRANCH  10  12
HETATM   12  C   UNL     1     -10.784  15.797  68.681  1.00  0.00    -0.263 C  
HETATM   13  O   UNL     1     -10.718  17.020  68.643  1.00  0.00    -0.345 OA 
BRANCH  12  14
HETATM   14  N   UNL     1     -11.619  15.087  69.489  1.00  0.00    -0.292 N  
HETATM   15  H   UNL     1     -11.778  14.094  69.322  1.00  0.00     0.000 HD 
BRANCH  14  16
HETATM   16  C   UNL     1     -12.281  15.762  70.594  1.00  0.00    -0.384 C  
BRANCH  16  17
HETATM   17  C   UNL     1     -11.966  15.119  71.950  1.00  0.00    -0.395 C  
HETATM   18  H2  UNL     1     -13.888  15.372  72.663  1.00  0.00     0.000 HD 
HETATM   19  N   UNL     1     -12.926  15.553  72.954  1.00  0.00    -0.427 NA 
HETATM   20  H1  UNL     1     -12.718  15.125  73.857  1.00  0.00     0.000 HD 
ENDBRANCH  16  17
ENDBRANCH  14  16
ENDBRANCH  12  14
ENDBRANCH  10  12
ENDBRANCH   4  10
BRANCH   9  21
HETATM   21  C   UNL     1      -5.634  12.358  69.078  1.00  0.00    -0.064 C  
BRANCH  21  22
HETATM   22  C   UNL     1      -5.828  10.604  69.254  1.00  0.00    -0.041 C  
HETATM   23  CA  UNL     1      -6.140   9.488  70.783  1.00  0.00    -0.073 C  
HETATM   24  C   UNL     1      -7.933   7.675  71.000  1.00  0.00    -0.094 C  
HETATM   25  C   UNL     1      -5.762   9.916  67.508  1.00  0.00    -0.042 C  
HETATM   26  C   UNL     1      -6.122   9.838  72.661  1.00  0.00     0.635 C  
HETATM   27  N   UNL     1      -6.568   7.905  70.743  1.00  0.00    -0.037 N  
HETATM   28  O   UNL     1      -8.796   8.270  71.632  1.00  0.00    -0.140 OA 
HETATM   29  S   UNL     1      -6.194   7.717  67.304  1.00  0.00    -0.055 SA 
HETATM   30  C   UNL     1      -6.637   6.997  69.395  1.00  0.00    -0.045 C  
HETATM   31  O   UNL     1      -5.260  10.678  73.080  1.00  0.00    -0.318 OA 
HETATM   32  OXT UNL     1      -6.829   9.018  73.300  1.00  0.00    -0.334 OA 
HETATM   33  CA  UNL     1      -8.179   6.877  69.715  1.00  0.00    -0.131 C  
BRANCH  33  34
HETATM   34  N   UNL     1      -9.204   7.522  68.826  1.00  0.00    -0.145 N  
HETATM   35  C   UNL     1      -9.289   7.623  67.430  1.00  0.00    -0.141 C  
HETATM   36  H   UNL     1      -9.975   7.966  69.327  1.00  0.00     0.000 HD 
HETATM   37  O   UNL     1     -10.298   8.203  67.027  1.00  0.00    -0.284 OA 
BRANCH  35  38
HETATM   38  C   UNL     1      -8.256   7.055  66.361  1.00  0.00    -0.117 C  
HETATM   39  C   UNL     1      -8.004   5.639  66.220  1.00  0.00    -0.102 C  
HETATM   40  C   UNL     1      -7.142   2.718  65.577  1.00  0.00    -0.061 C  
HETATM   41  N   UNL     1      -9.132   4.836  67.095  1.00  0.00    -0.115 NA 
HETATM   42  N   UNL     1      -6.945   1.582  64.844  1.00  0.00    -0.038 NA 
HETATM   43  H   UNL     1      -6.146   4.741  64.632  1.00  0.00     0.000 HD 
HETATM   44  S   UNL     1      -8.868   2.446  67.146  1.00  0.00    -0.141 SA 
HETATM   45  H1  UNL     1      -6.195   1.700  64.162  1.00  0.00     0.000 HD 
HETATM   46  H2  UNL     1      -7.481   0.722  64.963  1.00  0.00     0.000 HD 
HETATM   47  N   UNL     1      -6.868   4.418  65.275  1.00  0.00    -0.056 NA 
BRANCH  38  48
HETATM   48  N   UNL     1      -7.681   7.741  65.435  1.00  0.00    -0.099 NA 
HETATM   49  H   UNL     1      -7.425   7.299  64.553  1.00  0.00     0.000 HD 
BRANCH  48  50
HETATM   50  O   UNL     1      -7.415   9.061  65.643  1.00  0.00    -0.085 OA 
HETATM   51  O   UNL     1      -7.079  10.307  62.344  1.00  0.00    -0.130 OA 
HETATM   52  C   UNL     1      -6.872   9.909  63.483  1.00  0.00    -0.123 C  
HETATM   53  C   UNL     1      -8.150  11.216  65.092  1.00  0.00     0.322 C  
HETATM   54  C   UNL     1      -9.106   9.130  63.639  1.00  0.00     0.149 C  
HETATM   55  C   UNL     1      -7.971   9.802  64.526  1.00  0.00    -0.144 C  
HETATM   56  O   UNL     1      -5.650   9.535  63.912  1.00  0.00    -0.068 OA 
ENDBRANCH  48  50
ENDBRANCH  38  48
ENDBRANCH  35  38
ENDBRANCH  33  34
ENDBRANCH  21  22
ENDBRANCH   9  21
TORSDOF 11
ENDMDL
MODEL      127
REMARK 921   NORMALIZED FREE ENERGY PREDICTED BY IDOCK:    3.25 KCAL/MOL
REMARK 922        TOTAL FREE ENERGY PREDICTED BY IDOCK:    1.56 KCAL/MOL
REMARK 923 INTER-LIGAND FREE ENERGY PREDICTED BY IDOCK:    1.44 KCAL/MOL
REMARK 924 INTRA-LIGAND FREE ENERGY PREDICTED BY IDOCK:    0.12 KCAL/MOL
REMARK 927      BINDING AFFINITY PREDICTED BY RF-SCORE:    0.00 PKD
ROOT
HETATM    1  C   UNL     1      -9.614  20.234  67.413  1.00  0.00    -0.432 C  
HETATM    2  N   UNL     1      -9.768  19.004  66.665  1.00  0.00    -0.324 NA 
HETATM    3  C   UNL     1     -10.592  18.852  65.562  1.00  0.00    -0.007 A  
HETATM    4  C   UNL     1     -11.119  17.541  65.518  1.00  0.00     0.382 A  
HETATM    5  N   UNL     1     -10.902  19.814  64.661  1.00  0.00     0.273 NA 
HETATM    6  C   UNL     1     -10.589  16.969  66.732  1.00  0.00    -0.191 A  
HETATM    7  H2  UNL     1     -10.492  20.736  64.809  1.00  0.00     0.000 HD 
HETATM    8  H1  UNL     1     -11.509  19.703  63.850  1.00  0.00     0.000 HD 
HETATM    9  N   UNL     1      -9.509  17.781  67.172  1.00  0.00    -0.260 NA 
ENDROOT
BRANCH   4  10
HETATM   10  N   UNL     1     -12.021  17.165  64.539  1.00  0.00     1.863 N  
HETATM   11  H   UNL     1     -12.403  17.910  63.956  1.00  0.00     0.000 HD 
BRANCH  10  12
HETATM   12  C   UNL     1     -12.448  15.901  64.276  1.00  0.00     0.506 C  
HETATM   13  O   UNL     1     -13.647  15.687  64.141  1.00  0.00     0.675 OA 
BRANCH  12  14
HETATM   14  N   UNL     1     -11.489  14.937  64.352  1.00  0.00    -0.649 N  
HETATM   15  H   UNL     1     -10.510  15.193  64.478  1.00  0.00     0.000 HD 
BRANCH  14  16
HETATM   16  C   UNL     1     -11.877  13.540  64.251  1.00  0.00    -0.428 C  
BRANCH  16  17
HETATM   17  C   UNL     1     -11.116  12.795  63.147  1.00  0.00     0.225 C  
HETATM   18  H2  UNL     1     -12.211  11.061  63.381  1.00  0.00     0.000 HD 
HETATM   19  N   UNL     1     -11.236  11.356  63.327  1.00  0.00    -0.838 NA 
HETATM   20  H1  UNL     1     -10.731  10.861  62.593  1.00  0.00     0.000 HD 
ENDBRANCH  16  17
ENDBRANCH  14  16
ENDBRANCH  12  14
ENDBRANCH  10  12
ENDBRANCH   4  10
BRANCH   9  21
HETATM   21  C   UNL     1      -8.410  17.564  68.159  1.00  0.00    -0.249 C  
BRANCH  21  22
HETATM   22  C   UNL     1      -8.076  15.918  68.730  1.00  0.00    -0.190 C  
HETATM   23  CA  UNL     1      -9.196  14.572  69.511  1.00  0.00     0.323 C  
HETATM   24  C   UNL     1      -9.357  12.122  68.790  1.00  0.00     0.083 C  
HETATM   25  C   UNL     1      -6.266  15.610  68.333  1.00  0.00    -0.102 C  
HETATM   26  C   UNL     1     -10.994  14.606  70.159  1.00  0.00    -0.076 C  
HETATM   27  N   UNL     1      -8.791  12.998  69.735  1.00  0.00     2.074 N  
HETATM   28  O   UNL     1     -10.371  12.143  68.104  1.00  0.00    -0.195 OA 
HETATM   29  S   UNL     1      -5.520  13.523  68.718  1.00  0.00    -0.079 SA 
HETATM   30  C   UNL     1      -7.311  12.376  69.472  1.00  0.00     0.455 C  
HETATM   31  O   UNL     1     -11.377  15.678  70.730  1.00  0.00    -0.309 OA 
HETATM   32  OXT UNL     1     -11.522  13.466  70.138  1.00  0.00    -0.147 OA 
HETATM   33  CA  UNL     1      -8.021  11.504  68.363  1.00  0.00    -0.143 C  
BRANCH  33  34
HETATM   34  N   UNL     1      -7.729  11.720  66.905  1.00  0.00    -0.239 N  
HETATM   35  C   UNL     1      -7.879  10.877  65.795  1.00  0.00    -0.057 C  
HETATM   36  H   UNL     1      -7.356  12.644  66.684  1.00  0.00     0.000 HD 
HETATM   37  O   UNL     1      -7.567  11.394  64.722  1.00  0.00     0.819 OA 
BRANCH  35  38
HETATM   38  C   UNL     1      -8.420   9.379  65.790  1.00  0.00    -0.132 C  
HETATM   39  C   UNL     1      -7.782   8.339  65.017  1.00  0.00    -0.105 C  
HETATM   40  C   UNL     1      -6.757   5.809  63.521  1.00  0.00    -0.036 C  
HETATM   41  N   UNL     1      -6.354   8.923  64.467  1.00  0.00    -0.070 NA 
HETATM   42  N   UNL     1      -6.273   4.543  63.346  1.00  0.00    -0.021 NA 
HETATM   43  H   UNL     1      -8.813   5.954  64.836  1.00  0.00     0.000 HD 
HETATM   44  S   UNL     1      -5.133   7.431  63.028  1.00  0.00    -0.034 SA 
HETATM   45  H1  UNL     1      -6.979   3.838  63.560  1.00  0.00     0.000 HD 
HETATM   46  H2  UNL     1      -5.324   4.329  63.040  1.00  0.00     0.000 HD 
HETATM   47  N   UNL     1      -8.009   6.499  64.527  1.00  0.00    -0.118 NA 
BRANCH  38  48
HETATM   48  N   UNL     1      -9.339   8.912  66.562  1.00  0.00    -0.179 NA 
HETATM   49  H   UNL     1     -10.125   8.395  66.168  1.00  0.00     0.000 HD 
BRANCH  48  50
HETATM   50  O   UNL     1      -9.255   9.111  67.907  1.00  0.00    -0.134 OA 
HETATM   51  O   UNL     1      -9.933   5.887  69.208  1.00  0.00    -0.154 OA 
HETATM   52  C   UNL     1     -10.000   7.061  68.864  1.00  0.00    -0.160 C  
HETATM   53  C   UNL     1      -8.175   8.343  69.838  1.00  0.00    -0.122 C  
HETATM   54  C   UNL     1      -8.012   6.823  67.594  1.00  0.00    -0.113 C  
HETATM   55  C   UNL     1      -8.773   7.880  68.504  1.00  0.00    -0.131 C  
HETATM   56  O   UNL     1     -11.168   7.728  68.778  1.00  0.00     0.189 OA 
ENDBRANCH  48  50
ENDBRANCH  38  48
ENDBRANCH  35  38
ENDBRANCH  33  34
ENDBRANCH  21  22
ENDBRANCH   9  21
TORSDOF 11
ENDMDL
MODEL      128
REMARK 921   NORMALIZED FREE ENERGY PREDICTED BY IDOCK:    3.40 KCAL/MOL
REMARK 922        TOTAL FREE ENERGY PREDICTED BY IDOCK:    1.81 KCAL/MOL
REMARK 923 INTER-LIGAND FREE ENERGY PREDICTED BY IDOCK:   -2.38 KCAL/MOL
REMARK 924 INTRA-LIGAND FREE ENERGY PREDICTED BY IDOCK:    4.19 KCAL/MOL
REMARK 927      BINDING AFFINITY PREDICTED BY RF-SCORE:    0.00 PKD
ROOT
HETATM    1  C   UNL     1      -6.522  14.097  71.385  1.00  0.00     0.655 C  
HETATM    2  N   UNL     1      -7.000  14.199  70.021  1.00  0.00     0.061 NA 
HETATM    3  C   UNL     1      -8.025  15.034  69.608  1.00  0.00    -0.069 A  
HETATM    4  C   UNL     1      -8.749  14.439  68.550  1.00  0.00    -0.180 A  
HETATM    5  N   UNL     1      -8.341  16.236  70.148  1.00  0.00     1.159 NA 
HETATM    6  C   UNL     1      -8.103  13.154  68.436  1.00  0.00    -0.130 A  
HETATM    7  H2  UNL     1      -7.772  16.555  70.932  1.00  0.00     0.000 HD 
HETATM    8  H1  UNL     1      -9.095  16.850  69.844  1.00  0.00     0.000 HD 
HETATM    9  N   UNL     1      -6.847  13.227  69.098  1.00  0.00    -0.095 NA 
ENDROOT
BRANCH   4  10
HETATM   10  N   UNL     1      -9.862  15.057  68.008  1.00  0.00    -0.216 N  
HETATM   11  H   UNL     1     -10.772  14.722  68.322  1.00  0.00     0.000 HD 
BRANCH  10  12
HETATM   12  C   UNL     1      -9.862  16.067  67.097  1.00  0.00    -0.236 C  
HETATM   13  O   UNL     1     -10.059  15.811  65.915  1.00  0.00    -0.306 OA 
BRANCH  12  14
HETATM   14  N   UNL     1      -9.470  17.280  67.576  1.00  0.00    -0.243 N  
HETATM   15  H   UNL     1      -9.825  17.620  68.469  1.00  0.00     0.000 HD 
BRANCH  14  16
HETATM   16  C   UNL     1      -8.540  18.083  66.800  1.00  0.00    -0.255 C  
BRANCH  16  17
HETATM   17  C   UNL     1      -7.265  18.427  67.580  1.00  0.00    -0.214 C  
HETATM   18  H2  UNL     1      -7.159  20.343  66.819  1.00  0.00     0.000 HD 
HETATM   19  N   UNL     1      -6.558  19.527  66.942  1.00  0.00    -0.193 NA 
HETATM   20  H1  UNL     1      -5.711  19.757  67.461  1.00  0.00     0.000 HD 
ENDBRANCH  16  17
ENDBRANCH  14  16
ENDBRANCH  12  14
ENDBRANCH  10  12
ENDBRANCH   4  10
BRANCH   9  21
HETATM   21  C   UNL     1      -5.634  12.358  69.078  1.00  0.00    -0.064 C  
BRANCH  21  22
HETATM   22  C   UNL     1      -5.828  10.604  69.254  1.00  0.00    -0.041 C  
HETATM   23  CA  UNL     1      -6.140   9.488  70.783  1.00  0.00    -0.073 C  
HETATM   24  C   UNL     1      -7.933   7.675  71.000  1.00  0.00    -0.094 C  
HETATM   25  C   UNL     1      -5.762   9.916  67.508  1.00  0.00    -0.042 C  
HETATM   26  C   UNL     1      -6.122   9.838  72.661  1.00  0.00     0.635 C  
HETATM   27  N   UNL     1      -6.568   7.905  70.743  1.00  0.00    -0.037 N  
HETATM   28  O   UNL     1      -8.796   8.270  71.632  1.00  0.00    -0.140 OA 
HETATM   29  S   UNL     1      -6.194   7.717  67.304  1.00  0.00    -0.055 SA 
HETATM   30  C   UNL     1      -6.637   6.997  69.395  1.00  0.00    -0.045 C  
HETATM   31  O   UNL     1      -5.260  10.678  73.080  1.00  0.00    -0.318 OA 
HETATM   32  OXT UNL     1      -6.829   9.018  73.300  1.00  0.00    -0.334 OA 
HETATM   33  CA  UNL     1      -8.179   6.877  69.715  1.00  0.00    -0.131 C  
BRANCH  33  34
HETATM   34  N   UNL     1      -9.204   7.522  68.826  1.00  0.00    -0.145 N  
HETATM   35  C   UNL     1      -9.289   7.623  67.430  1.00  0.00    -0.141 C  
HETATM   36  H   UNL     1      -9.975   7.966  69.327  1.00  0.00     0.000 HD 
HETATM   37  O   UNL     1     -10.298   8.203  67.027  1.00  0.00    -0.284 OA 
BRANCH  35  38
HETATM   38  C   UNL     1      -8.256   7.055  66.361  1.00  0.00    -0.117 C  
HETATM   39  C   UNL     1      -8.004   5.639  66.220  1.00  0.00    -0.102 C  
HETATM   40  C   UNL     1      -7.142   2.718  65.577  1.00  0.00    -0.061 C  
HETATM   41  N   UNL     1      -9.132   4.836  67.095  1.00  0.00    -0.115 NA 
HETATM   42  N   UNL     1      -6.945   1.582  64.844  1.00  0.00    -0.038 NA 
HETATM   43  H   UNL     1      -6.146   4.741  64.632  1.00  0.00     0.000 HD 
HETATM   44  S   UNL     1      -8.868   2.446  67.146  1.00  0.00    -0.141 SA 
HETATM   45  H1  UNL     1      -6.195   1.700  64.162  1.00  0.00     0.000 HD 
HETATM   46  H2  UNL     1      -7.481   0.722  64.963  1.00  0.00     0.000 HD 
HETATM   47  N   UNL     1      -6.868   4.418  65.275  1.00  0.00    -0.056 NA 
BRANCH  38  48
HETATM   48  N   UNL     1      -7.681   7.741  65.435  1.00  0.00    -0.099 NA 
HETATM   49  H   UNL     1      -7.425   7.299  64.553  1.00  0.00     0.000 HD 
BRANCH  48  50
HETATM   50  O   UNL     1      -7.415   9.061  65.643  1.00  0.00    -0.085 OA 
HETATM   51  O   UNL     1      -7.079  10.307  62.344  1.00  0.00    -0.130 OA 
HETATM   52  C   UNL     1      -6.872   9.909  63.483  1.00  0.00    -0.123 C  
HETATM   53  C   UNL     1      -8.150  11.216  65.092  1.00  0.00     0.322 C  
HETATM   54  C   UNL     1      -9.106   9.130  63.639  1.00  0.00     0.149 C  
HETATM   55  C   UNL     1      -7.971   9.802  64.526  1.00  0.00    -0.144 C  
HETATM   56  O   UNL     1      -5.650   9.535  63.912  1.00  0.00    -0.068 OA 
ENDBRANCH  48  50
ENDBRANCH  38  48
ENDBRANCH  35  38
ENDBRANCH  33  34
ENDBRANCH  21  22
ENDBRANCH   9  21
TORSDOF 11
ENDMDL
MODEL      129
REMARK 921   NORMALIZED FREE ENERGY PREDICTED BY IDOCK:    3.86 KCAL/MOL
REMARK 922        TOTAL FREE ENERGY PREDICTED BY IDOCK:    2.56 KCAL/MOL
REMARK 923 INTER-LIGAND FREE ENERGY PREDICTED BY IDOCK:    2.56 KCAL/MOL
REMARK 924 INTRA-LIGAND FREE ENERGY PREDICTED BY IDOCK:    0.00 KCAL/MOL
REMARK 927      BINDING AFFINITY PREDICTED BY RF-SCORE:    0.00 PKD
ROOT
HETATM    1  C   UNL     1      -9.427  19.220  66.801  1.00  0.00    -0.329 C  
HETATM    2  N   UNL     1      -9.559  18.060  65.944  1.00  0.00    -0.516 NA 
HETATM    3  C   UNL     1     -10.546  17.899  64.985  1.00  0.00     0.871 A  
HETATM    4  C   UNL     1     -10.903  16.536  64.870  1.00  0.00    -0.204 A  
HETATM    5  N   UNL     1     -11.135  18.890  64.274  1.00  0.00     2.189 NA 
HETATM    6  C   UNL     1     -10.091  15.930  65.897  1.00  0.00    -0.352 A  
HETATM    7  H2  UNL     1     -10.825  19.843  64.463  1.00  0.00     0.000 HD 
HETATM    8  H1  UNL     1     -11.862  18.772  63.569  1.00  0.00     0.000 HD 
HETATM    9  N   UNL     1      -9.060  16.844  66.246  1.00  0.00    -0.361 NA 
ENDROOT
BRANCH   4  10
HETATM   10  N   UNL     1     -11.914  16.131  64.017  1.00  0.00    -0.648 N  
HETATM   11  H   UNL     1     -12.147  16.760  63.249  1.00  0.00     0.000 HD 
BRANCH  10  12
HETATM   12  C   UNL     1     -12.629  14.977  64.102  1.00  0.00     0.160 C  
HETATM   13  O   UNL     1     -13.780  15.011  64.521  1.00  0.00     1.237 OA 
BRANCH  12  14
HETATM   14  N   UNL     1     -11.922  13.839  63.860  1.00  0.00    -0.654 N  
HETATM   15  H   UNL     1     -10.905  13.837  63.934  1.00  0.00     0.000 HD 
BRANCH  14  16
HETATM   16  C   UNL     1     -12.634  12.625  63.492  1.00  0.00    -0.311 C  
BRANCH  16  17
HETATM   17  C   UNL     1     -12.686  11.604  64.635  1.00  0.00     0.827 C  
HETATM   18  H2  UNL     1     -13.222  13.014  66.046  1.00  0.00     0.000 HD 
HETATM   19  N   UNL     1     -12.535  12.270  65.921  1.00  0.00    -0.375 NA 
HETATM   20  H1  UNL     1     -12.570  11.591  66.681  1.00  0.00     0.000 HD 
ENDBRANCH  16  17
ENDBRANCH  14  16
ENDBRANCH  12  14
ENDBRANCH  10  12
ENDBRANCH   4  10
BRANCH   9  21
HETATM   21  C   UNL     1      -7.780  16.694  67.001  1.00  0.00    -0.200 C  
BRANCH  21  22
HETATM   22  C   UNL     1      -7.507  15.221  67.950  1.00  0.00    -0.157 C  
HETATM   23  CA  UNL     1      -8.574  14.316  69.262  1.00  0.00     0.271 C  
HETATM   24  C   UNL     1      -9.134  11.820  69.308  1.00  0.00     0.613 C  
HETATM   25  C   UNL     1      -5.861  14.541  67.355  1.00  0.00     0.294 C  
HETATM   26  C   UNL     1     -10.186  14.798  70.170  1.00  0.00     0.251 C  
HETATM   27  N   UNL     1      -8.297  12.811  69.852  1.00  0.00     2.283 N  
HETATM   28  O   UNL     1     -10.260  11.821  68.828  1.00  0.00    -0.211 OA 
HETATM   29  S   UNL     1      -5.272  12.535  68.186  1.00  0.00    -0.077 SA 
HETATM   30  C   UNL     1      -6.976  11.918  69.529  1.00  0.00     0.058 C  
HETATM   31  O   UNL     1     -10.330  16.028  70.469  1.00  0.00    -0.047 OA 
HETATM   32  OXT UNL     1     -10.822  13.789  70.566  1.00  0.00     0.647 OA 
HETATM   33  CA  UNL     1      -7.987  10.910  68.853  1.00  0.00    -0.146 C  
BRANCH  33  34
HETATM   34  N   UNL     1      -7.983  10.692  67.367  1.00  0.00    -0.110 N  
HETATM   35  C   UNL     1      -8.499   9.652  66.581  1.00  0.00    -0.123 C  
HETATM   36  H   UNL     1      -7.522  11.432  66.835  1.00  0.00     0.000 HD 
HETATM   37  O   UNL     1      -8.346   9.810  65.370  1.00  0.00    -0.129 OA 
BRANCH  35  38
HETATM   38  C   UNL     1      -9.262   8.350  67.089  1.00  0.00    -0.143 C  
HETATM   39  C   UNL     1      -8.957   7.036  66.574  1.00  0.00    -0.147 C  
HETATM   40  C   UNL     1      -8.650   4.048  65.755  1.00  0.00    -0.110 C  
HETATM   41  N   UNL     1      -7.585   7.149  65.684  1.00  0.00    -0.088 NA 
HETATM   42  N   UNL     1      -8.415   2.709  65.893  1.00  0.00    -0.095 NA 
HETATM   43  H   UNL     1     -10.367   4.952  67.242  1.00  0.00     0.000 HD 
HETATM   44  S   UNL     1      -6.913   5.115  64.589  1.00  0.00    -0.050 SA 
HETATM   45  H1  UNL     1      -9.169   2.245  66.399  1.00  0.00     0.000 HD 
HETATM   46  H2  UNL     1      -7.588   2.232  65.533  1.00  0.00     0.000 HD 
HETATM   47  N   UNL     1      -9.561   5.220  66.679  1.00  0.00    -0.141 NA 
BRANCH  38  48
HETATM   48  N   UNL     1     -10.079   8.300  68.084  1.00  0.00    -0.192 NA 
HETATM   49  H   UNL     1     -10.887   7.679  68.052  1.00  0.00     0.000 HD 
BRANCH  48  50
HETATM   50  O   UNL     1      -9.857   9.080  69.178  1.00  0.00    -0.168 OA 
HETATM   51  O   UNL     1     -12.891   8.764  70.979  1.00  0.00    -0.167 OA 
HETATM   52  C   UNL     1     -11.963   9.168  70.289  1.00  0.00     0.151 C  
HETATM   53  C   UNL     1      -9.866   9.048  71.520  1.00  0.00    -0.381 C  
HETATM   54  C   UNL     1     -11.046   6.982  70.209  1.00  0.00    -0.323 C  
HETATM   55  C   UNL     1     -10.597   8.505  70.285  1.00  0.00    -0.226 C  
HETATM   56  O   UNL     1     -12.073  10.236  69.474  1.00  0.00    -0.111 OA 
ENDBRANCH  48  50
ENDBRANCH  38  48
ENDBRANCH  35  38
ENDBRANCH  33  34
ENDBRANCH  21  22
ENDBRANCH   9  21
TORSDOF 11
ENDMDL
MODEL      130
REMARK 921   NORMALIZED FREE ENERGY PREDICTED BY IDOCK:    4.00 KCAL/MOL
REMARK 922        TOTAL FREE ENERGY PREDICTED BY IDOCK:    2.78 KCAL/MOL
REMARK 923 INTER-LIGAND FREE ENERGY PREDICTED BY IDOCK:   -3.34 KCAL/MOL
REMARK 924 INTRA-LIGAND FREE ENERGY PREDICTED BY IDOCK:    6.12 KCAL/MOL
REMARK 927      BINDING AFFINITY PREDICTED BY RF-SCORE:    0.00 PKD
ROOT
HETATM    1  C   UNL     1     -10.736  11.438  69.089  1.00  0.00    -0.189 C  
HETATM    2  N   UNL     1     -11.518  11.393  70.307  1.00  0.00    -0.234 NA 
HETATM    3  C   UNL     1     -11.661  10.273  71.110  1.00  0.00    -0.300 A  
HETATM    4  C   UNL     1     -12.943  10.252  71.703  1.00  0.00    -0.465 A  
HETATM    5  N   UNL     1     -10.737   9.298  71.288  1.00  0.00    -0.326 NA 
HETATM    6  C   UNL     1     -13.559  11.416  71.116  1.00  0.00     0.762 A  
HETATM    7  H2  UNL     1      -9.856   9.397  70.784  1.00  0.00     0.000 HD 
HETATM    8  H1  UNL     1     -10.841   8.474  71.879  1.00  0.00     0.000 HD 
HETATM    9  N   UNL     1     -12.533  12.239  70.578  1.00  0.00    -0.242 NA 
ENDROOT
BRANCH   4  10
HETATM   10  N   UNL     1     -13.344   9.196  72.502  1.00  0.00    -0.555 N  
HETATM   11  H   UNL     1     -13.826   9.433  73.369  1.00  0.00     0.000 HD 
BRANCH  10  12
HETATM   12  C   UNL     1     -13.159   7.873  72.246  1.00  0.00    -0.073 C  
HETATM   13  O   UNL     1     -14.061   7.229  71.723  1.00  0.00    -0.394 OA 
BRANCH  12  14
HETATM   14  N   UNL     1     -12.017   7.338  72.760  1.00  0.00    -0.537 N  
HETATM   15  H   UNL     1     -11.607   7.719  73.612  1.00  0.00     0.000 HD 
BRANCH  14  16
HETATM   16  C   UNL     1     -11.389   6.217  72.080  1.00  0.00    -0.297 C  
BRANCH  16  17
HETATM   17  C   UNL     1     -10.272   5.574  72.911  1.00  0.00    -0.186 C  
HETATM   18  H2  UNL     1     -11.582   4.437  74.032  1.00  0.00     0.000 HD 
HETATM   19  N   UNL     1     -10.799   5.075  74.173  1.00  0.00    -0.352 NA 
HETATM   20  H1  UNL     1     -10.057   4.647  74.726  1.00  0.00     0.000 HD 
ENDBRANCH  16  17
ENDBRANCH  14  16
ENDBRANCH  12  14
ENDBRANCH  10  12
ENDBRANCH   4  10
BRANCH   9  21
HETATM   21  C   UNL     1     -12.503  13.661  70.123  1.00  0.00    -0.239 C  
BRANCH  21  22
HETATM   22  C   UNL     1     -11.753  14.051  68.564  1.00  0.00    -0.387 C  
HETATM   23  CA  UNL     1      -9.947  14.461  68.067  1.00  0.00    -0.225 C  
HETATM   24  C   UNL     1      -8.618  13.401  66.154  1.00  0.00     0.742 C  
HETATM   25  C   UNL     1     -13.132  13.903  67.296  1.00  0.00     2.139 C  
HETATM   26  C   UNL     1      -8.376  14.819  69.096  1.00  0.00    -0.104 C  
HETATM   27  N   UNL     1      -9.365  14.531  66.535  1.00  0.00    -0.282 N  
HETATM   28  O   UNL     1      -7.948  12.575  66.760  1.00  0.00    -0.065 OA 
HETATM   29  S   UNL     1     -12.511  14.116  65.145  1.00  0.00    -0.396 SA 
HETATM   30  C   UNL     1     -10.276  14.421  65.192  1.00  0.00    -0.391 C  
HETATM   31  O   UNL     1      -8.537  15.462  70.184  1.00  0.00     0.138 OA 
HETATM   32  OXT UNL     1      -7.326  14.563  68.454  1.00  0.00    -0.100 OA 
HETATM   33  CA  UNL     1      -9.448  13.108  64.899  1.00  0.00     0.488 C  
BRANCH  33  34
HETATM   34  N   UNL     1     -10.101  11.756  64.946  1.00  0.00    -0.253 N  
HETATM   35  C   UNL     1      -9.557  10.466  65.007  1.00  0.00    -0.280 C  
HETATM   36  H   UNL     1     -11.121  11.781  64.931  1.00  0.00     0.000 HD 
HETATM   37  O   UNL     1     -10.395   9.566  65.066  1.00  0.00     0.324 OA 
BRANCH  35  38
HETATM   38  C   UNL     1      -8.014  10.073  65.034  1.00  0.00    -0.143 C  
HETATM   39  C   UNL     1      -7.521   8.869  64.406  1.00  0.00    -0.106 C  
HETATM   40  C   UNL     1      -6.026   6.411  63.219  1.00  0.00    -0.026 C  
HETATM   41  N   UNL     1      -8.730   8.244  63.494  1.00  0.00     0.197 NA 
HETATM   42  N   UNL     1      -5.131   5.711  62.459  1.00  0.00    -0.013 NA 
HETATM   43  H   UNL     1      -5.039   8.123  64.658  1.00  0.00     0.000 HD 
HETATM   44  S   UNL     1      -8.221   6.148  62.430  1.00  0.00    -0.050 SA 
HETATM   45  H1  UNL     1      -4.177   5.825  62.801  1.00  0.00     0.000 HD 
HETATM   46  H2  UNL     1      -5.386   5.145  61.650  1.00  0.00     0.000 HD 
HETATM   47  N   UNL     1      -5.912   7.846  64.210  1.00  0.00    -0.052 NA 
BRANCH  38  48
HETATM   48  N   UNL     1      -7.056  10.825  65.454  1.00  0.00    -0.354 NA 
HETATM   49  H   UNL     1      -6.311  11.108  64.818  1.00  0.00     0.000 HD 
BRANCH  48  50
HETATM   50  O   UNL     1      -7.044  11.239  66.751  1.00  0.00    -0.133 OA 
HETATM   51  O   UNL     1      -6.681   8.197  68.529  1.00  0.00    -0.060 OA 
HETATM   52  C   UNL     1      -7.112   9.226  68.024  1.00  0.00    -0.078 C  
HETATM   53  C   UNL     1      -5.785  11.144  68.724  1.00  0.00    -0.043 C  
HETATM   54  C   UNL     1      -5.144   9.431  66.716  1.00  0.00    -0.034 C  
HETATM   55  C   UNL     1      -6.203  10.323  67.498  1.00  0.00    -0.057 C  
HETATM   56  O   UNL     1      -8.430   9.476  67.893  1.00  0.00    -0.118 OA 
ENDBRANCH  48  50
ENDBRANCH  38  48
ENDBRANCH  35  38
ENDBRANCH  33  34
ENDBRANCH  21  22
ENDBRANCH   9  21
TORSDOF 11
ENDMDL
MODEL      131
REMARK 921   NORMALIZED FREE ENERGY PREDICTED BY IDOCK:    4.16 KCAL/MOL
REMARK 922        TOTAL FREE ENERGY PREDICTED BY IDOCK:    3.05 KCAL/MOL
REMARK 923 INTER-LIGAND FREE ENERGY PREDICTED BY IDOCK:   -2.48 KCAL/MOL
REMARK 924 INTRA-LIGAND FREE ENERGY PREDICTED BY IDOCK:    5.52 KCAL/MOL
REMARK 927      BINDING AFFINITY PREDICTED BY RF-SCORE:    0.00 PKD
ROOT
HETATM    1  C   UNL     1      -5.976   7.877  69.098  1.00  0.00    -0.034 C  
HETATM    2  N   UNL     1      -6.454   7.222  70.298  1.00  0.00    -0.041 NA 
HETATM    3  C   UNL     1      -6.283   5.876  70.581  1.00  0.00    -0.031 A  
HETATM    4  C   UNL     1      -7.388   5.382  71.310  1.00  0.00    -0.084 A  
HETATM    5  N   UNL     1      -5.238   5.107  70.191  1.00  0.00    -0.004 NA 
HETATM    6  C   UNL     1      -8.249   6.538  71.361  1.00  0.00    -0.120 A  
HETATM    7  H2  UNL     1      -4.511   5.560  69.638  1.00  0.00     0.000 HD 
HETATM    8  H1  UNL     1      -5.112   4.117  70.399  1.00  0.00     0.000 HD 
HETATM    9  N   UNL     1      -7.472   7.687  71.052  1.00  0.00    -0.073 NA 
ENDROOT
BRANCH   4  10
HETATM   10  N   UNL     1      -7.476   4.046  71.657  1.00  0.00    -0.058 N  
HETATM   11  H   UNL     1      -6.850   3.403  71.173  1.00  0.00     0.000 HD 
BRANCH  10  12
HETATM   12  C   UNL     1      -8.316   3.504  72.580  1.00  0.00    -0.081 C  
HETATM   13  O   UNL     1      -7.874   3.168  73.672  1.00  0.00    -0.063 OA 
BRANCH  12  14
HETATM   14  N   UNL     1      -9.571   3.229  72.130  1.00  0.00    -0.129 N  
HETATM   15  H   UNL     1      -9.707   2.651  71.301  1.00  0.00     0.000 HD 
BRANCH  14  16
HETATM   16  C   UNL     1     -10.716   3.768  72.846  1.00  0.00    -0.110 C  
BRANCH  16  17
HETATM   17  C   UNL     1     -11.583   2.674  73.480  1.00  0.00    -0.059 C  
HETATM   18  H2  UNL     1     -10.000   1.830  74.503  1.00  0.00     0.000 HD 
HETATM   19  N   UNL     1     -10.761   1.543  73.886  1.00  0.00    -0.103 NA 
HETATM   20  H1  UNL     1     -11.337   0.815  74.309  1.00  0.00     0.000 HD 
ENDBRANCH  16  17
ENDBRANCH  14  16
ENDBRANCH  12  14
ENDBRANCH  10  12
ENDBRANCH   4  10
BRANCH   9  21
HETATM   21  C   UNL     1      -7.707   9.151  71.223  1.00  0.00    -0.021 C  
BRANCH  21  22
HETATM   22  C   UNL     1      -7.004  10.280  70.049  1.00  0.00    -0.152 C  
HETATM   23  CA  UNL     1      -7.162  10.423  68.144  1.00  0.00    -0.087 C  
HETATM   24  C   UNL     1      -7.705  12.543  66.818  1.00  0.00     0.173 C  
HETATM   25  C   UNL     1      -6.030  11.520  71.070  1.00  0.00     0.297 C  
HETATM   26  C   UNL     1      -7.936   9.277  66.824  1.00  0.00    -0.108 C  
HETATM   27  N   UNL     1      -6.664  11.692  67.232  1.00  0.00    -0.111 N  
HETATM   28  O   UNL     1      -8.901  12.391  66.607  1.00  0.00    -0.208 OA 
HETATM   29  S   UNL     1      -5.161  13.256  69.934  1.00  0.00    -0.093 SA 
HETATM   30  C   UNL     1      -5.810  12.958  67.794  1.00  0.00    -0.139 C  
HETATM   31  O   UNL     1      -7.827   8.023  67.018  1.00  0.00    -0.101 OA 
HETATM   32  OXT UNL     1      -8.274   9.910  65.792  1.00  0.00    -0.119 OA 
HETATM   33  CA  UNL     1      -7.070  13.818  67.385  1.00  0.00    -0.073 C  
BRANCH  33  34
HETATM   34  N   UNL     1      -7.930  14.473  68.428  1.00  0.00    -0.133 N  
HETATM   35  C   UNL     1      -9.292  14.331  68.729  1.00  0.00    -0.119 C  
HETATM   36  H   UNL     1      -7.436  15.140  69.022  1.00  0.00     0.000 HD 
HETATM   37  O   UNL     1      -9.671  15.008  69.684  1.00  0.00    -0.161 OA 
BRANCH  35  38
HETATM   38  C   UNL     1     -10.346  13.389  67.995  1.00  0.00    -0.241 C  
HETATM   39  C   UNL     1     -11.199  12.482  68.727  1.00  0.00    -0.273 C  
HETATM   40  C   UNL     1     -13.204  10.394  69.871  1.00  0.00     0.610 C  
HETATM   41  N   UNL     1     -11.067  12.840  70.320  1.00  0.00     0.635 NA 
HETATM   42  N   UNL     1     -14.403   9.794  70.136  1.00  0.00     0.759 NA 
HETATM   43  H   UNL     1     -12.748  10.785  67.501  1.00  0.00     0.000 HD 
HETATM   44  S   UNL     1     -12.291  11.385  71.794  1.00  0.00     0.450 SA 
HETATM   45  H1  UNL     1     -14.800   9.363  69.301  1.00  0.00     0.000 HD 
HETATM   46  H2  UNL     1     -14.846   9.778  71.054  1.00  0.00     0.000 HD 
HETATM   47  N   UNL     1     -12.491  11.096  68.437  1.00  0.00    -0.089 NA 
BRANCH  38  48
HETATM   48  N   UNL     1     -10.658  13.443  66.747  1.00  0.00    -0.276 NA 
HETATM   49  H   UNL     1     -10.126  14.037  66.110  1.00  0.00     0.000 HD 
BRANCH  48  50
HETATM   50  O   UNL     1     -11.703  12.704  66.282  1.00  0.00    -0.363 OA 
HETATM   51  O   UNL     1     -12.638  14.450  63.345  1.00  0.00    -0.729 OA 
HETATM   52  C   UNL     1     -12.587  13.983  64.476  1.00  0.00    -0.206 C  
HETATM   53  C   UNL     1     -12.474  11.553  64.393  1.00  0.00     0.351 C  
HETATM   54  C   UNL     1     -10.368  13.240  64.089  1.00  0.00    -0.204 C  
HETATM   55  C   UNL     1     -11.702  12.802  64.834  1.00  0.00    -0.352 C  
HETATM   56  O   UNL     1     -13.312  14.475  65.500  1.00  0.00    -0.404 OA 
ENDBRANCH  48  50
ENDBRANCH  38  48
ENDBRANCH  35  38
ENDBRANCH  33  34
ENDBRANCH  21  22
ENDBRANCH   9  21
TORSDOF 11
ENDMDL
MODEL      132
REMARK 921   NORMALIZED FREE ENERGY PREDICTED BY IDOCK:    4.19 KCAL/MOL
REMARK 922        TOTAL FREE ENERGY PREDICTED BY IDOCK:    3.10 KCAL/MOL
REMARK 923 INTER-LIGAND FREE ENERGY PREDICTED BY IDOCK:   -0.27 KCAL/MOL
REMARK 924 INTRA-LIGAND FREE ENERGY PREDICTED BY IDOCK:    3.37 KCAL/MOL
REMARK 927      BINDING AFFINITY PREDICTED BY RF-SCORE:    0.00 PKD
ROOT
HETATM    1  C   UNL     1      -5.957  12.949  69.942  1.00  0.00    -0.135 C  
HETATM    2  N   UNL     1      -5.851  13.500  68.606  1.00  0.00    -0.081 NA 
HETATM    3  C   UNL     1      -6.211  14.792  68.258  1.00  0.00    -0.124 A  
HETATM    4  C   UNL     1      -6.714  14.823  66.938  1.00  0.00     1.023 A  
HETATM    5  N   UNL     1      -6.143  15.882  69.060  1.00  0.00    -0.118 NA 
HETATM    6  C   UNL     1      -6.685  13.427  66.577  1.00  0.00     2.399 A  
HETATM    7  H2  UNL     1      -5.795  15.738  70.008  1.00  0.00     0.000 HD 
HETATM    8  H1  UNL     1      -6.408  16.832  68.804  1.00  0.00     0.000 HD 
HETATM    9  N   UNL     1      -5.827  12.750  67.485  1.00  0.00    -0.202 NA 
ENDROOT
BRANCH   4  10
HETATM   10  N   UNL     1      -7.196  15.996  66.384  1.00  0.00     0.082 N  
HETATM   11  H   UNL     1      -7.886  15.902  65.639  1.00  0.00     0.000 HD 
BRANCH  10  12
HETATM   12  C   UNL     1      -6.842  17.262  66.735  1.00  0.00    -0.216 C  
HETATM   13  O   UNL     1      -7.711  18.062  67.058  1.00  0.00    -0.206 OA 
BRANCH  12  14
HETATM   14  N   UNL     1      -5.532  17.574  66.530  1.00  0.00    -0.175 N  
HETATM   15  H   UNL     1      -4.799  17.088  67.046  1.00  0.00     0.000 HD 
BRANCH  14  16
HETATM   16  C   UNL     1      -5.191  18.608  65.567  1.00  0.00    -0.159 C  
BRANCH  16  17
HETATM   17  C   UNL     1      -6.425  19.191  64.867  1.00  0.00    -0.134 C  
HETATM   18  H2  UNL     1      -5.666  21.112  64.844  1.00  0.00     0.000 HD 
HETATM   19  N   UNL     1      -6.521  20.623  65.112  1.00  0.00    -0.375 NA 
HETATM   20  H1  UNL     1      -7.341  21.011  64.646  1.00  0.00     0.000 HD 
ENDBRANCH  16  17
ENDBRANCH  14  16
ENDBRANCH  12  14
ENDBRANCH  10  12
ENDBRANCH   4  10
BRANCH   9  21
HETATM   21  C   UNL     1      -5.177  11.406  67.463  1.00  0.00    -0.050 C  
BRANCH  21  22
HETATM   22  C   UNL     1      -6.168   9.976  67.117  1.00  0.00    -0.066 C  
HETATM   23  CA  UNL     1      -6.839   8.571  68.236  1.00  0.00    -0.066 C  
HETATM   24  C   UNL     1      -9.253   7.725  68.332  1.00  0.00    -0.137 C  
HETATM   25  C   UNL     1      -6.592  10.092  65.290  1.00  0.00    -0.119 C  
HETATM   26  C   UNL     1      -6.492   8.091  70.053  1.00  0.00    -0.033 C  
HETATM   27  N   UNL     1      -7.972   7.464  67.810  1.00  0.00    -0.117 N  
HETATM   28  O   UNL     1      -9.669   8.308  69.324  1.00  0.00    -0.172 OA 
HETATM   29  S   UNL     1      -8.035   8.549  64.520  1.00  0.00    -0.151 SA 
HETATM   30  C   UNL     1      -8.583   7.292  66.312  1.00  0.00    -0.142 C  
HETATM   31  O   UNL     1      -5.301   8.260  70.473  1.00  0.00    -0.023 OA 
HETATM   32  OXT UNL     1      -7.445   7.448  70.560  1.00  0.00    -0.079 OA 
HETATM   33  CA  UNL     1      -9.961   7.691  66.972  1.00  0.00    -0.240 C  
BRANCH  33  34
HETATM   34  N   UNL     1     -10.628   8.996  66.640  1.00  0.00    -0.162 N  
HETATM   35  C   UNL     1     -11.388   9.875  67.426  1.00  0.00     0.418 C  
HETATM   36  H   UNL     1     -10.507   9.295  65.672  1.00  0.00     0.000 HD 
HETATM   37  O   UNL     1     -11.762  10.887  66.833  1.00  0.00    -0.255 OA 
BRANCH  35  38
HETATM   38  C   UNL     1     -11.772   9.705  68.961  1.00  0.00     0.488 C  
HETATM   39  C   UNL     1     -12.178  10.826  69.776  1.00  0.00    -0.288 C  
HETATM   40  C   UNL     1     -13.085  12.923  71.890  1.00  0.00    -0.373 C  
HETATM   41  N   UNL     1     -12.429  12.106  68.783  1.00  0.00     0.109 NA 
HETATM   42  N   UNL     1     -13.880  13.528  72.823  1.00  0.00    -0.680 NA 
HETATM   43  H   UNL     1     -12.577  10.573  72.337  1.00  0.00     0.000 HD 
HETATM   44  S   UNL     1     -12.993  14.161  69.898  1.00  0.00     0.574 SA 
HETATM   45  H1  UNL     1     -13.920  12.990  73.689  1.00  0.00     0.000 HD 
HETATM   46  H2  UNL     1     -14.373  14.408  72.672  1.00  0.00     0.000 HD 
HETATM   47  N   UNL     1     -12.616  11.266  71.590  1.00  0.00    -0.303 NA 
BRANCH  38  48
HETATM   48  N   UNL     1     -11.916   8.584  69.579  1.00  0.00     0.439 NA 
HETATM   49  H   UNL     1     -12.218   7.753  69.070  1.00  0.00     0.000 HD 
BRANCH  48  50
HETATM   50  O   UNL     1     -11.662   8.514  70.915  1.00  0.00    -0.281 OA 
HETATM   51  O   UNL     1     -14.332   6.512  72.103  1.00  0.00    -0.148 OA 
HETATM   52  C   UNL     1     -13.581   7.441  71.834  1.00  0.00    -0.227 C  
HETATM   53  C   UNL     1     -11.339   6.998  72.671  1.00  0.00    -0.290 C  
HETATM   54  C   UNL     1     -12.368   6.053  70.342  1.00  0.00     1.259 C  
HETATM   55  C   UNL     1     -12.145   7.230  71.388  1.00  0.00    -0.335 C  
HETATM   56  O   UNL     1     -13.963   8.731  71.913  1.00  0.00    -0.403 OA 
ENDBRANCH  48  50
ENDBRANCH  38  48
ENDBRANCH  35  38
ENDBRANCH  33  34
ENDBRANCH  21  22
ENDBRANCH   9  21
TORSDOF 11
ENDMDL
MODEL      133
REMARK 921   NORMALIZED FREE ENERGY PREDICTED BY IDOCK:    4.20 KCAL/MOL
REMARK 922        TOTAL FREE ENERGY PREDICTED BY IDOCK:    3.12 KCAL/MOL
REMARK 923 INTER-LIGAND FREE ENERGY PREDICTED BY IDOCK:    4.58 KCAL/MOL
REMARK 924 INTRA-LIGAND FREE ENERGY PREDICTED BY IDOCK:   -1.46 KCAL/MOL
REMARK 927      BINDING AFFINITY PREDICTED BY RF-SCORE:    0.00 PKD
ROOT
HETATM    1  C   UNL     1      -6.132   5.149  68.220  1.00  0.00    -0.027 C  
HETATM    2  N   UNL     1      -7.562   5.001  68.039  1.00  0.00    -0.082 NA 
HETATM    3  C   UNL     1      -8.160   4.009  67.280  1.00  0.00    -0.095 A  
HETATM    4  C   UNL     1      -9.342   4.496  66.677  1.00  0.00    -0.149 A  
HETATM    5  N   UNL     1      -7.683   2.756  67.088  1.00  0.00    -0.070 NA 
HETATM    6  C   UNL     1      -9.338   5.877  67.091  1.00  0.00    -0.116 A  
HETATM    7  H2  UNL     1      -6.801   2.521  67.544  1.00  0.00     0.000 HD 
HETATM    8  H1  UNL     1      -8.123   2.026  66.529  1.00  0.00     0.000 HD 
HETATM    9  N   UNL     1      -8.445   6.010  68.189  1.00  0.00    -0.115 NA 
ENDROOT
BRANCH   4  10
HETATM   10  N   UNL     1     -10.085   3.705  65.818  1.00  0.00    -0.413 N  
HETATM   11  H   UNL     1     -10.156   2.715  66.051  1.00  0.00     0.000 HD 
BRANCH  10  12
HETATM   12  C   UNL     1     -10.731   4.118  64.694  1.00  0.00    -0.129 C  
HETATM   13  O   UNL     1     -11.751   4.788  64.798  1.00  0.00     0.315 OA 
BRANCH  12  14
HETATM   14  N   UNL     1     -10.259   3.594  63.530  1.00  0.00    -0.192 N  
HETATM   15  H   UNL     1     -10.875   3.488  62.724  1.00  0.00     0.000 HD 
BRANCH  14  16
HETATM   16  C   UNL     1      -8.866   3.185  63.448  1.00  0.00    -0.092 C  
BRANCH  16  17
HETATM   17  C   UNL     1      -7.910   4.376  63.309  1.00  0.00    -0.075 C  
HETATM   18  H2  UNL     1      -6.228   3.238  63.683  1.00  0.00     0.000 HD 
HETATM   19  N   UNL     1      -6.657   4.108  64.000  1.00  0.00    -0.041 NA 
HETATM   20  H1  UNL     1      -6.021   4.900  63.907  1.00  0.00     0.000 HD 
ENDBRANCH  16  17
ENDBRANCH  14  16
ENDBRANCH  12  14
ENDBRANCH  10  12
ENDBRANCH   4  10
BRANCH   9  21
HETATM   21  C   UNL     1      -8.235   7.083  69.207  1.00  0.00    -0.125 C  
BRANCH  21  22
HETATM   22  C   UNL     1      -7.649   8.670  68.677  1.00  0.00    -0.097 C  
HETATM   23  CA  UNL     1      -7.276   9.395  66.941  1.00  0.00    -0.087 C  
HETATM   24  C   UNL     1      -8.096  11.637  66.021  1.00  0.00     0.218 C  
HETATM   25  C   UNL     1      -7.508   9.698  70.243  1.00  0.00    -0.165 C  
HETATM   26  C   UNL     1      -7.183   8.601  65.205  1.00  0.00    -0.083 C  
HETATM   27  N   UNL     1      -6.997  10.974  66.600  1.00  0.00    -0.132 N  
HETATM   28  O   UNL     1      -9.047  11.280  65.339  1.00  0.00    -0.205 OA 
HETATM   29  S   UNL     1      -6.993  11.868  69.948  1.00  0.00     0.591 SA 
HETATM   30  C   UNL     1      -6.836  12.148  67.715  1.00  0.00    -0.106 C  
HETATM   31  O   UNL     1      -6.713   7.418  65.139  1.00  0.00    -0.043 OA 
HETATM   32  OXT UNL     1      -7.396   9.439  64.293  1.00  0.00    -0.103 OA 
HETATM   33  CA  UNL     1      -8.133  12.766  67.058  1.00  0.00    -0.066 C  
BRANCH  33  34
HETATM   34  N   UNL     1      -9.433  12.810  67.810  1.00  0.00    -0.198 N  
HETATM   35  C   UNL     1     -10.198  13.890  68.276  1.00  0.00    -0.247 C  
HETATM   36  H   UNL     1      -9.830  11.894  68.019  1.00  0.00     0.000 HD 
HETATM   37  O   UNL     1     -11.245  13.563  68.835  1.00  0.00    -0.251 OA 
BRANCH  35  38
HETATM   38  C   UNL     1      -9.864  15.439  68.128  1.00  0.00    -0.213 C  
HETATM   39  C   UNL     1      -8.686  16.027  68.724  1.00  0.00    -0.223 C  
HETATM   40  C   UNL     1      -6.311  17.710  69.825  1.00  0.00    -0.126 C  
HETATM   41  N   UNL     1      -7.726  14.808  69.251  1.00  0.00    -0.150 NA 
HETATM   42  N   UNL     1      -5.215  18.527  69.810  1.00  0.00    -0.186 NA 
HETATM   43  H   UNL     1      -8.275  18.598  68.672  1.00  0.00     0.000 HD 
HETATM   44  S   UNL     1      -5.739  15.509  70.412  1.00  0.00    -0.084 SA 
HETATM   45  H1  UNL     1      -5.463  19.483  69.556  1.00  0.00     0.000 HD 
HETATM   46  H2  UNL     1      -4.267  18.219  70.027  1.00  0.00     0.000 HD 
HETATM   47  N   UNL     1      -7.849  17.730  68.995  1.00  0.00    -0.166 NA 
BRANCH  38  48
HETATM   48  N   UNL     1     -10.484  16.271  67.365  1.00  0.00    -0.301 NA 
HETATM   49  H   UNL     1     -11.489  16.409  67.467  1.00  0.00     0.000 HD 
BRANCH  48  50
HETATM   50  O   UNL     1      -9.789  16.964  66.420  1.00  0.00    -0.275 OA 
HETATM   51  O   UNL     1     -12.344  18.024  64.207  1.00  0.00     4.960 OA 
HETATM   52  C   UNL     1     -11.397  17.450  64.730  1.00  0.00     1.100 C  
HETATM   53  C   UNL     1      -9.668  19.046  65.354  1.00  0.00     1.016 C  
HETATM   54  C   UNL     1     -11.892  18.483  66.806  1.00  0.00     2.535 C  
HETATM   55  C   UNL     1     -10.653  18.019  65.925  1.00  0.00    -0.219 C  
HETATM   56  O   UNL     1     -10.931  16.265  64.289  1.00  0.00    -0.707 OA 
ENDBRANCH  48  50
ENDBRANCH  38  48
ENDBRANCH  35  38
ENDBRANCH  33  34
ENDBRANCH  21  22
ENDBRANCH   9  21
TORSDOF 11
ENDMDL
MODEL      134
REMARK 921   NORMALIZED FREE ENERGY PREDICTED BY IDOCK:    4.34 KCAL/MOL
REMARK 922        TOTAL FREE ENERGY PREDICTED BY IDOCK:    3.35 KCAL/MOL
REMARK 923 INTER-LIGAND FREE ENERGY PREDICTED BY IDOCK:   -6.58 KCAL/MOL
REMARK 924 INTRA-LIGAND FREE ENERGY PREDICTED BY IDOCK:    9.93 KCAL/MOL
REMARK 927      BINDING AFFINITY PREDICTED BY RF-SCORE:    0.00 PKD
ROOT
HETATM    1  C   UNL     1      -5.647  11.991  70.038  1.00  0.00    -0.123 C  
HETATM    2  N   UNL     1      -6.164  11.517  68.770  1.00  0.00    -0.049 NA 
HETATM    3  C   UNL     1      -6.903  12.286  67.885  1.00  0.00    -0.093 A  
HETATM    4  C   UNL     1      -7.850  11.484  67.209  1.00  0.00    -0.153 A  
HETATM    5  N   UNL     1      -6.788  13.623  67.704  1.00  0.00    -0.170 NA 
HETATM    6  C   UNL     1      -7.647  10.199  67.831  1.00  0.00    -0.089 A  
HETATM    7  H2  UNL     1      -6.094  14.110  68.271  1.00  0.00     0.000 HD 
HETATM    8  H1  UNL     1      -7.332  14.189  67.053  1.00  0.00     0.000 HD 
HETATM    9  N   UNL     1      -6.389  10.217  68.491  1.00  0.00    -0.048 NA 
ENDROOT
BRANCH   4  10
HETATM   10  N   UNL     1      -8.749  12.039  66.315  1.00  0.00    -0.384 N  
HETATM   11  H   UNL     1      -8.614  11.815  65.329  1.00  0.00     0.000 HD 
BRANCH  10  12
HETATM   12  C   UNL     1      -9.794  12.854  66.621  1.00  0.00    -0.250 C  
HETATM   13  O   UNL     1     -10.684  12.441  67.355  1.00  0.00    -0.222 OA 
BRANCH  12  14
HETATM   14  N   UNL     1      -9.836  14.027  65.930  1.00  0.00    -0.411 N  
HETATM   15  H   UNL     1      -9.020  14.348  65.410  1.00  0.00     0.000 HD 
BRANCH  14  16
HETATM   16  C   UNL     1     -11.057  14.816  65.945  1.00  0.00    -0.340 C  
BRANCH  16  17
HETATM   17  C   UNL     1     -11.947  14.545  64.726  1.00  0.00    -0.442 C  
HETATM   18  H2  UNL     1     -11.615  16.411  63.905  1.00  0.00     0.000 HD 
HETATM   19  N   UNL     1     -12.397  15.797  64.136  1.00  0.00    -0.770 NA 
HETATM   20  H1  UNL     1     -12.990  15.618  63.325  1.00  0.00     0.000 HD 
ENDBRANCH  16  17
ENDBRANCH  14  16
ENDBRANCH  12  14
ENDBRANCH  10  12
ENDBRANCH   4  10
BRANCH   9  21
HETATM   21  C   UNL     1      -5.513   9.141  69.043  1.00  0.00    -0.037 C  
BRANCH  21  22
HETATM   22  C   UNL     1      -6.187   8.004  70.226  1.00  0.00    -0.032 C  
HETATM   23  CA  UNL     1      -6.625   8.185  72.084  1.00  0.00    -0.073 C  
HETATM   24  C   UNL     1      -8.828   7.513  73.198  1.00  0.00    -0.162 C  
HETATM   25  C   UNL     1      -6.533   6.428  69.263  1.00  0.00    -0.043 C  
HETATM   26  C   UNL     1      -6.281   9.564  73.362  1.00  0.00     0.593 C  
HETATM   27  N   UNL     1      -7.497   7.117  72.972  1.00  0.00    -0.072 N  
HETATM   28  O   UNL     1      -9.399   8.593  73.266  1.00  0.00    -0.137 OA 
HETATM   29  S   UNL     1      -7.607   4.806  70.393  1.00  0.00    -0.055 SA 
HETATM   30  C   UNL     1      -7.986   5.657  72.447  1.00  0.00    -0.103 C  
HETATM   31  O   UNL     1      -5.169  10.177  73.259  1.00  0.00    -0.315 OA 
HETATM   32  OXT UNL     1      -7.115   9.552  74.303  1.00  0.00     0.006 OA 
HETATM   33  CA  UNL     1      -9.447   6.226  72.641  1.00  0.00    -0.148 C  
BRANCH  33  34
HETATM   34  N   UNL     1     -10.339   6.483  71.460  1.00  0.00    -0.209 N  
HETATM   35  C   UNL     1     -10.526   5.770  70.267  1.00  0.00    -0.280 C  
HETATM   36  H   UNL     1     -10.909   7.326  71.539  1.00  0.00     0.000 HD 
HETATM   37  O   UNL     1     -11.373   6.255  69.517  1.00  0.00    -0.409 OA 
BRANCH  35  38
HETATM   38  C   UNL     1      -9.793   4.428  69.824  1.00  0.00    -0.214 C  
HETATM   39  C   UNL     1      -9.730   4.013  68.441  1.00  0.00    -0.066 C  
HETATM   40  C   UNL     1      -9.359   2.731  65.629  1.00  0.00    -0.047 C  
HETATM   41  N   UNL     1     -10.250   5.261  67.515  1.00  0.00    -0.187 NA 
HETATM   42  N   UNL     1      -8.712   2.228  64.535  1.00  0.00    -0.095 NA 
HETATM   43  H   UNL     1      -8.733   1.706  67.759  1.00  0.00     0.000 HD 
HETATM   44  S   UNL     1     -10.375   4.795  65.159  1.00  0.00     0.153 SA 
HETATM   45  H1  UNL     1      -8.271   1.331  64.739  1.00  0.00     0.000 HD 
HETATM   46  H2  UNL     1      -8.675   2.691  63.628  1.00  0.00     0.000 HD 
HETATM   47  N   UNL     1      -9.146   2.546  67.354  1.00  0.00    -0.165 NA 
BRANCH  38  48
HETATM   48  N   UNL     1      -9.068   3.683  70.584  1.00  0.00    -0.101 NA 
HETATM   49  H   UNL     1      -8.137   3.991  70.867  1.00  0.00     0.000 HD 
BRANCH  48  50
HETATM   50  O   UNL     1      -9.551   2.483  71.008  1.00  0.00    -0.146 OA 
HETATM   51  O   UNL     1      -8.148   2.188  74.247  1.00  0.00    -0.052 OA 
HETATM   52  C   UNL     1      -8.407   2.066  73.057  1.00  0.00    -0.058 C  
HETATM   53  C   UNL     1     -10.747   1.468  72.748  1.00  0.00    -0.237 C  
HETATM   54  C   UNL     1      -9.802   3.982  73.146  1.00  0.00    -0.176 C  
HETATM   55  C   UNL     1      -9.710   2.557  72.449  1.00  0.00    -0.127 C  
HETATM   56  O   UNL     1      -7.562   1.485  72.183  1.00  0.00    -0.038 OA 
ENDBRANCH  48  50
ENDBRANCH  38  48
ENDBRANCH  35  38
ENDBRANCH  33  34
ENDBRANCH  21  22
ENDBRANCH   9  21
TORSDOF 11
ENDMDL
MODEL      135
REMARK 921   NORMALIZED FREE ENERGY PREDICTED BY IDOCK:    4.92 KCAL/MOL
REMARK 922        TOTAL FREE ENERGY PREDICTED BY IDOCK:    4.29 KCAL/MOL
REMARK 923 INTER-LIGAND FREE ENERGY PREDICTED BY IDOCK:   -2.06 KCAL/MOL
REMARK 924 INTRA-LIGAND FREE ENERGY PREDICTED BY IDOCK:    6.35 KCAL/MOL
REMARK 927      BINDING AFFINITY PREDICTED BY RF-SCORE:    0.00 PKD
ROOT
HETATM    1  C   UNL     1     -10.002   9.151  67.551  1.00  0.00    -0.205 C  
HETATM    2  N   UNL     1     -10.662   9.827  68.649  1.00  0.00    -0.223 NA 
HETATM    3  C   UNL     1     -10.595   9.427  69.973  1.00  0.00    -0.235 A  
HETATM    4  C   UNL     1     -11.807   9.719  70.638  1.00  0.00    -0.281 A  
HETATM    5  N   UNL     1      -9.548   8.802  70.565  1.00  0.00    -0.180 NA 
HETATM    6  C   UNL     1     -12.610  10.256  69.567  1.00  0.00     0.466 A  
HETATM    7  H2  UNL     1      -8.735   8.608  69.981  1.00  0.00     0.000 HD 
HETATM    8  H1  UNL     1      -9.499   8.507  71.539  1.00  0.00     0.000 HD 
HETATM    9  N   UNL     1     -11.743  10.620  68.501  1.00  0.00    -0.394 NA 
ENDROOT
BRANCH   4  10
HETATM   10  N   UNL     1     -12.005   9.356  71.958  1.00  0.00    -0.332 N  
HETATM   11  H   UNL     1     -11.807  10.064  72.665  1.00  0.00     0.000 HD 
BRANCH  10  12
HETATM   12  C   UNL     1     -12.437   8.146  72.408  1.00  0.00    -0.262 C  
HETATM   13  O   UNL     1     -13.354   7.580  71.826  1.00  0.00    -0.344 OA 
BRANCH  12  14
HETATM   14  N   UNL     1     -11.902   7.745  73.595  1.00  0.00     0.887 N  
HETATM   15  H   UNL     1     -12.149   8.225  74.460  1.00  0.00     0.000 HD 
BRANCH  14  16
HETATM   16  C   UNL     1     -10.975   6.626  73.613  1.00  0.00    -0.002 C  
BRANCH  16  17
HETATM   17  C   UNL     1     -11.463   5.443  72.768  1.00  0.00    -0.268 C  
HETATM   18  H2  UNL     1      -9.724   5.351  71.657  1.00  0.00     0.000 HD 
HETATM   19  N   UNL     1     -10.733   5.381  71.510  1.00  0.00    -0.223 NA 
HETATM   20  H1  UNL     1     -11.057   4.594  70.947  1.00  0.00     0.000 HD 
ENDBRANCH  16  17
ENDBRANCH  14  16
ENDBRANCH  12  14
ENDBRANCH  10  12
ENDBRANCH   4  10
BRANCH   9  21
HETATM   21  C   UNL     1     -11.925  11.468  67.285  1.00  0.00     0.236 C  
BRANCH  21  22
HETATM   22  C   UNL     1     -11.817  13.231  67.441  1.00  0.00    -0.413 C  
HETATM   23  CA  UNL     1     -11.654  14.384  68.964  1.00  0.00    -0.296 C  
HETATM   24  C   UNL     1      -9.957  16.276  69.264  1.00  0.00    -0.259 C  
HETATM   25  C   UNL     1     -11.796  13.887  65.680  1.00  0.00    -0.383 C  
HETATM   26  C   UNL     1     -11.781  14.064  70.844  1.00  0.00    -0.062 C  
HETATM   27  N   UNL     1     -11.291  15.983  68.923  1.00  0.00    -0.357 N  
HETATM   28  O   UNL     1      -9.113  15.730  69.962  1.00  0.00     0.021 OA 
HETATM   29  S   UNL     1     -11.445  16.098  65.463  1.00  0.00     0.498 SA 
HETATM   30  C   UNL     1     -11.172  16.871  67.565  1.00  0.00     0.109 C  
HETATM   31  O   UNL     1     -12.632  13.194  71.221  1.00  0.00    -0.357 OA 
HETATM   32  OXT UNL     1     -11.153  14.924  71.512  1.00  0.00    -0.205 OA 
HETATM   33  CA  UNL     1      -9.661  17.063  67.982  1.00  0.00    -0.260 C  
BRANCH  33  34
HETATM   34  N   UNL     1      -8.553  16.449  67.175  1.00  0.00    -0.173 N  
HETATM   35  C   UNL     1      -7.730  15.341  67.424  1.00  0.00    -0.197 C  
HETATM   36  H   UNL     1      -8.366  16.920  66.290  1.00  0.00     0.000 HD 
HETATM   37  O   UNL     1      -6.933  15.091  66.519  1.00  0.00     0.505 OA 
BRANCH  35  38
HETATM   38  C   UNL     1      -7.750  14.396  68.705  1.00  0.00    -0.138 C  
HETATM   39  C   UNL     1      -7.059  14.747  69.924  1.00  0.00    -0.086 C  
HETATM   40  C   UNL     1      -5.727  15.079  72.718  1.00  0.00     0.525 C  
HETATM   41  N   UNL     1      -6.575  16.307  69.798  1.00  0.00    -0.181 NA 
HETATM   42  N   UNL     1      -5.631  15.190  74.077  1.00  0.00     0.530 NA 
HETATM   43  H   UNL     1      -6.907  13.089  71.926  1.00  0.00     0.000 HD 
HETATM   44  S   UNL     1      -5.273  17.120  71.650  1.00  0.00     0.570 SA 
HETATM   45  H1  UNL     1      -5.829  14.304  74.541  1.00  0.00     0.000 HD 
HETATM   46  H2  UNL     1      -5.392  16.053  74.566  1.00  0.00     0.000 HD 
HETATM   47  N   UNL     1      -6.627  14.029  71.648  1.00  0.00     0.605 NA 
BRANCH  38  48
HETATM   48  N   UNL     1      -8.481  13.346  68.851  1.00  0.00    -0.358 NA 
HETATM   49  H   UNL     1      -9.026  13.215  69.703  1.00  0.00     0.000 HD 
BRANCH  48  50
HETATM   50  O   UNL     1      -8.523  12.411  67.861  1.00  0.00    -0.147 OA 
HETATM   51  O   UNL     1      -5.205  11.171  67.832  1.00  0.00    -0.039 OA 
HETATM   52  C   UNL     1      -6.253  11.747  67.569  1.00  0.00    -0.092 C  
HETATM   53  C   UNL     1      -8.088  10.154  67.414  1.00  0.00    -0.114 C  
HETATM   54  C   UNL     1      -7.108  11.211  69.715  1.00  0.00    -0.008 C  
HETATM   55  C   UNL     1      -7.578  11.365  68.205  1.00  0.00    -0.114 C  
HETATM   56  O   UNL     1      -6.323  12.767  66.691  1.00  0.00     0.180 OA 
ENDBRANCH  48  50
ENDBRANCH  38  48
ENDBRANCH  35  38
ENDBRANCH  33  34
ENDBRANCH  21  22
ENDBRANCH   9  21
TORSDOF 11
ENDMDL
MODEL      136
REMARK 921   NORMALIZED FREE ENERGY PREDICTED BY IDOCK:    5.84 KCAL/MOL
REMARK 922        TOTAL FREE ENERGY PREDICTED BY IDOCK:    5.82 KCAL/MOL
REMARK 923 INTER-LIGAND FREE ENERGY PREDICTED BY IDOCK:    4.23 KCAL/MOL
REMARK 924 INTRA-LIGAND FREE ENERGY PREDICTED BY IDOCK:    1.59 KCAL/MOL
REMARK 927      BINDING AFFINITY PREDICTED BY RF-SCORE:    0.00 PKD
ROOT
HETATM    1  C   UNL     1     -12.011   7.181  67.929  1.00  0.00     2.274 C  
HETATM    2  N   UNL     1     -10.877   6.282  67.995  1.00  0.00    -0.302 NA 
HETATM    3  C   UNL     1     -10.219   5.764  66.892  1.00  0.00    -0.218 A  
HETATM    4  C   UNL     1      -9.743   4.462  67.168  1.00  0.00    -0.197 A  
HETATM    5  N   UNL     1     -10.074   6.375  65.691  1.00  0.00     0.149 NA 
HETATM    6  C   UNL     1     -10.247   4.241  68.502  1.00  0.00     0.330 A  
HETATM    7  H2  UNL     1     -10.488   7.302  65.590  1.00  0.00     0.000 HD 
HETATM    8  H1  UNL     1      -9.591   5.993  64.878  1.00  0.00     0.000 HD 
HETATM    9  N   UNL     1     -10.600   5.500  69.059  1.00  0.00    -0.228 NA 
ENDROOT
BRANCH   4  10
HETATM   10  N   UNL     1      -9.105   3.713  66.197  1.00  0.00    -0.146 N  
HETATM   11  H   UNL     1      -9.038   4.126  65.267  1.00  0.00     0.000 HD 
BRANCH  10  12
HETATM   12  C   UNL     1      -8.556   2.478  66.359  1.00  0.00    -0.113 C  
HETATM   13  O   UNL     1      -9.271   1.486  66.275  1.00  0.00    -0.078 OA 
BRANCH  12  14
HETATM   14  N   UNL     1      -7.259   2.471  66.772  1.00  0.00    -0.053 N  
HETATM   15  H   UNL     1      -6.581   1.848  66.333  1.00  0.00     0.000 HD 
BRANCH  14  16
HETATM   16  C   UNL     1      -6.852   3.360  67.848  1.00  0.00    -0.050 C  
BRANCH  16  17
HETATM   17  C   UNL     1      -6.941   2.696  69.227  1.00  0.00    -0.037 C  
HETATM   18  H2  UNL     1      -9.004   2.767  69.273  1.00  0.00     0.000 HD 
HETATM   19  N   UNL     1      -8.210   3.014  69.865  1.00  0.00    -0.044 NA 
HETATM   20  H1  UNL     1      -8.270   2.572  70.782  1.00  0.00     0.000 HD 
ENDBRANCH  16  17
ENDBRANCH  14  16
ENDBRANCH  12  14
ENDBRANCH  10  12
ENDBRANCH   4  10
BRANCH   9  21
HETATM   21  C   UNL     1     -10.889   5.952  70.452  1.00  0.00    -0.308 C  
BRANCH  21  22
HETATM   22  C   UNL     1     -10.842   7.686  70.823  1.00  0.00    -0.246 C  
HETATM   23  CA  UNL     1      -9.416   8.968  70.816  1.00  0.00    -0.251 C  
HETATM   24  C   UNL     1      -9.444  11.267  69.691  1.00  0.00     0.776 C  
HETATM   25  C   UNL     1     -12.621   8.167  71.185  1.00  0.00    -0.162 C  
HETATM   26  C   UNL     1      -7.521   8.790  70.635  1.00  0.00    -0.079 C  
HETATM   27  N   UNL     1      -9.589  10.596  70.920  1.00  0.00     2.185 N  
HETATM   28  O   UNL     1      -8.836  11.031  68.655  1.00  0.00    -0.156 OA 
HETATM   29  S   UNL     1     -12.998  10.363  71.491  1.00  0.00    -0.473 SA 
HETATM   30  C   UNL     1     -10.995  11.361  71.209  1.00  0.00     3.065 C  
HETATM   31  O   UNL     1      -6.989   7.759  71.162  1.00  0.00    -0.048 OA 
HETATM   32  OXT UNL     1      -6.989   9.842  70.200  1.00  0.00    -0.103 OA 
HETATM   33  CA  UNL     1     -10.793  11.990  69.773  1.00  0.00     0.350 C  
BRANCH  33  34
HETATM   34  N   UNL     1     -11.707  11.629  68.637  1.00  0.00    -0.308 N  
HETATM   35  C   UNL     1     -11.569  11.789  67.250  1.00  0.00    -0.269 C  
HETATM   36  H   UNL     1     -12.582  11.189  68.924  1.00  0.00     0.000 HD 
HETATM   37  O   UNL     1     -12.512  11.345  66.595  1.00  0.00     1.000 OA 
BRANCH  35  38
HETATM   38  C   UNL     1     -10.342  12.442  66.475  1.00  0.00    -0.228 C  
HETATM   39  C   UNL     1      -9.711  13.660  66.930  1.00  0.00    -0.262 C  
HETATM   40  C   UNL     1      -8.070  16.238  67.522  1.00  0.00    -0.146 C  
HETATM   41  N   UNL     1     -10.282  13.994  68.429  1.00  0.00    -0.234 NA 
HETATM   42  N   UNL     1      -6.983  17.020  67.794  1.00  0.00    -0.142 NA 
HETATM   43  H   UNL     1      -7.861  14.839  65.527  1.00  0.00     0.000 HD 
HETATM   44  S   UNL     1      -9.491  16.056  69.382  1.00  0.00    -0.175 SA 
HETATM   45  H1  UNL     1      -6.365  17.099  66.986  1.00  0.00     0.000 HD 
HETATM   46  H2  UNL     1      -6.810  17.468  68.693  1.00  0.00     0.000 HD 
HETATM   47  N   UNL     1      -8.371  14.926  66.406  1.00  0.00     0.093 NA 
BRANCH  38  48
HETATM   48  N   UNL     1      -9.698  11.902  65.499  1.00  0.00    -0.262 NA 
HETATM   49  H   UNL     1      -9.319  12.483  64.751  1.00  0.00     0.000 HD 
BRANCH  48  50
HETATM   50  O   UNL     1      -9.526  10.551  65.472  1.00  0.00    -0.189 OA 
HETATM   51  O   UNL     1      -6.355  10.208  63.932  1.00  0.00    -0.128 OA 
HETATM   52  C   UNL     1      -7.555  10.223  64.174  1.00  0.00    -0.087 C  
HETATM   53  C   UNL     1      -8.054   8.849  66.121  1.00  0.00    -0.114 C  
HETATM   54  C   UNL     1      -7.154  11.410  66.188  1.00  0.00     0.154 C  
HETATM   55  C   UNL     1      -8.104  10.286  65.588  1.00  0.00    -0.155 C  
HETATM   56  O   UNL     1      -8.493  10.184  63.207  1.00  0.00    -0.159 OA 
ENDBRANCH  48  50
ENDBRANCH  38  48
ENDBRANCH  35  38
ENDBRANCH  33  34
ENDBRANCH  21  22
ENDBRANCH   9  21
TORSDOF 11
ENDMDL
MODEL      137
REMARK 921   NORMALIZED FREE ENERGY PREDICTED BY IDOCK:    6.01 KCAL/MOL
REMARK 922        TOTAL FREE ENERGY PREDICTED BY IDOCK:    6.09 KCAL/MOL
REMARK 923 INTER-LIGAND FREE ENERGY PREDICTED BY IDOCK:   -2.01 KCAL/MOL
REMARK 924 INTRA-LIGAND FREE ENERGY PREDICTED BY IDOCK:    8.09 KCAL/MOL
REMARK 927      BINDING AFFINITY PREDICTED BY RF-SCORE:    0.00 PKD
ROOT
HETATM    1  C   UNL     1     -11.917  11.154  69.769  1.00  0.00    -0.357 C  
HETATM    2  N   UNL     1     -10.892  12.167  69.620  1.00  0.00     0.118 NA 
HETATM    3  C   UNL     1     -11.128  13.532  69.635  1.00  0.00     0.019 A  
HETATM    4  C   UNL     1     -10.226  14.197  68.775  1.00  0.00    -0.215 A  
HETATM    5  N   UNL     1     -12.104  14.164  70.330  1.00  0.00    -0.325 NA 
HETATM    6  C   UNL     1      -9.495  13.093  68.202  1.00  0.00    -0.222 A  
HETATM    7  H2  UNL     1     -12.723  13.581  70.894  1.00  0.00     0.000 HD 
HETATM    8  H1  UNL     1     -12.278  15.168  70.342  1.00  0.00     0.000 HD 
HETATM    9  N   UNL     1      -9.704  11.949  69.019  1.00  0.00     0.077 NA 
ENDROOT
BRANCH   4  10
HETATM   10  N   UNL     1     -10.304  15.564  68.575  1.00  0.00    -0.222 N  
HETATM   11  H   UNL     1     -11.181  15.924  68.198  1.00  0.00     0.000 HD 
BRANCH  10  12
HETATM   12  C   UNL     1      -9.327  16.476  68.830  1.00  0.00    -0.247 C  
HETATM   13  O   UNL     1      -8.863  16.561  69.960  1.00  0.00     0.753 OA 
BRANCH  12  14
HETATM   14  N   UNL     1      -9.065  17.343  67.813  1.00  0.00    -0.240 N  
HETATM   15  H   UNL     1      -8.171  17.831  67.769  1.00  0.00     0.000 HD 
BRANCH  14  16
HETATM   16  C   UNL     1     -10.076  17.567  66.792  1.00  0.00    -0.320 C  
BRANCH  16  17
HETATM   17  C   UNL     1     -11.337  18.238  67.349  1.00  0.00     0.645 C  
HETATM   18  H2  UNL     1     -10.661  20.146  66.941  1.00  0.00     0.000 HD 
HETATM   19  N   UNL     1     -11.060  19.618  67.718  1.00  0.00    -0.170 NA 
HETATM   20  H1  UNL     1     -11.899  20.064  68.088  1.00  0.00     0.000 HD 
ENDBRANCH  16  17
ENDBRANCH  14  16
ENDBRANCH  12  14
ENDBRANCH  10  12
ENDBRANCH   4  10
BRANCH   9  21
HETATM   21  C   UNL     1      -9.011  10.630  69.120  1.00  0.00    -0.128 C  
BRANCH  21  22
HETATM   22  C   UNL     1      -9.952   9.195  69.568  1.00  0.00    -0.193 C  
HETATM   23  CA  UNL     1     -10.659   7.742  68.535  1.00  0.00    -0.114 C  
HETATM   24  C   UNL     1     -10.402   5.248  69.046  1.00  0.00    -0.176 C  
HETATM   25  C   UNL     1     -10.106   9.262  71.439  1.00  0.00    -0.348 C  
HETATM   26  C   UNL     1     -10.798   7.446  66.652  1.00  0.00     0.214 C  
HETATM   27  N   UNL     1     -11.276   6.347  69.138  1.00  0.00    -0.366 N  
HETATM   28  O   UNL     1      -9.486   4.945  68.293  1.00  0.00    -0.125 OA 
HETATM   29  S   UNL     1     -11.063   7.472  72.408  1.00  0.00    -0.327 SA 
HETATM   30  C   UNL     1     -11.530   6.054  70.718  1.00  0.00    -0.157 C  
HETATM   31  O   UNL     1     -11.035   8.467  65.927  1.00  0.00     1.807 OA 
HETATM   32  OXT UNL     1     -10.860   6.222  66.372  1.00  0.00    -0.139 OA 
HETATM   33  CA  UNL     1     -10.463   4.903  70.539  1.00  0.00    -0.100 C  
BRANCH  33  34
HETATM   34  N   UNL     1      -9.118   4.987  71.202  1.00  0.00    -0.139 N  
HETATM   35  C   UNL     1      -7.872   5.414  70.720  1.00  0.00    -0.095 C  
HETATM   36  H   UNL     1      -9.108   4.679  72.175  1.00  0.00     0.000 HD 
HETATM   37  O   UNL     1      -6.969   5.381  71.556  1.00  0.00    -0.061 OA 
BRANCH  35  38
HETATM   38  C   UNL     1      -7.537   5.943  69.256  1.00  0.00    -0.089 C  
HETATM   39  C   UNL     1      -7.129   5.050  68.196  1.00  0.00    -0.062 C  
HETATM   40  C   UNL     1      -6.213   3.525  65.642  1.00  0.00    -0.031 C  
HETATM   41  N   UNL     1      -7.373   3.513  68.709  1.00  0.00    -0.050 NA 
HETATM   42  N   UNL     1      -6.241   3.069  64.353  1.00  0.00    -0.022 NA 
HETATM   43  H   UNL     1      -6.361   5.955  65.878  1.00  0.00     0.000 HD 
HETATM   44  S   UNL     1      -6.649   1.805  67.178  1.00  0.00    -0.035 SA 
HETATM   45  H1  UNL     1      -6.052   3.816  63.686  1.00  0.00     0.000 HD 
HETATM   46  H2  UNL     1      -6.428   2.101  64.092  1.00  0.00     0.000 HD 
HETATM   47  N   UNL     1      -6.509   5.081  66.382  1.00  0.00    -0.040 NA 
BRANCH  38  48
HETATM   48  N   UNL     1      -7.740   7.140  68.827  1.00  0.00    -0.114 NA 
HETATM   49  H   UNL     1      -8.631   7.387  68.397  1.00  0.00     0.000 HD 
BRANCH  48  50
HETATM   50  O   UNL     1      -6.756   8.075  68.949  1.00  0.00    -0.050 OA 
HETATM   51  O   UNL     1      -6.123   8.975  65.582  1.00  0.00    -0.054 OA 
HETATM   52  C   UNL     1      -6.058   8.508  66.713  1.00  0.00    -0.054 C  
HETATM   53  C   UNL     1      -6.201  10.277  68.379  1.00  0.00    -0.047 C  
HETATM   54  C   UNL     1      -8.312   9.126  67.118  1.00  0.00    -0.117 C  
HETATM   55  C   UNL     1      -6.911   9.021  67.860  1.00  0.00    -0.070 C  
HETATM   56  O   UNL     1      -5.224   7.500  67.037  1.00  0.00    -0.021 OA 
ENDBRANCH  48  50
ENDBRANCH  38  48
ENDBRANCH  35  38
ENDBRANCH  33  34
ENDBRANCH  21  22
ENDBRANCH   9  21
TORSDOF 11
ENDMDL
MODEL      138
REMARK 921   NORMALIZED FREE ENERGY PREDICTED BY IDOCK:    6.36 KCAL/MOL
REMARK 922        TOTAL FREE ENERGY PREDICTED BY IDOCK:    6.66 KCAL/MOL
REMARK 923 INTER-LIGAND FREE ENERGY PREDICTED BY IDOCK:    1.82 KCAL/MOL
REMARK 924 INTRA-LIGAND FREE ENERGY PREDICTED BY IDOCK:    4.84 KCAL/MOL
REMARK 927      BINDING AFFINITY PREDICTED BY RF-SCORE:    0.00 PKD
ROOT
HETATM    1  C   UNL     1     -11.493   6.087  67.189  1.00  0.00     0.568 C  
HETATM    2  N   UNL     1     -10.095   5.846  66.900  1.00  0.00    -0.169 NA 
HETATM    3  C   UNL     1      -9.472   4.612  67.001  1.00  0.00    -0.160 A  
HETATM    4  C   UNL     1      -8.127   4.771  67.404  1.00  0.00    -0.102 A  
HETATM    5  N   UNL     1     -10.055   3.407  66.793  1.00  0.00    -0.104 NA 
HETATM    6  C   UNL     1      -8.044   6.198  67.600  1.00  0.00    -0.113 A  
HETATM    7  H2  UNL     1     -11.042   3.407  66.539  1.00  0.00     0.000 HD 
HETATM    8  H1  UNL     1      -9.597   2.499  66.868  1.00  0.00     0.000 HD 
HETATM    9  N   UNL     1      -9.145   6.803  66.937  1.00  0.00    -0.132 NA 
ENDROOT
BRANCH   4  10
HETATM   10  N   UNL     1      -7.315   3.675  67.634  1.00  0.00    -0.062 N  
HETATM   11  H   UNL     1      -6.450   3.622  67.096  1.00  0.00     0.000 HD 
BRANCH  10  12
HETATM   12  C   UNL     1      -7.556   2.659  68.506  1.00  0.00    -0.047 C  
HETATM   13  O   UNL     1      -7.459   1.500  68.122  1.00  0.00    -0.046 OA 
BRANCH  12  14
HETATM   14  N   UNL     1      -8.054   3.040  69.715  1.00  0.00    -0.045 N  
HETATM   15  H   UNL     1      -9.033   2.870  69.946  1.00  0.00     0.000 HD 
BRANCH  14  16
HETATM   16  C   UNL     1      -7.175   3.692  70.672  1.00  0.00    -0.037 C  
BRANCH  16  17
HETATM   17  C   UNL     1      -7.942   4.552  71.684  1.00  0.00    -0.100 C  
HETATM   18  H2  UNL     1      -6.973   3.731  73.313  1.00  0.00     0.000 HD 
HETATM   19  N   UNL     1      -7.924   3.929  72.999  1.00  0.00    -0.082 NA 
HETATM   20  H1  UNL     1      -8.433   4.500  73.673  1.00  0.00     0.000 HD 
ENDBRANCH  16  17
ENDBRANCH  14  16
ENDBRANCH  12  14
ENDBRANCH  10  12
ENDBRANCH   4  10
BRANCH   9  21
HETATM   21  C   UNL     1      -9.444   8.210  66.536  1.00  0.00    -0.221 C  
BRANCH  21  22
HETATM   22  C   UNL     1      -9.772   9.414  67.797  1.00  0.00    -0.182 C  
HETATM   23  CA  UNL     1      -8.860  11.019  68.316  1.00  0.00    -0.144 C  
HETATM   24  C   UNL     1      -9.918  13.321  68.672  1.00  0.00    -0.122 C  
HETATM   25  C   UNL     1     -11.385   8.874  68.594  1.00  0.00     0.548 C  
HETATM   26  C   UNL     1      -7.169  11.760  67.821  1.00  0.00    -0.097 C  
HETATM   27  N   UNL     1      -9.445  12.170  69.328  1.00  0.00     0.543 N  
HETATM   28  O   UNL     1      -9.654  13.870  67.611  1.00  0.00    -0.206 OA 
HETATM   29  S   UNL     1     -12.247  10.291  70.114  1.00  0.00    -0.121 SA 
HETATM   30  C   UNL     1     -10.828  12.043  70.174  1.00  0.00     0.994 C  
HETATM   31  O   UNL     1      -6.220  10.936  67.612  1.00  0.00    -0.050 OA 
HETATM   32  OXT UNL     1      -7.138  13.007  67.978  1.00  0.00    -0.088 OA 
HETATM   33  CA  UNL     1     -11.309  13.281  69.317  1.00  0.00    -0.253 C  
BRANCH  33  34
HETATM   34  N   UNL     1     -12.407  13.138  68.303  1.00  0.00     0.002 N  
HETATM   35  C   UNL     1     -12.429  13.375  66.921  1.00  0.00    -0.058 C  
HETATM   36  H   UNL     1     -13.294  12.812  68.687  1.00  0.00     0.000 HD 
HETATM   37  O   UNL     1     -13.506  13.121  66.382  1.00  0.00     1.146 OA 
BRANCH  35  38
HETATM   38  C   UNL     1     -11.228  13.896  66.015  1.00  0.00    -0.300 C  
HETATM   39  C   UNL     1     -10.397  12.992  65.255  1.00  0.00    -0.304 C  
HETATM   40  C   UNL     1      -8.366  11.439  63.480  1.00  0.00     0.626 C  
HETATM   41  N   UNL     1     -11.101  11.512  65.287  1.00  0.00    -0.237 NA 
HETATM   42  N   UNL     1      -7.689  11.059  62.354  1.00  0.00    -0.406 NA 
HETATM   43  H   UNL     1      -8.297  13.834  63.966  1.00  0.00     0.000 HD 
HETATM   44  S   UNL     1      -9.851   9.769  64.199  1.00  0.00     0.621 SA 
HETATM   45  H1  UNL     1      -7.044  11.784  62.041  1.00  0.00     0.000 HD 
HETATM   46  H2  UNL     1      -7.814  10.162  61.886  1.00  0.00     0.000 HD 
HETATM   47  N   UNL     1      -8.830  12.984  64.151  1.00  0.00     2.258 NA 
BRANCH  38  48
HETATM   48  N   UNL     1     -10.975  15.129  65.741  1.00  0.00    -0.344 NA 
HETATM   49  H   UNL     1     -11.611  15.663  65.149  1.00  0.00     0.000 HD 
BRANCH  48  50
HETATM   50  O   UNL     1      -9.854  15.715  66.247  1.00  0.00    -0.256 OA 
HETATM   51  O   UNL     1     -11.001  18.951  67.118  1.00  0.00    -0.410 OA 
HETATM   52  C   UNL     1     -10.464  17.995  66.573  1.00  0.00    -0.334 C  
HETATM   53  C   UNL     1      -9.021  16.815  68.139  1.00  0.00    -0.224 C  
HETATM   54  C   UNL     1     -11.710  16.498  67.926  1.00  0.00     0.389 C  
HETATM   55  C   UNL     1     -10.273  16.658  67.267  1.00  0.00    -0.290 C  
HETATM   56  O   UNL     1      -9.995  18.046  65.311  1.00  0.00    -0.027 OA 
ENDBRANCH  48  50
ENDBRANCH  38  48
ENDBRANCH  35  38
ENDBRANCH  33  34
ENDBRANCH  21  22
ENDBRANCH   9  21
TORSDOF 11
ENDMDL
MODEL      139
REMARK 921   NORMALIZED FREE ENERGY PREDICTED BY IDOCK:    7.76 KCAL/MOL
REMARK 922        TOTAL FREE ENERGY PREDICTED BY IDOCK:    8.97 KCAL/MOL
REMARK 923 INTER-LIGAND FREE ENERGY PREDICTED BY IDOCK:   -1.00 KCAL/MOL
REMARK 924 INTRA-LIGAND FREE ENERGY PREDICTED BY IDOCK:    9.96 KCAL/MOL
REMARK 927      BINDING AFFINITY PREDICTED BY RF-SCORE:    0.00 PKD
ROOT
HETATM    1  C   UNL     1      -9.527  10.710  69.483  1.00  0.00    -0.011 C  
HETATM    2  N   UNL     1     -10.837  10.704  70.102  1.00  0.00    -0.227 NA 
HETATM    3  C   UNL     1     -11.229   9.832  71.105  1.00  0.00    -0.374 A  
HETATM    4  C   UNL     1     -12.604   9.529  70.984  1.00  0.00    -0.253 A  
HETATM    5  N   UNL     1     -10.424   9.296  72.054  1.00  0.00    -0.114 NA 
HETATM    6  C   UNL     1     -12.958  10.240  69.780  1.00  0.00     0.570 A  
HETATM    7  H2  UNL     1      -9.439   9.557  72.028  1.00  0.00     0.000 HD 
HETATM    8  H1  UNL     1     -10.713   8.654  72.792  1.00  0.00     0.000 HD 
HETATM    9  N   UNL     1     -11.945  11.202  69.517  1.00  0.00    -0.337 NA 
ENDROOT
BRANCH   4  10
HETATM   10  N   UNL     1     -13.215   8.628  71.837  1.00  0.00    -0.355 N  
HETATM   11  H   UNL     1     -14.234   8.653  71.878  1.00  0.00     0.000 HD 
BRANCH  10  12
HETATM   12  C   UNL     1     -12.593   7.712  72.627  1.00  0.00     0.211 C  
HETATM   13  O   UNL     1     -12.084   8.073  73.681  1.00  0.00     0.852 OA 
BRANCH  12  14
HETATM   14  N   UNL     1     -12.449   6.475  72.076  1.00  0.00    -0.496 N  
HETATM   15  H   UNL     1     -12.322   6.369  71.070  1.00  0.00     0.000 HD 
BRANCH  14  16
HETATM   16  C   UNL     1     -12.478   5.305  72.940  1.00  0.00     0.519 C  
BRANCH  16  17
HETATM   17  C   UNL     1     -11.076   4.766  73.249  1.00  0.00    -0.333 C  
HETATM   18  H2  UNL     1     -11.276   5.044  75.285  1.00  0.00     0.000 HD 
HETATM   19  N   UNL     1     -10.614   5.258  74.539  1.00  0.00    -0.347 NA 
HETATM   20  H1  UNL     1      -9.682   4.899  74.745  1.00  0.00     0.000 HD 
ENDBRANCH  16  17
ENDBRANCH  14  16
ENDBRANCH  12  14
ENDBRANCH  10  12
ENDBRANCH   4  10
BRANCH   9  21
HETATM   21  C   UNL     1     -11.883  12.396  68.622  1.00  0.00    -0.302 C  
BRANCH  21  22
HETATM   22  C   UNL     1     -10.842  12.344  67.188  1.00  0.00    -0.280 C  
HETATM   23  CA  UNL     1      -8.939  12.436  66.971  1.00  0.00    -0.209 C  
HETATM   24  C   UNL     1      -7.486  10.840  65.596  1.00  0.00    -0.034 C  
HETATM   25  C   UNL     1     -12.003  12.067  65.737  1.00  0.00    -0.140 C  
HETATM   26  C   UNL     1      -7.520  12.844  68.185  1.00  0.00    -0.126 C  
HETATM   27  N   UNL     1      -8.113  12.100  65.595  1.00  0.00     0.981 N  
HETATM   28  O   UNL     1      -7.051  10.103  66.471  1.00  0.00    -0.095 OA 
HETATM   29  S   UNL     1     -11.018  11.726  63.744  1.00  0.00    -0.457 SA 
HETATM   30  C   UNL     1      -8.800  11.792  64.153  1.00  0.00     0.685 C  
HETATM   31  O   UNL     1      -7.760  13.727  69.072  1.00  0.00    -0.066 OA 
HETATM   32  OXT UNL     1      -6.428  12.340  67.819  1.00  0.00    -0.080 OA 
HETATM   33  CA  UNL     1      -8.136  10.365  64.291  1.00  0.00    -0.102 C  
BRANCH  33  34
HETATM   34  N   UNL     1      -8.978   9.136  64.484  1.00  0.00    -0.395 N  
HETATM   35  C   UNL     1      -8.662   7.866  64.988  1.00  0.00     0.104 C  
HETATM   36  H   UNL     1      -9.951   9.245  64.198  1.00  0.00     0.000 HD 
HETATM   37  O   UNL     1      -9.617   7.091  65.036  1.00  0.00     1.117 OA 
BRANCH  35  38
HETATM   38  C   UNL     1      -7.244   7.363  65.508  1.00  0.00    -0.066 C  
HETATM   39  C   UNL     1      -6.912   7.338  66.914  1.00  0.00    -0.077 C  
HETATM   40  C   UNL     1      -5.765   7.121  69.800  1.00  0.00    -0.023 C  
HETATM   41  N   UNL     1      -8.287   7.612  67.763  1.00  0.00    -0.118 NA 
HETATM   42  N   UNL     1      -5.227   6.542  70.915  1.00  0.00    -0.018 NA 
HETATM   43  H   UNL     1      -4.515   6.735  67.734  1.00  0.00     0.000 HD 
HETATM   44  S   UNL     1      -7.999   7.754  70.146  1.00  0.00    -0.113 SA 
HETATM   45  H1  UNL     1      -4.256   6.267  70.765  1.00  0.00     0.000 HD 
HETATM   46  H2  UNL     1      -5.733   6.403  71.789  1.00  0.00     0.000 HD 
HETATM   47  N   UNL     1      -5.437   6.986  68.088  1.00  0.00    -0.019 NA 
BRANCH  38  48
HETATM   48  N   UNL     1      -6.338   6.797  64.789  1.00  0.00    -0.038 NA 
HETATM   49  H   UNL     1      -5.436   7.252  64.650  1.00  0.00     0.000 HD 
BRANCH  48  50
HETATM   50  O   UNL     1      -6.592   5.588  64.216  1.00  0.00    -0.039 OA 
HETATM   51  O   UNL     1      -6.998   3.472  67.027  1.00  0.00    -0.052 OA 
HETATM   52  C   UNL     1      -6.573   4.047  66.033  1.00  0.00    -0.041 C  
HETATM   53  C   UNL     1      -8.142   3.832  64.184  1.00  0.00    -0.089 C  
HETATM   54  C   UNL     1      -8.313   5.650  66.194  1.00  0.00    -0.120 C  
HETATM   55  C   UNL     1      -7.468   4.853  65.109  1.00  0.00    -0.076 C  
HETATM   56  O   UNL     1      -5.275   4.014  65.672  1.00  0.00    -0.008 OA 
ENDBRANCH  48  50
ENDBRANCH  38  48
ENDBRANCH  35  38
ENDBRANCH  33  34
ENDBRANCH  21  22
ENDBRANCH   9  21
TORSDOF 11
ENDMDL
MODEL      140
REMARK 921   NORMALIZED FREE ENERGY PREDICTED BY IDOCK:    8.02 KCAL/MOL
REMARK 922        TOTAL FREE ENERGY PREDICTED BY IDOCK:    9.39 KCAL/MOL
REMARK 923 INTER-LIGAND FREE ENERGY PREDICTED BY IDOCK:   10.29 KCAL/MOL
REMARK 924 INTRA-LIGAND FREE ENERGY PREDICTED BY IDOCK:   -0.90 KCAL/MOL
REMARK 927      BINDING AFFINITY PREDICTED BY RF-SCORE:    0.00 PKD
ROOT
HETATM    1  C   UNL     1      -6.826   9.563  62.435  1.00  0.00    -0.097 C  
HETATM    2  N   UNL     1      -7.290   9.585  63.807  1.00  0.00    -0.109 NA 
HETATM    3  C   UNL     1      -6.606   9.032  64.878  1.00  0.00    -0.069 A  
HETATM    4  C   UNL     1      -7.514   8.531  65.837  1.00  0.00    -0.077 A  
HETATM    5  N   UNL     1      -5.260   8.933  64.997  1.00  0.00    -0.038 NA 
HETATM    6  C   UNL     1      -8.784   8.773  65.196  1.00  0.00    -0.167 A  
HETATM    7  H2  UNL     1      -4.699   9.297  64.228  1.00  0.00     0.000 HD 
HETATM    8  H1  UNL     1      -4.756   8.526  65.785  1.00  0.00     0.000 HD 
HETATM    9  N   UNL     1      -8.585   9.724  64.159  1.00  0.00    -0.178 NA 
ENDROOT
BRANCH   4  10
HETATM   10  N   UNL     1      -7.068   7.876  66.971  1.00  0.00    -0.077 N  
HETATM   11  H   UNL     1      -6.669   8.455  67.709  1.00  0.00     0.000 HD 
BRANCH  10  12
HETATM   12  C   UNL     1      -7.109   6.535  67.199  1.00  0.00    -0.076 C  
HETATM   13  O   UNL     1      -6.477   5.781  66.469  1.00  0.00    -0.044 OA 
BRANCH  12  14
HETATM   14  N   UNL     1      -8.006   6.135  68.143  1.00  0.00    -0.106 N  
HETATM   15  H   UNL     1      -8.595   6.819  68.617  1.00  0.00     0.000 HD 
BRANCH  14  16
HETATM   16  C   UNL     1      -8.113   4.722  68.466  1.00  0.00    -0.084 C  
BRANCH  16  17
HETATM   17  C   UNL     1      -8.599   4.481  69.901  1.00  0.00    -0.069 C  
HETATM   18  H2  UNL     1     -10.553   4.147  69.322  1.00  0.00     0.000 HD 
HETATM   19  N   UNL     1     -10.034   4.708  69.997  1.00  0.00    -0.231 NA 
HETATM   20  H1  UNL     1     -10.357   4.548  70.951  1.00  0.00     0.000 HD 
ENDBRANCH  16  17
ENDBRANCH  14  16
ENDBRANCH  12  14
ENDBRANCH  10  12
ENDBRANCH   4  10
BRANCH   9  21
HETATM   21  C   UNL     1      -9.521  10.571  63.361  1.00  0.00    -0.316 C  
BRANCH  21  22
HETATM   22  C   UNL     1     -10.026  12.142  64.011  1.00  0.00    -0.301 C  
HETATM   23  CA  UNL     1     -11.724  12.808  64.601  1.00  0.00    -0.355 C  
HETATM   24  C   UNL     1     -12.201  14.014  66.808  1.00  0.00    -0.404 C  
HETATM   25  C   UNL     1      -8.452  13.161  64.134  1.00  0.00     5.692 C  
HETATM   26  C   UNL     1     -13.497  12.104  64.485  1.00  0.00     1.232 C  
HETATM   27  N   UNL     1     -11.973  14.201  65.431  1.00  0.00    -0.365 N  
HETATM   28  O   UNL     1     -12.661  13.101  67.482  1.00  0.00     0.024 OA 
HETATM   29  S   UNL     1      -8.659  15.167  65.131  1.00  0.00     4.162 SA 
HETATM   30  C   UNL     1     -10.826  15.312  65.741  1.00  0.00    -0.358 C  
HETATM   31  O   UNL     1     -13.787  11.449  63.431  1.00  0.00     0.352 OA 
HETATM   32  OXT UNL     1     -14.247  12.567  65.381  1.00  0.00     2.787 OA 
HETATM   33  CA  UNL     1     -11.085  14.963  67.259  1.00  0.00    -0.336 C  
BRANCH  33  34
HETATM   34  N   UNL     1     -10.038  14.266  68.081  1.00  0.00    -0.227 N  
HETATM   35  C   UNL     1     -10.142  13.448  69.215  1.00  0.00     0.398 C  
HETATM   36  H   UNL     1      -9.082  14.414  67.756  1.00  0.00     0.000 HD 
HETATM   37  O   UNL     1      -9.066  13.010  69.623  1.00  0.00     1.375 OA 
BRANCH  35  38
HETATM   38  C   UNL     1     -11.475  13.028  69.978  1.00  0.00    -0.014 C  
HETATM   39  C   UNL     1     -11.896  11.650  70.076  1.00  0.00    -0.355 C  
HETATM   40  C   UNL     1     -13.187   8.853  70.525  1.00  0.00     0.766 C  
HETATM   41  N   UNL     1     -10.662  10.706  69.556  1.00  0.00    -0.244 NA 
HETATM   42  N   UNL     1     -13.686   7.776  71.203  1.00  0.00    -0.605 NA 
HETATM   43  H   UNL     1     -14.191  11.001  71.122  1.00  0.00     0.000 HD 
HETATM   44  S   UNL     1     -11.142   8.350  69.488  1.00  0.00     0.158 SA 
HETATM   45  H1  UNL     1     -14.575   7.994  71.654  1.00  0.00     0.000 HD 
HETATM   46  H2  UNL     1     -13.227   6.867  71.251  1.00  0.00     0.000 HD 
HETATM   47  N   UNL     1     -13.360  10.583  70.706  1.00  0.00    -0.166 NA 
BRANCH  38  48
HETATM   48  N   UNL     1     -12.205  13.807  70.698  1.00  0.00    -0.352 NA 
HETATM   49  H   UNL     1     -13.200  13.906  70.500  1.00  0.00     0.000 HD 
BRANCH  48  50
HETATM   50  O   UNL     1     -11.639  14.499  71.727  1.00  0.00    -0.181 OA 
HETATM   51  O   UNL     1     -14.410  16.209  73.121  1.00  0.00    -0.186 OA 
HETATM   52  C   UNL     1     -13.381  15.915  72.526  1.00  0.00    -0.427 C  
HETATM   53  C   UNL     1     -11.793  14.855  74.037  1.00  0.00    -0.166 C  
HETATM   54  C   UNL     1     -13.862  13.608  72.797  1.00  0.00    -0.265 C  
HETATM   55  C   UNL     1     -12.634  14.616  72.777  1.00  0.00    -0.341 C  
HETATM   56  O   UNL     1     -12.822  16.717  71.600  1.00  0.00     0.733 OA 
ENDBRANCH  48  50
ENDBRANCH  38  48
ENDBRANCH  35  38
ENDBRANCH  33  34
ENDBRANCH  21  22
ENDBRANCH   9  21
TORSDOF 11
ENDMDL
MODEL      141
REMARK 921   NORMALIZED FREE ENERGY PREDICTED BY IDOCK:    8.50 KCAL/MOL
REMARK 922        TOTAL FREE ENERGY PREDICTED BY IDOCK:   10.19 KCAL/MOL
REMARK 923 INTER-LIGAND FREE ENERGY PREDICTED BY IDOCK:   10.90 KCAL/MOL
REMARK 924 INTRA-LIGAND FREE ENERGY PREDICTED BY IDOCK:   -0.71 KCAL/MOL
REMARK 927      BINDING AFFINITY PREDICTED BY RF-SCORE:    0.00 PKD
ROOT
HETATM    1  C   UNL     1      -9.504  15.459  71.296  1.00  0.00     2.665 C  
HETATM    2  N   UNL     1     -10.936  15.558  71.488  1.00  0.00    -0.223 NA 
HETATM    3  C   UNL     1     -11.674  14.744  72.332  1.00  0.00    -0.095 A  
HETATM    4  C   UNL     1     -12.966  14.528  71.802  1.00  0.00    -0.341 A  
HETATM    5  N   UNL     1     -11.235  14.186  73.485  1.00  0.00     1.730 NA 
HETATM    6  C   UNL     1     -12.888  15.224  70.541  1.00  0.00    -0.373 A  
HETATM    7  H2  UNL     1     -10.271  14.381  73.757  1.00  0.00     0.000 HD 
HETATM    8  H1  UNL     1     -11.778  13.587  74.107  1.00  0.00     0.000 HD 
HETATM    9  N   UNL     1     -11.777  16.108  70.588  1.00  0.00    -0.338 NA 
ENDROOT
BRANCH   4  10
HETATM   10  N   UNL     1     -13.870  13.695  72.437  1.00  0.00    -0.580 N  
HETATM   11  H   UNL     1     -14.690  14.137  72.850  1.00  0.00     0.000 HD 
BRANCH  10  12
HETATM   12  C   UNL     1     -13.773  12.344  72.565  1.00  0.00     0.080 C  
HETATM   13  O   UNL     1     -14.399  11.777  73.452  1.00  0.00     2.294 OA 
BRANCH  12  14
HETATM   14  N   UNL     1     -12.834  11.753  71.775  1.00  0.00    -0.345 N  
HETATM   15  H   UNL     1     -11.841  11.910  71.949  1.00  0.00     0.000 HD 
BRANCH  14  16
HETATM   16  C   UNL     1     -13.263  10.897  70.682  1.00  0.00     0.086 C  
BRANCH  16  17
HETATM   17  C   UNL     1     -12.133  10.601  69.687  1.00  0.00    -0.240 C  
HETATM   18  H2  UNL     1     -12.356  12.400  68.698  1.00  0.00     0.000 HD 
HETATM   19  N   UNL     1     -12.291  11.405  68.484  1.00  0.00    -0.437 NA 
HETATM   20  H1  UNL     1     -11.540  11.209  67.822  1.00  0.00     0.000 HD 
ENDBRANCH  16  17
ENDBRANCH  14  16
ENDBRANCH  12  14
ENDBRANCH  10  12
ENDBRANCH   4  10
BRANCH   9  21
HETATM   21  C   UNL     1     -11.362  17.268  69.745  1.00  0.00     1.164 C  
BRANCH  21  22
HETATM   22  C   UNL     1     -10.691  16.963  68.131  1.00  0.00    -0.375 C  
HETATM   23  CA  UNL     1      -8.895  16.714  67.507  1.00  0.00    -0.196 C  
HETATM   24  C   UNL     1      -8.058  14.821  66.001  1.00  0.00     1.738 C  
HETATM   25  C   UNL     1     -12.178  16.816  66.992  1.00  0.00     2.636 C  
HETATM   26  C   UNL     1      -7.194  16.933  68.350  1.00  0.00    -0.195 C  
HETATM   27  N   UNL     1      -8.463  16.169  66.021  1.00  0.00    -0.256 N  
HETATM   28  O   UNL     1      -7.559  14.067  66.826  1.00  0.00     0.287 OA 
HETATM   29  S   UNL     1     -11.732  16.207  64.873  1.00  0.00     0.344 SA 
HETATM   30  C   UNL     1      -9.497  15.910  64.793  1.00  0.00     1.898 C  
HETATM   31  O   UNL     1      -7.087  17.889  69.186  1.00  0.00    -0.252 OA 
HETATM   32  OXT UNL     1      -6.306  16.230  67.806  1.00  0.00    -0.120 OA 
HETATM   33  CA  UNL     1      -9.051  14.399  64.912  1.00  0.00     2.314 C  
BRANCH  33  34
HETATM   34  N   UNL     1     -10.010  13.346  65.388  1.00  0.00    -0.478 N  
HETATM   35  C   UNL     1      -9.796  12.046  65.867  1.00  0.00    -0.238 C  
HETATM   36  H   UNL     1     -10.991  13.626  65.356  1.00  0.00     0.000 HD 
HETATM   37  O   UNL     1     -10.823  11.457  66.207  1.00  0.00    -0.272 OA 
BRANCH  35  38
HETATM   38  C   UNL     1      -8.399  11.300  66.034  1.00  0.00    -0.071 C  
HETATM   39  C   UNL     1      -8.037  10.165  65.217  1.00  0.00    -0.151 C  
HETATM   40  C   UNL     1      -6.849   7.712  63.714  1.00  0.00    -0.058 C  
HETATM   41  N   UNL     1      -9.136  10.042  64.008  1.00  0.00    -0.240 NA 
HETATM   42  N   UNL     1      -5.975   6.986  62.953  1.00  0.00    -0.040 NA 
HETATM   43  H   UNL     1      -5.854   8.815  65.656  1.00  0.00     0.000 HD 
HETATM   44  S   UNL     1      -8.847   8.143  62.560  1.00  0.00     0.475 SA 
HETATM   45  H1  UNL     1      -5.107   6.798  63.454  1.00  0.00     0.000 HD 
HETATM   46  H2  UNL     1      -6.168   6.671  62.003  1.00  0.00     0.000 HD 
HETATM   47  N   UNL     1      -6.656   8.849  65.027  1.00  0.00    -0.068 NA 
BRANCH  38  48
HETATM   48  N   UNL     1      -7.417  11.702  66.763  1.00  0.00    -0.274 NA 
HETATM   49  H   UNL     1      -6.591  12.115  66.328  1.00  0.00     0.000 HD 
BRANCH  48  50
HETATM   50  O   UNL     1      -7.486  11.573  68.117  1.00  0.00    -0.090 OA 
HETATM   51  O   UNL     1      -6.336   8.262  68.635  1.00  0.00    -0.050 OA 
HETATM   52  C   UNL     1      -7.022   9.271  68.524  1.00  0.00    -0.067 C  
HETATM   53  C   UNL     1      -6.208  11.026  70.002  1.00  0.00    -0.139 C  
HETATM   54  C   UNL     1      -5.193  10.429  67.555  1.00  0.00    -0.040 C  
HETATM   55  C   UNL     1      -6.428  10.669  68.527  1.00  0.00    -0.054 C  
HETATM   56  O   UNL     1      -8.362   9.229  68.391  1.00  0.00    -0.117 OA 
ENDBRANCH  48  50
ENDBRANCH  38  48
ENDBRANCH  35  38
ENDBRANCH  33  34
ENDBRANCH  21  22
ENDBRANCH   9  21
TORSDOF 11
ENDMDL
MODEL      142
REMARK 921   NORMALIZED FREE ENERGY PREDICTED BY IDOCK:    8.61 KCAL/MOL
REMARK 922        TOTAL FREE ENERGY PREDICTED BY IDOCK:   10.36 KCAL/MOL
REMARK 923 INTER-LIGAND FREE ENERGY PREDICTED BY IDOCK:   -1.90 KCAL/MOL
REMARK 924 INTRA-LIGAND FREE ENERGY PREDICTED BY IDOCK:   12.26 KCAL/MOL
REMARK 927      BINDING AFFINITY PREDICTED BY RF-SCORE:    0.00 PKD
ROOT
HETATM    1  C   UNL     1      -9.526  15.773  66.002  1.00  0.00    -0.357 C  
HETATM    2  N   UNL     1      -9.063  16.315  67.263  1.00  0.00    -0.201 NA 
HETATM    3  C   UNL     1      -9.279  17.616  67.686  1.00  0.00    -0.245 A  
HETATM    4  C   UNL     1      -8.187  18.071  68.459  1.00  0.00    -0.303 A  
HETATM    5  N   UNL     1     -10.353  18.385  67.382  1.00  0.00    -0.373 NA 
HETATM    6  C   UNL     1      -7.286  16.947  68.386  1.00  0.00    -0.195 A  
HETATM    7  H2  UNL     1     -11.068  17.967  66.787  1.00  0.00     0.000 HD 
HETATM    8  H1  UNL     1     -10.512  19.342  67.693  1.00  0.00     0.000 HD 
HETATM    9  N   UNL     1      -8.025  15.810  67.961  1.00  0.00    -0.134 NA 
ENDROOT
BRANCH   4  10
HETATM   10  N   UNL     1      -8.144  19.366  68.945  1.00  0.00    -0.351 N  
HETATM   11  H   UNL     1      -9.039  19.827  69.105  1.00  0.00     0.000 HD 
BRANCH  10  12
HETATM   12  C   UNL     1      -7.025  20.086  69.228  1.00  0.00    -0.212 C  
HETATM   13  O   UNL     1      -6.444  19.901  70.291  1.00  0.00    -0.335 OA 
BRANCH  12  14
HETATM   14  N   UNL     1      -6.743  21.087  68.350  1.00  0.00    -0.047 N  
HETATM   15  H   UNL     1      -5.942  21.700  68.507  1.00  0.00     0.000 HD 
BRANCH  14  16
HETATM   16  C   UNL     1      -7.595  21.274  67.188  1.00  0.00     0.168 C  
BRANCH  16  17
HETATM   17  C   UNL     1      -8.050  19.945  66.572  1.00  0.00    -0.328 C  
HETATM   18  H2  UNL     1      -6.351  19.750  65.415  1.00  0.00     0.000 HD 
HETATM   19  N   UNL     1      -7.365  19.708  65.310  1.00  0.00    -0.374 NA 
HETATM   20  H1  UNL     1      -7.667  18.824  64.899  1.00  0.00     0.000 HD 
ENDBRANCH  16  17
ENDBRANCH  14  16
ENDBRANCH  12  14
ENDBRANCH  10  12
ENDBRANCH   4  10
BRANCH   9  21
HETATM   21  C   UNL     1      -7.737  14.345  67.977  1.00  0.00    -0.138 C  
BRANCH  21  22
HETATM   22  C   UNL     1      -8.619  13.282  66.864  1.00  0.00    -0.116 C  
HETATM   23  CA  UNL     1      -8.134  11.649  65.983  1.00  0.00     0.218 C  
HETATM   24  C   UNL     1      -9.502   9.487  65.927  1.00  0.00    -0.244 C  
HETATM   25  C   UNL     1     -10.338  14.027  66.719  1.00  0.00    -0.271 C  
HETATM   26  C   UNL     1      -6.472  10.722  65.809  1.00  0.00    -0.074 C  
HETATM   27  N   UNL     1      -9.161  10.642  65.196  1.00  0.00    -0.196 N  
HETATM   28  O   UNL     1      -8.946   8.833  66.799  1.00  0.00    -0.127 OA 
HETATM   29  S   UNL     1     -11.831  12.822  65.546  1.00  0.00    -0.444 SA 
HETATM   30  C   UNL     1     -10.730  10.960  64.906  1.00  0.00    -0.170 C  
HETATM   31  O   UNL     1      -5.423  11.439  65.703  1.00  0.00    -0.218 OA 
HETATM   32  OXT UNL     1      -6.638   9.495  65.597  1.00  0.00    -0.068 OA 
HETATM   33  CA  UNL     1     -11.016   9.704  65.822  1.00  0.00     1.309 C  
BRANCH  33  34
HETATM   34  N   UNL     1     -11.666   9.862  67.167  1.00  0.00     0.935 N  
HETATM   35  C   UNL     1     -11.173   9.663  68.465  1.00  0.00     0.050 C  
HETATM   36  H   UNL     1     -12.639  10.167  67.130  1.00  0.00     0.000 HD 
HETATM   37  O   UNL     1     -11.981   9.920  69.357  1.00  0.00     0.105 OA 
BRANCH  35  38
HETATM   38  C   UNL     1      -9.712   9.182  68.874  1.00  0.00    -0.162 C  
HETATM   39  C   UNL     1      -8.683  10.116  69.269  1.00  0.00    -0.179 C  
HETATM   40  C   UNL     1      -6.182  11.740  70.163  1.00  0.00    -0.104 C  
HETATM   41  N   UNL     1      -9.385  11.581  69.480  1.00  0.00     0.628 NA 
HETATM   42  N   UNL     1      -5.151  12.152  70.960  1.00  0.00    -0.133 NA 
HETATM   43  H   UNL     1      -6.237   9.337  69.711  1.00  0.00     0.000 HD 
HETATM   44  S   UNL     1      -7.867  13.368  70.018  1.00  0.00     2.274 SA 
HETATM   45  H1  UNL     1      -4.419  11.445  71.023  1.00  0.00     0.000 HD 
HETATM   46  H2  UNL     1      -5.118  13.056  71.432  1.00  0.00     0.000 HD 
HETATM   47  N   UNL     1      -6.821  10.173  69.724  1.00  0.00    -0.088 NA 
BRANCH  38  48
HETATM   48  N   UNL     1      -9.346   7.959  69.050  1.00  0.00    -0.151 NA 
HETATM   49  H   UNL     1      -9.329   7.311  68.263  1.00  0.00     0.000 HD 
BRANCH  48  50
HETATM   50  O   UNL     1      -8.983   7.538  70.293  1.00  0.00    -0.146 OA 
HETATM   51  O   UNL     1     -11.882   5.835  71.408  1.00  0.00     0.016 OA 
HETATM   52  C   UNL     1     -10.983   6.649  71.234  1.00  0.00    -0.253 C  
HETATM   53  C   UNL     1      -8.811   5.624  71.633  1.00  0.00    -0.140 C  
HETATM   54  C   UNL     1     -10.239   5.446  69.330  1.00  0.00    -0.315 C  
HETATM   55  C   UNL     1      -9.674   6.289  70.553  1.00  0.00    -0.173 C  
HETATM   56  O   UNL     1     -11.077   7.933  71.631  1.00  0.00    -0.236 OA 
ENDBRANCH  48  50
ENDBRANCH  38  48
ENDBRANCH  35  38
ENDBRANCH  33  34
ENDBRANCH  21  22
ENDBRANCH   9  21
TORSDOF 11
ENDMDL
MODEL      143
REMARK 921   NORMALIZED FREE ENERGY PREDICTED BY IDOCK:    8.80 KCAL/MOL
REMARK 922        TOTAL FREE ENERGY PREDICTED BY IDOCK:   10.68 KCAL/MOL
REMARK 923 INTER-LIGAND FREE ENERGY PREDICTED BY IDOCK:   12.29 KCAL/MOL
REMARK 924 INTRA-LIGAND FREE ENERGY PREDICTED BY IDOCK:   -1.61 KCAL/MOL
REMARK 927      BINDING AFFINITY PREDICTED BY RF-SCORE:    0.00 PKD
ROOT
HETATM    1  C   UNL     1      -6.839  10.116  62.621  1.00  0.00    -0.129 C  
HETATM    2  N   UNL     1      -7.275  10.160  64.002  1.00  0.00    -0.129 NA 
HETATM    3  C   UNL     1      -6.540   9.683  65.074  1.00  0.00    -0.091 A  
HETATM    4  C   UNL     1      -7.399   9.168  66.070  1.00  0.00    -0.094 A  
HETATM    5  N   UNL     1      -5.188   9.660  65.166  1.00  0.00    -0.043 NA 
HETATM    6  C   UNL     1      -8.693   9.319  65.451  1.00  0.00    -0.178 A  
HETATM    7  H2  UNL     1      -4.663  10.027  64.372  1.00  0.00     0.000 HD 
HETATM    8  H1  UNL     1      -4.646   9.308  65.955  1.00  0.00     0.000 HD 
HETATM    9  N   UNL     1      -8.568  10.242  64.378  1.00  0.00    -0.179 NA 
ENDROOT
BRANCH   4  10
HETATM   10  N   UNL     1      -6.894   8.577  67.215  1.00  0.00    -0.067 N  
HETATM   11  H   UNL     1      -6.494   7.645  67.113  1.00  0.00     0.000 HD 
BRANCH  10  12
HETATM   12  C   UNL     1      -6.879   9.116  68.464  1.00  0.00    -0.063 C  
HETATM   13  O   UNL     1      -6.863   8.375  69.439  1.00  0.00    -0.045 OA 
BRANCH  12  14
HETATM   14  N   UNL     1      -7.054  10.466  68.514  1.00  0.00    -0.073 N  
HETATM   15  H   UNL     1      -7.879  10.895  68.095  1.00  0.00     0.000 HD 
BRANCH  14  16
HETATM   16  C   UNL     1      -6.052  11.288  69.172  1.00  0.00    -0.053 C  
BRANCH  16  17
HETATM   17  C   UNL     1      -5.445  12.340  68.235  1.00  0.00    -0.055 C  
HETATM   18  H2  UNL     1      -6.353  13.919  69.208  1.00  0.00     0.000 HD 
HETATM   19  N   UNL     1      -6.237  13.561  68.260  1.00  0.00    -0.093 NA 
HETATM   20  H1  UNL     1      -5.834  14.261  67.637  1.00  0.00     0.000 HD 
ENDBRANCH  16  17
ENDBRANCH  14  16
ENDBRANCH  12  14
ENDBRANCH  10  12
ENDBRANCH   4  10
BRANCH   9  21
HETATM   21  C   UNL     1      -9.565  11.010  63.574  1.00  0.00    -0.313 C  
BRANCH  21  22
HETATM   22  C   UNL     1     -10.088  12.604  64.146  1.00  0.00    -0.293 C  
HETATM   23  CA  UNL     1     -11.772  13.252  64.798  1.00  0.00    -0.355 C  
HETATM   24  C   UNL     1     -12.157  14.592  66.944  1.00  0.00    -0.198 C  
HETATM   25  C   UNL     1      -8.550  13.682  64.100  1.00  0.00     6.928 C  
HETATM   26  C   UNL     1     -13.520  12.482  64.844  1.00  0.00     1.378 C  
HETATM   27  N   UNL     1     -12.021  14.690  65.546  1.00  0.00    -0.301 N  
HETATM   28  O   UNL     1     -12.540  13.714  67.706  1.00  0.00     0.074 OA 
HETATM   29  S   UNL     1      -8.772  15.744  64.969  1.00  0.00     4.097 SA 
HETATM   30  C   UNL     1     -10.901  15.859  65.705  1.00  0.00    -0.254 C  
HETATM   31  O   UNL     1     -13.849  11.746  63.857  1.00  0.00     0.026 OA 
HETATM   32  OXT UNL     1     -14.231  12.981  65.752  1.00  0.00     2.571 OA 
HETATM   33  CA  UNL     1     -11.053  15.607  67.258  1.00  0.00    -0.238 C  
BRANCH  33  34
HETATM   34  N   UNL     1      -9.931  15.006  68.056  1.00  0.00    -0.217 N  
HETATM   35  C   UNL     1      -9.935  14.263  69.246  1.00  0.00     0.074 C  
HETATM   36  H   UNL     1      -9.003  15.166  67.663  1.00  0.00     0.000 HD 
HETATM   37  O   UNL     1      -8.820  13.892  69.612  1.00  0.00     0.763 OA 
BRANCH  35  38
HETATM   38  C   UNL     1     -11.201  13.848  70.116  1.00  0.00     0.104 C  
HETATM   39  C   UNL     1     -11.611  12.470  70.259  1.00  0.00     0.033 C  
HETATM   40  C   UNL     1     -12.855   9.676  70.835  1.00  0.00    -0.192 C  
HETATM   41  N   UNL     1     -10.419  11.523  69.651  1.00  0.00     0.150 NA 
HETATM   42  N   UNL     1     -13.296   8.604  71.560  1.00  0.00    -0.443 NA 
HETATM   43  H   UNL     1     -13.813  11.827  71.491  1.00  0.00     0.000 HD 
HETATM   44  S   UNL     1     -10.898   9.166  69.642  1.00  0.00    -0.154 SA 
HETATM   45  H1  UNL     1     -14.146   8.824  72.078  1.00  0.00     0.000 HD 
HETATM   46  H2  UNL     1     -12.832   7.696  71.579  1.00  0.00     0.000 HD 
HETATM   47  N   UNL     1     -13.017  11.407  71.013  1.00  0.00    -0.262 NA 
BRANCH  38  48
HETATM   48  N   UNL     1     -11.873  14.633  70.885  1.00  0.00    -0.323 NA 
HETATM   49  H   UNL     1     -12.550  15.284  70.487  1.00  0.00     0.000 HD 
BRANCH  48  50
HETATM   50  O   UNL     1     -11.674  14.588  72.232  1.00  0.00    -0.113 OA 
HETATM   51  O   UNL     1     -14.175  16.779  73.454  1.00  0.00     0.260 OA 
HETATM   52  C   UNL     1     -13.116  16.271  73.107  1.00  0.00    -0.295 C  
HETATM   53  C   UNL     1     -12.763  14.157  74.260  1.00  0.00     2.367 C  
HETATM   54  C   UNL     1     -14.289  14.507  72.041  1.00  0.00    -0.639 C  
HETATM   55  C   UNL     1     -12.962  14.779  72.873  1.00  0.00    -0.487 C  
HETATM   56  O   UNL     1     -11.995  16.992  72.905  1.00  0.00    -0.169 OA 
ENDBRANCH  48  50
ENDBRANCH  38  48
ENDBRANCH  35  38
ENDBRANCH  33  34
ENDBRANCH  21  22
ENDBRANCH   9  21
TORSDOF 11
ENDMDL
MODEL      144
REMARK 921   NORMALIZED FREE ENERGY PREDICTED BY IDOCK:    8.87 KCAL/MOL
REMARK 922        TOTAL FREE ENERGY PREDICTED BY IDOCK:   10.79 KCAL/MOL
REMARK 923 INTER-LIGAND FREE ENERGY PREDICTED BY IDOCK:   -4.13 KCAL/MOL
REMARK 924 INTRA-LIGAND FREE ENERGY PREDICTED BY IDOCK:   14.92 KCAL/MOL
REMARK 927      BINDING AFFINITY PREDICTED BY RF-SCORE:    0.00 PKD
ROOT
HETATM    1  C   UNL     1      -6.636  12.843  69.076  1.00  0.00    -0.102 C  
HETATM    2  N   UNL     1      -7.909  12.657  68.410  1.00  0.00    -0.140 NA 
HETATM    3  C   UNL     1      -9.090  13.277  68.784  1.00  0.00     0.142 A  
HETATM    4  C   UNL     1     -10.192  12.429  68.533  1.00  0.00    -0.205 A  
HETATM    5  N   UNL     1      -9.201  14.502  69.351  1.00  0.00    -0.396 NA 
HETATM    6  C   UNL     1      -9.542  11.234  68.052  1.00  0.00    -0.180 A  
HETATM    7  H2  UNL     1      -8.336  15.015  69.519  1.00  0.00     0.000 HD 
HETATM    8  H1  UNL     1     -10.070  14.958  69.627  1.00  0.00     0.000 HD 
HETATM    9  N   UNL     1      -8.216  11.573  67.668  1.00  0.00    -0.126 NA 
ENDROOT
BRANCH   4  10
HETATM   10  N   UNL     1     -11.477  12.804  68.882  1.00  0.00    -0.285 N  
HETATM   11  H   UNL     1     -12.200  12.088  68.812  1.00  0.00     0.000 HD 
BRANCH  10  12
HETATM   12  C   UNL     1     -11.873  14.034  69.308  1.00  0.00    -0.344 C  
HETATM   13  O   UNL     1     -11.858  14.289  70.506  1.00  0.00    -0.295 OA 
BRANCH  12  14
HETATM   14  N   UNL     1     -12.417  14.832  68.349  1.00  0.00    -0.480 N  
HETATM   15  H   UNL     1     -13.307  15.302  68.513  1.00  0.00     0.000 HD 
BRANCH  14  16
HETATM   16  C   UNL     1     -11.716  15.005  67.087  1.00  0.00    -0.215 C  
BRANCH  16  17
HETATM   17  C   UNL     1     -12.464  14.374  65.906  1.00  0.00    -0.300 C  
HETATM   18  H2  UNL     1     -12.823  12.606  66.909  1.00  0.00     0.000 HD 
HETATM   19  N   UNL     1     -12.453  12.923  66.013  1.00  0.00    -0.491 NA 
HETATM   20  H1  UNL     1     -12.950  12.503  65.228  1.00  0.00     0.000 HD 
ENDBRANCH  16  17
ENDBRANCH  14  16
ENDBRANCH  12  14
ENDBRANCH  10  12
ENDBRANCH   4  10
BRANCH   9  21
HETATM   21  C   UNL     1      -7.182  10.871  66.851  1.00  0.00    -0.124 C  
BRANCH  21  22
HETATM   22  C   UNL     1      -6.566   9.302  67.404  1.00  0.00    -0.064 C  
HETATM   23  CA  UNL     1      -6.630   8.418  69.105  1.00  0.00    -0.047 C  
HETATM   24  C   UNL     1      -7.369   6.007  69.538  1.00  0.00    -0.076 C  
HETATM   25  C   UNL     1      -5.827   8.491  65.880  1.00  0.00    -0.047 C  
HETATM   26  C   UNL     1      -7.167   9.003  70.843  1.00  0.00    -0.103 C  
HETATM   27  N   UNL     1      -6.250   6.847  69.384  1.00  0.00    -0.033 N  
HETATM   28  O   UNL     1      -8.520   6.177  69.919  1.00  0.00    -0.125 OA 
HETATM   29  S   UNL     1      -5.129   6.368  66.141  1.00  0.00    -0.013 SA 
HETATM   30  C   UNL     1      -5.605   5.840  68.282  1.00  0.00    -0.008 C  
HETATM   31  O   UNL     1      -6.905  10.212  71.148  1.00  0.00    -0.314 OA 
HETATM   32  OXT UNL     1      -7.524   8.044  71.573  1.00  0.00    -0.065 OA 
HETATM   33  CA  UNL     1      -6.941   5.014  68.452  1.00  0.00    -0.057 C  
BRANCH  33  34
HETATM   34  N   UNL     1      -7.940   4.922  67.333  1.00  0.00    -0.095 N  
HETATM   35  C   UNL     1      -8.723   5.903  66.708  1.00  0.00    -0.117 C  
HETATM   36  H   UNL     1      -8.072   3.980  66.964  1.00  0.00     0.000 HD 
HETATM   37  O   UNL     1      -9.423   5.479  65.788  1.00  0.00    -0.141 OA 
BRANCH  35  38
HETATM   38  C   UNL     1      -8.767   7.458  67.045  1.00  0.00    -0.123 C  
HETATM   39  C   UNL     1      -8.892   8.461  66.012  1.00  0.00    -0.167 C  
HETATM   40  C   UNL     1      -9.135  10.941  64.148  1.00  0.00    -0.151 C  
HETATM   41  N   UNL     1      -9.256   7.697  64.609  1.00  0.00     1.012 NA 
HETATM   42  N   UNL     1      -9.652  12.091  63.621  1.00  0.00    -0.581 NA 
HETATM   43  H   UNL     1      -8.728  11.002  66.558  1.00  0.00     0.000 HD 
HETATM   44  S   UNL     1      -9.393   9.127  62.680  1.00  0.00     0.804 SA 
HETATM   45  H1  UNL     1      -9.540  12.880  64.258  1.00  0.00     0.000 HD 
HETATM   46  H2  UNL     1     -10.095  12.154  62.705  1.00  0.00     0.000 HD 
HETATM   47  N   UNL     1      -8.878  10.363  65.777  1.00  0.00    -0.163 NA 
BRANCH  38  48
HETATM   48  N   UNL     1      -8.858   7.968  68.225  1.00  0.00    -0.133 NA 
HETATM   49  H   UNL     1      -8.356   8.825  68.452  1.00  0.00     0.000 HD 
BRANCH  48  50
HETATM   50  O   UNL     1      -9.629   7.354  69.165  1.00  0.00    -0.156 OA 
HETATM   51  O   UNL     1     -11.969   9.876  70.009  1.00  0.00    -0.147 OA 
HETATM   52  C   UNL     1     -11.036   9.083  70.008  1.00  0.00    -0.214 C  
HETATM   53  C   UNL     1     -11.846   6.809  69.688  1.00  0.00    -0.049 C  
HETATM   54  C   UNL     1     -11.408   8.620  67.712  1.00  0.00     0.923 C  
HETATM   55  C   UNL     1     -10.969   7.899  69.059  1.00  0.00     0.100 C  
HETATM   56  O   UNL     1      -9.988   9.190  70.849  1.00  0.00    -0.240 OA 
ENDBRANCH  48  50
ENDBRANCH  38  48
ENDBRANCH  35  38
ENDBRANCH  33  34
ENDBRANCH  21  22
ENDBRANCH   9  21
TORSDOF 11
ENDMDL
MODEL      145
REMARK 921   NORMALIZED FREE ENERGY PREDICTED BY IDOCK:    9.87 KCAL/MOL
REMARK 922        TOTAL FREE ENERGY PREDICTED BY IDOCK:   12.44 KCAL/MOL
REMARK 923 INTER-LIGAND FREE ENERGY PREDICTED BY IDOCK:   -3.31 KCAL/MOL
REMARK 924 INTRA-LIGAND FREE ENERGY PREDICTED BY IDOCK:   15.75 KCAL/MOL
REMARK 927      BINDING AFFINITY PREDICTED BY RF-SCORE:    0.00 PKD
ROOT
HETATM    1  C   UNL     1      -8.742  10.215  69.302  1.00  0.00    -0.179 C  
HETATM    2  N   UNL     1      -9.669   9.944  70.382  1.00  0.00    -0.180 NA 
HETATM    3  C   UNL     1      -9.573   8.869  71.250  1.00  0.00    -0.278 A  
HETATM    4  C   UNL     1     -10.859   8.429  71.634  1.00  0.00    -0.268 A  
HETATM    5  N   UNL     1      -8.425   8.275  71.657  1.00  0.00    -0.135 NA 
HETATM    6  C   UNL     1     -11.712   9.294  70.855  1.00  0.00    -0.296 A  
HETATM    7  H2  UNL     1      -7.552   8.653  71.290  1.00  0.00     0.000 HD 
HETATM    8  H1  UNL     1      -8.354   7.483  72.296  1.00  0.00     0.000 HD 
HETATM    9  N   UNL     1     -10.938  10.401  70.412  1.00  0.00    -0.291 NA 
ENDROOT
BRANCH   4  10
HETATM   10  N   UNL     1     -11.023   7.326  72.452  1.00  0.00    -0.251 N  
HETATM   11  H   UNL     1     -10.802   7.449  73.440  1.00  0.00     0.000 HD 
BRANCH  10  12
HETATM   12  C   UNL     1     -11.451   6.092  72.069  1.00  0.00    -0.313 C  
HETATM   13  O   UNL     1     -11.680   5.243  72.922  1.00  0.00    -0.295 OA 
BRANCH  12  14
HETATM   14  N   UNL     1     -11.427   5.861  70.727  1.00  0.00    -0.150 N  
HETATM   15  H   UNL     1     -12.207   6.155  70.139  1.00  0.00     0.000 HD 
BRANCH  14  16
HETATM   16  C   UNL     1     -10.277   5.191  70.143  1.00  0.00    -0.278 C  
BRANCH  16  17
HETATM   17  C   UNL     1     -10.063   5.566  68.671  1.00  0.00    -0.183 C  
HETATM   18  H2  UNL     1      -9.540   7.515  69.107  1.00  0.00     0.000 HD 
HETATM   19  N   UNL     1     -10.173   7.005  68.490  1.00  0.00    -0.166 NA 
HETATM   20  H1  UNL     1     -10.030   7.255  67.512  1.00  0.00     0.000 HD 
ENDBRANCH  16  17
ENDBRANCH  14  16
ENDBRANCH  12  14
ENDBRANCH  10  12
ENDBRANCH   4  10
BRANCH   9  21
HETATM   21  C   UNL     1     -11.300  11.732  69.842  1.00  0.00    -0.121 C  
BRANCH  21  22
HETATM   22  C   UNL     1     -10.056  12.675  69.000  1.00  0.00     0.164 C  
HETATM   23  CA  UNL     1      -9.516  12.748  67.161  1.00  0.00    -0.223 C  
HETATM   24  C   UNL     1      -9.205  14.861  65.751  1.00  0.00     0.041 C  
HETATM   25  C   UNL     1      -9.305  13.793  70.309  1.00  0.00     3.077 C  
HETATM   26  C   UNL     1      -9.963  11.677  65.642  1.00  0.00    -0.240 C  
HETATM   27  N   UNL     1      -8.529  13.875  66.495  1.00  0.00     0.169 N  
HETATM   28  O   UNL     1     -10.261  14.890  65.132  1.00  0.00    -0.383 OA 
HETATM   29  S   UNL     1      -7.820  15.311  69.567  1.00  0.00    -0.145 SA 
HETATM   30  C   UNL     1      -7.725  15.015  67.333  1.00  0.00    -0.200 C  
HETATM   31  O   UNL     1     -10.139  10.432  65.850  1.00  0.00    -0.247 OA 
HETATM   32  OXT UNL     1      -9.812  12.304  64.563  1.00  0.00    -0.203 OA 
HETATM   33  CA  UNL     1      -8.603  16.044  66.516  1.00  0.00    -0.309 C  
BRANCH  33  34
HETATM   34  N   UNL     1      -9.649  16.878  67.198  1.00  0.00    -0.239 N  
HETATM   35  C   UNL     1     -10.901  16.540  67.733  1.00  0.00    -0.304 C  
HETATM   36  H   UNL     1      -9.407  17.866  67.288  1.00  0.00     0.000 HD 
HETATM   37  O   UNL     1     -11.497  17.481  68.257  1.00  0.00     0.230 OA 
BRANCH  35  38
HETATM   38  C   UNL     1     -11.582  15.101  67.750  1.00  0.00    -0.289 C  
HETATM   39  C   UNL     1     -12.022  14.450  66.537  1.00  0.00    -0.386 C  
HETATM   40  C   UNL     1     -13.120  12.692  64.215  1.00  0.00     0.043 C  
HETATM   41  N   UNL     1     -11.433  15.300  65.266  1.00  0.00    -0.269 NA 
HETATM   42  N   UNL     1     -13.252  11.609  63.391  1.00  0.00    -0.546 NA 
HETATM   43  H   UNL     1     -13.342  12.206  66.601  1.00  0.00     0.000 HD 
HETATM   44  S   UNL     1     -12.127  14.507  63.104  1.00  0.00     1.857 SA 
HETATM   45  H1  UNL     1     -13.683  10.821  63.874  1.00  0.00     0.000 HD 
HETATM   46  H2  UNL     1     -12.956  11.592  62.416  1.00  0.00     0.000 HD 
HETATM   47  N   UNL     1     -12.959  12.886  65.945  1.00  0.00    -0.006 NA 
BRANCH  38  48
HETATM   48  N   UNL     1     -11.666  14.322  68.772  1.00  0.00    -0.323 NA 
HETATM   49  H   UNL     1     -10.853  13.787  69.076  1.00  0.00     0.000 HD 
BRANCH  48  50
HETATM   50  O   UNL     1     -12.846  14.219  69.445  1.00  0.00     0.083 OA 
HETATM   51  O   UNL     1     -11.843  14.584  72.822  1.00  0.00    -0.033 OA 
HETATM   52  C   UNL     1     -12.221  14.146  71.743  1.00  0.00    -0.157 C  
HETATM   53  C   UNL     1     -14.211  15.331  70.990  1.00  0.00    -0.275 C  
HETATM   54  C   UNL     1     -11.653  16.195  70.692  1.00  0.00    -0.347 C  
HETATM   55  C   UNL     1     -12.747  15.042  70.635  1.00  0.00    -0.376 C  
HETATM   56  O   UNL     1     -12.207  12.832  71.445  1.00  0.00    -0.095 OA 
ENDBRANCH  48  50
ENDBRANCH  38  48
ENDBRANCH  35  38
ENDBRANCH  33  34
ENDBRANCH  21  22
ENDBRANCH   9  21
TORSDOF 11
ENDMDL
MODEL      146
REMARK 921   NORMALIZED FREE ENERGY PREDICTED BY IDOCK:    9.92 KCAL/MOL
REMARK 922        TOTAL FREE ENERGY PREDICTED BY IDOCK:   12.51 KCAL/MOL
REMARK 923 INTER-LIGAND FREE ENERGY PREDICTED BY IDOCK:   -0.39 KCAL/MOL
REMARK 924 INTRA-LIGAND FREE ENERGY PREDICTED BY IDOCK:   12.90 KCAL/MOL
REMARK 927      BINDING AFFINITY PREDICTED BY RF-SCORE:    0.00 PKD
ROOT
HETATM    1  C   UNL     1      -6.020  12.856  69.789  1.00  0.00    -0.129 C  
HETATM    2  N   UNL     1      -6.064  13.304  68.412  1.00  0.00    -0.078 NA 
HETATM    3  C   UNL     1      -6.631  14.495  67.989  1.00  0.00    -0.148 A  
HETATM    4  C   UNL     1      -7.197  14.343  66.704  1.00  0.00     1.522 A  
HETATM    5  N   UNL     1      -6.688  15.646  68.702  1.00  0.00    -0.112 NA 
HETATM    6  C   UNL     1      -6.976  12.941  66.448  1.00  0.00     1.912 A  
HETATM    7  H2  UNL     1      -6.277  15.635  69.635  1.00  0.00     0.000 HD 
HETATM    8  H1  UNL     1      -7.106  16.523  68.392  1.00  0.00     0.000 HD 
HETATM    9  N   UNL     1      -5.982  12.475  67.351  1.00  0.00    -0.169 NA 
ENDROOT
BRANCH   4  10
HETATM   10  N   UNL     1      -7.877  15.382  66.094  1.00  0.00     0.221 N  
HETATM   11  H   UNL     1      -7.332  15.997  65.490  1.00  0.00     0.000 HD 
BRANCH  10  12
HETATM   12  C   UNL     1      -9.202  15.666  66.220  1.00  0.00    -0.330 C  
HETATM   13  O   UNL     1      -9.888  15.794  65.213  1.00  0.00    -0.375 OA 
BRANCH  12  14
HETATM   14  N   UNL     1      -9.616  15.949  67.486  1.00  0.00    -0.220 N  
HETATM   15  H   UNL     1      -9.454  15.285  68.243  1.00  0.00     0.000 HD 
BRANCH  14  16
HETATM   16  C   UNL     1     -10.292  17.209  67.747  1.00  0.00    -0.347 C  
BRANCH  16  17
HETATM   17  C   UNL     1      -9.335  18.408  67.717  1.00  0.00    -0.274 C  
HETATM   18  H2  UNL     1     -10.714  19.653  66.816  1.00  0.00     0.000 HD 
HETATM   19  N   UNL     1      -9.744  19.361  66.696  1.00  0.00    -0.335 NA 
HETATM   20  H1  UNL     1      -9.108  20.158  66.676  1.00  0.00     0.000 HD 
ENDBRANCH  16  17
ENDBRANCH  14  16
ENDBRANCH  12  14
ENDBRANCH  10  12
ENDBRANCH   4  10
BRANCH   9  21
HETATM   21  C   UNL     1      -5.140  11.243  67.389  1.00  0.00    -0.047 C  
BRANCH  21  22
HETATM   22  C   UNL     1      -5.861   9.691  66.924  1.00  0.00    -0.051 C  
HETATM   23  CA  UNL     1      -6.622   8.262  67.952  1.00  0.00    -0.061 C  
HETATM   24  C   UNL     1      -8.885   7.136  67.549  1.00  0.00    -0.119 C  
HETATM   25  C   UNL     1      -5.852   9.679  65.046  1.00  0.00    -0.070 C  
HETATM   26  C   UNL     1      -6.663   7.903  69.829  1.00  0.00    -0.038 C  
HETATM   27  N   UNL     1      -7.496   7.010  67.354  1.00  0.00    -0.095 N  
HETATM   28  O   UNL     1      -9.583   7.705  68.378  1.00  0.00    -0.149 OA 
HETATM   29  S   UNL     1      -6.898   7.942  64.072  1.00  0.00    -0.063 SA 
HETATM   30  C   UNL     1      -7.714   6.704  65.772  1.00  0.00    -0.092 C  
HETATM   31  O   UNL     1      -5.630   8.232  70.499  1.00  0.00    -0.028 OA 
HETATM   32  OXT UNL     1      -7.635   7.171  70.147  1.00  0.00    -0.087 OA 
HETATM   33  CA  UNL     1      -9.244   6.961  66.069  1.00  0.00    -0.020 C  
BRANCH  33  34
HETATM   34  N   UNL     1      -9.950   8.161  65.505  1.00  0.00     0.212 N  
HETATM   35  C   UNL     1     -10.567   9.253  66.131  1.00  0.00     0.303 C  
HETATM   36  H   UNL     1      -9.988   8.185  64.485  1.00  0.00     0.000 HD 
HETATM   37  O   UNL     1     -11.028  10.087  65.353  1.00  0.00     0.493 OA 
BRANCH  35  38
HETATM   38  C   UNL     1     -10.694   9.518  67.696  1.00  0.00    -0.250 C  
HETATM   39  C   UNL     1     -10.606  10.847  68.256  1.00  0.00    -0.190 C  
HETATM   40  C   UNL     1     -10.471  13.493  69.889  1.00  0.00     0.948 C  
HETATM   41  N   UNL     1     -10.659  11.920  67.018  1.00  0.00    -0.220 NA 
HETATM   42  N   UNL     1     -10.875  14.490  70.732  1.00  0.00    -0.325 NA 
HETATM   43  H   UNL     1     -10.583  11.239  70.830  1.00  0.00     0.000 HD 
HETATM   44  S   UNL     1     -10.398  14.223  67.659  1.00  0.00    -0.249 SA 
HETATM   45  H1  UNL     1     -10.907  14.173  71.701  1.00  0.00     0.000 HD 
HETATM   46  H2  UNL     1     -11.115  15.434  70.430  1.00  0.00     0.000 HD 
HETATM   47  N   UNL     1     -10.559  11.748  69.947  1.00  0.00     0.498 NA 
BRANCH  38  48
HETATM   48  N   UNL     1     -11.037   8.645  68.579  1.00  0.00    -0.382 NA 
HETATM   49  H   UNL     1     -11.721   7.925  68.349  1.00  0.00     0.000 HD 
BRANCH  48  50
HETATM   50  O   UNL     1     -10.479   8.689  69.821  1.00  0.00    -0.212 OA 
HETATM   51  O   UNL     1     -13.279   8.222  71.940  1.00  0.00    -0.332 OA 
HETATM   52  C   UNL     1     -12.337   8.690  71.313  1.00  0.00    -0.263 C  
HETATM   53  C   UNL     1     -10.285   7.481  71.818  1.00  0.00    -0.216 C  
HETATM   54  C   UNL     1     -12.176   6.701  70.032  1.00  0.00     0.163 C  
HETATM   55  C   UNL     1     -11.260   7.823  70.685  1.00  0.00    -0.268 C  
HETATM   56  O   UNL     1     -12.174  10.015  71.126  1.00  0.00    -0.322 OA 
ENDBRANCH  48  50
ENDBRANCH  38  48
ENDBRANCH  35  38
ENDBRANCH  33  34
ENDBRANCH  21  22
ENDBRANCH   9  21
TORSDOF 11
ENDMDL
MODEL      147
REMARK 921   NORMALIZED FREE ENERGY PREDICTED BY IDOCK:   10.62 KCAL/MOL
REMARK 922        TOTAL FREE ENERGY PREDICTED BY IDOCK:   13.66 KCAL/MOL
REMARK 923 INTER-LIGAND FREE ENERGY PREDICTED BY IDOCK:   -6.65 KCAL/MOL
REMARK 924 INTRA-LIGAND FREE ENERGY PREDICTED BY IDOCK:   20.31 KCAL/MOL
REMARK 927      BINDING AFFINITY PREDICTED BY RF-SCORE:    0.00 PKD
ROOT
HETATM    1  C   UNL     1      -6.487  13.257  68.837  1.00  0.00    -0.100 C  
HETATM    2  N   UNL     1      -7.333  13.076  67.675  1.00  0.00    -0.133 NA 
HETATM    3  C   UNL     1      -8.523  13.751  67.456  1.00  0.00    -0.196 A  
HETATM    4  C   UNL     1      -9.437  12.926  66.764  1.00  0.00    -0.245 A  
HETATM    5  N   UNL     1      -8.814  15.008  67.871  1.00  0.00    -0.168 NA 
HETATM    6  C   UNL     1      -8.703  11.688  66.667  1.00  0.00    -0.187 A  
HETATM    7  H2  UNL     1      -8.091  15.502  68.393  1.00  0.00     0.000 HD 
HETATM    8  H1  UNL     1      -9.689  15.505  67.709  1.00  0.00     0.000 HD 
HETATM    9  N   UNL     1      -7.331  11.964  66.912  1.00  0.00    -0.115 NA 
ENDROOT
BRANCH   4  10
HETATM   10  N   UNL     1     -10.721  13.359  66.483  1.00  0.00    -0.284 N  
HETATM   11  H   UNL     1     -11.332  13.535  67.280  1.00  0.00     0.000 HD 
BRANCH  10  12
HETATM   12  C   UNL     1     -11.249  13.572  65.247  1.00  0.00    -0.292 C  
HETATM   13  O   UNL     1     -11.601  14.702  64.931  1.00  0.00    -0.372 OA 
BRANCH  12  14
HETATM   14  N   UNL     1     -11.494  12.448  64.520  1.00  0.00    -0.323 N  
HETATM   15  H   UNL     1     -12.287  12.410  63.879  1.00  0.00     0.000 HD 
BRANCH  14  16
HETATM   16  C   UNL     1     -10.613  11.301  64.667  1.00  0.00    -0.327 C  
BRANCH  16  17
HETATM   17  C   UNL     1      -9.869  10.959  63.371  1.00  0.00    -0.362 C  
HETATM   18  H2  UNL     1      -8.159  11.971  63.931  1.00  0.00     0.000 HD 
HETATM   19  N   UNL     1      -8.794  11.910  63.134  1.00  0.00    -0.432 NA 
HETATM   20  H1  UNL     1      -8.299  11.683  62.272  1.00  0.00     0.000 HD 
ENDBRANCH  16  17
ENDBRANCH  14  16
ENDBRANCH  12  14
ENDBRANCH  10  12
ENDBRANCH   4  10
BRANCH   9  21
HETATM   21  C   UNL     1      -6.078  11.188  66.673  1.00  0.00    -0.133 C  
BRANCH  21  22
HETATM   22  C   UNL     1      -5.846   9.645  67.516  1.00  0.00    -0.047 C  
HETATM   23  CA  UNL     1      -6.101   9.122  69.343  1.00  0.00    -0.037 C  
HETATM   24  C   UNL     1      -7.387   7.071  70.173  1.00  0.00    -0.081 C  
HETATM   25  C   UNL     1      -5.335   8.421  66.185  1.00  0.00    -0.034 C  
HETATM   26  C   UNL     1      -6.467  10.121  70.931  1.00  0.00     0.039 C  
HETATM   27  N   UNL     1      -6.102   7.583  69.910  1.00  0.00    -0.027 N  
HETATM   28  O   UNL     1      -8.461   7.573  70.479  1.00  0.00    -0.129 OA 
HETATM   29  S   UNL     1      -5.158   6.277  66.843  1.00  0.00    -0.005 SA 
HETATM   30  C   UNL     1      -5.726   6.270  69.026  1.00  0.00    -0.020 C  
HETATM   31  O   UNL     1      -5.923  11.269  71.025  1.00  0.00    -0.367 OA 
HETATM   32  OXT UNL     1      -7.034   9.420  71.807  1.00  0.00    -0.314 OA 
HETATM   33  CA  UNL     1      -7.218   5.826  69.295  1.00  0.00    -0.066 C  
BRANCH  33  34
HETATM   34  N   UNL     1      -8.221   5.772  68.178  1.00  0.00    -0.104 N  
HETATM   35  C   UNL     1      -8.618   6.736  67.241  1.00  0.00    -0.120 C  
HETATM   36  H   UNL     1      -8.698   4.874  68.084  1.00  0.00     0.000 HD 
HETATM   37  O   UNL     1      -9.455   6.339  66.431  1.00  0.00    -0.156 OA 
BRANCH  35  38
HETATM   38  C   UNL     1      -8.084   8.231  67.115  1.00  0.00    -0.108 C  
HETATM   39  C   UNL     1      -7.503   8.734  65.891  1.00  0.00    -0.089 C  
HETATM   40  C   UNL     1      -6.186  10.229  63.499  1.00  0.00    -0.127 C  
HETATM   41  N   UNL     1      -7.783   7.634  64.710  1.00  0.00    -0.109 NA 
HETATM   42  N   UNL     1      -6.014  11.179  62.532  1.00  0.00    -0.354 NA 
HETATM   43  H   UNL     1      -6.425  11.101  65.771  1.00  0.00     0.000 HD 
HETATM   44  S   UNL     1      -6.803   8.160  62.577  1.00  0.00    -0.087 SA 
HETATM   45  H1  UNL     1      -5.746  12.078  62.932  1.00  0.00     0.000 HD 
HETATM   46  H2  UNL     1      -6.137  11.010  61.534  1.00  0.00     0.000 HD 
HETATM   47  N   UNL     1      -6.625  10.287  65.191  1.00  0.00    -0.128 NA 
BRANCH  38  48
HETATM   48  N   UNL     1      -8.249   9.163  67.988  1.00  0.00    -0.112 NA 
HETATM   49  H   UNL     1      -7.792  10.066  67.867  1.00  0.00     0.000 HD 
BRANCH  48  50
HETATM   50  O   UNL     1      -9.038   8.935  69.074  1.00  0.00    -0.136 OA 
HETATM   51  O   UNL     1     -11.581  11.373  68.706  1.00  0.00    -0.257 OA 
HETATM   52  C   UNL     1     -10.602  10.733  69.067  1.00  0.00    -0.219 C  
HETATM   53  C   UNL     1     -11.246   8.473  69.707  1.00  0.00     0.023 C  
HETATM   54  C   UNL     1     -10.797   9.326  67.168  1.00  0.00    -0.113 C  
HETATM   55  C   UNL     1     -10.401   9.271  68.706  1.00  0.00    -0.211 C  
HETATM   56  O   UNL     1      -9.619  11.267  69.819  1.00  0.00     0.514 OA 
ENDBRANCH  48  50
ENDBRANCH  38  48
ENDBRANCH  35  38
ENDBRANCH  33  34
ENDBRANCH  21  22
ENDBRANCH   9  21
TORSDOF 11
ENDMDL
MODEL      148
REMARK 921   NORMALIZED FREE ENERGY PREDICTED BY IDOCK:   10.83 KCAL/MOL
REMARK 922        TOTAL FREE ENERGY PREDICTED BY IDOCK:   14.02 KCAL/MOL
REMARK 923 INTER-LIGAND FREE ENERGY PREDICTED BY IDOCK:   -1.96 KCAL/MOL
REMARK 924 INTRA-LIGAND FREE ENERGY PREDICTED BY IDOCK:   15.97 KCAL/MOL
REMARK 927      BINDING AFFINITY PREDICTED BY RF-SCORE:    0.00 PKD
ROOT
HETATM    1  C   UNL     1     -12.731   7.061  69.456  1.00  0.00     2.551 C  
HETATM    2  N   UNL     1     -11.728   6.730  70.447  1.00  0.00    -0.372 NA 
HETATM    3  C   UNL     1     -11.709   7.223  71.742  1.00  0.00    -0.286 A  
HETATM    4  C   UNL     1     -10.378   7.378  72.189  1.00  0.00    -0.199 A  
HETATM    5  N   UNL     1     -12.792   7.558  72.483  1.00  0.00    -0.439 NA 
HETATM    6  C   UNL     1      -9.626   7.004  71.016  1.00  0.00    -0.170 A  
HETATM    7  H2  UNL     1     -13.707   7.437  72.048  1.00  0.00     0.000 HD 
HETATM    8  H1  UNL     1     -12.778   7.921  73.435  1.00  0.00     0.000 HD 
HETATM    9  N   UNL     1     -10.490   6.290  70.143  1.00  0.00    -0.206 NA 
ENDROOT
BRANCH   4  10
HETATM   10  N   UNL     1     -10.099   7.915  73.434  1.00  0.00    -0.278 N  
HETATM   11  H   UNL     1     -10.869   8.377  73.917  1.00  0.00     0.000 HD 
BRANCH  10  12
HETATM   12  C   UNL     1      -8.900   7.888  74.076  1.00  0.00    -0.210 C  
HETATM   13  O   UNL     1      -8.182   8.880  74.052  1.00  0.00    -0.261 OA 
BRANCH  12  14
HETATM   14  N   UNL     1      -8.531   6.670  74.561  1.00  0.00    -0.143 N  
HETATM   15  H   UNL     1      -9.233   6.022  74.919  1.00  0.00     0.000 HD 
BRANCH  14  16
HETATM   16  C   UNL     1      -7.124   6.304  74.564  1.00  0.00    -0.093 C  
BRANCH  16  17
HETATM   17  C   UNL     1      -6.752   5.384  73.394  1.00  0.00    -0.077 C  
HETATM   18  H2  UNL     1      -8.698   4.760  73.096  1.00  0.00     0.000 HD 
HETATM   19  N   UNL     1      -7.767   4.357  73.211  1.00  0.00    -0.085 NA 
HETATM   20  H1  UNL     1      -7.521   3.746  72.433  1.00  0.00     0.000 HD 
ENDBRANCH  16  17
ENDBRANCH  14  16
ENDBRANCH  12  14
ENDBRANCH  10  12
ENDBRANCH   4  10
BRANCH   9  21
HETATM   21  C   UNL     1     -10.244   5.419  68.955  1.00  0.00    -0.221 C  
BRANCH  21  22
HETATM   22  C   UNL     1      -8.575   5.138  68.424  1.00  0.00    -0.098 C  
HETATM   23  CA  UNL     1      -7.794   3.827  67.263  1.00  0.00    -0.079 C  
HETATM   24  C   UNL     1      -6.202   4.280  65.311  1.00  0.00    -0.027 C  
HETATM   25  C   UNL     1      -7.569   6.530  69.185  1.00  0.00    -0.100 C  
HETATM   26  C   UNL     1      -8.489   2.238  66.460  1.00  0.00    -0.101 C  
HETATM   27  N   UNL     1      -6.271   3.868  66.656  1.00  0.00    -0.031 N  
HETATM   28  O   UNL     1      -6.971   4.228  64.361  1.00  0.00    -0.045 OA 
HETATM   29  S   UNL     1      -5.412   6.637  68.553  1.00  0.00    -0.017 SA 
HETATM   30  C   UNL     1      -5.134   4.952  67.079  1.00  0.00    -0.008 C  
HETATM   31  O   UNL     1      -9.322   1.564  67.150  1.00  0.00    -0.083 OA 
HETATM   32  OXT UNL     1      -7.862   1.925  65.416  1.00  0.00    -0.071 OA 
HETATM   33  CA  UNL     1      -5.199   5.410  65.569  1.00  0.00    -0.009 C  
BRANCH  33  34
HETATM   34  N   UNL     1      -5.745   6.758  65.193  1.00  0.00    -0.030 N  
HETATM   35  C   UNL     1      -7.038   7.293  65.285  1.00  0.00    -0.060 C  
HETATM   36  H   UNL     1      -5.053   7.398  64.801  1.00  0.00     0.000 HD 
HETATM   37  O   UNL     1      -7.129   8.461  64.909  1.00  0.00    -0.077 OA 
BRANCH  35  38
HETATM   38  C   UNL     1      -8.343   6.565  65.835  1.00  0.00    -0.140 C  
HETATM   39  C   UNL     1      -9.010   5.525  65.087  1.00  0.00    -0.027 C  
HETATM   40  C   UNL     1     -10.765   3.277  63.840  1.00  0.00    -0.188 C  
HETATM   41  N   UNL     1      -8.040   5.101  63.836  1.00  0.00    -0.112 NA 
HETATM   42  N   UNL     1     -11.391   2.067  63.725  1.00  0.00    -0.571 NA 
HETATM   43  H   UNL     1     -11.270   4.509  65.890  1.00  0.00     0.000 HD 
HETATM   44  S   UNL     1      -8.971   3.467  62.337  1.00  0.00    -0.085 SA 
HETATM   45  H1  UNL     1     -12.171   1.984  64.378  1.00  0.00     0.000 HD 
HETATM   46  H2  UNL     1     -11.114   1.338  63.068  1.00  0.00     0.000 HD 
HETATM   47  N   UNL     1     -10.581   4.427  65.143  1.00  0.00    -0.209 NA 
BRANCH  38  48
HETATM   48  N   UNL     1      -8.831   6.696  67.020  1.00  0.00    -0.112 NA 
HETATM   49  H   UNL     1      -9.197   5.883  67.516  1.00  0.00     0.000 HD 
BRANCH  48  50
HETATM   50  O   UNL     1      -8.857   7.925  67.605  1.00  0.00    -0.128 OA 
HETATM   51  O   UNL     1     -10.975   9.765  65.442  1.00  0.00     0.873 OA 
HETATM   52  C   UNL     1     -10.012   9.308  66.046  1.00  0.00    -0.255 C  
HETATM   53  C   UNL     1     -10.313   9.554  68.449  1.00  0.00    -0.237 C  
HETATM   54  C   UNL     1     -11.365   7.569  66.924  1.00  0.00     0.927 C  
HETATM   55  C   UNL     1     -10.155   8.515  67.333  1.00  0.00    -0.234 C  
HETATM   56  O   UNL     1      -8.743   9.470  65.621  1.00  0.00    -0.134 OA 
ENDBRANCH  48  50
ENDBRANCH  38  48
ENDBRANCH  35  38
ENDBRANCH  33  34
ENDBRANCH  21  22
ENDBRANCH   9  21
TORSDOF 11
ENDMDL
MODEL      149
REMARK 921   NORMALIZED FREE ENERGY PREDICTED BY IDOCK:   11.25 KCAL/MOL
REMARK 922        TOTAL FREE ENERGY PREDICTED BY IDOCK:   14.70 KCAL/MOL
REMARK 923 INTER-LIGAND FREE ENERGY PREDICTED BY IDOCK:   -1.32 KCAL/MOL
REMARK 924 INTRA-LIGAND FREE ENERGY PREDICTED BY IDOCK:   16.02 KCAL/MOL
REMARK 927      BINDING AFFINITY PREDICTED BY RF-SCORE:    0.00 PKD
ROOT
HETATM    1  C   UNL     1      -6.300  10.142  65.090  1.00  0.00    -0.121 C  
HETATM    2  N   UNL     1      -7.049   9.117  65.787  1.00  0.00    -0.084 NA 
HETATM    3  C   UNL     1      -7.465   7.924  65.220  1.00  0.00    -0.081 A  
HETATM    4  C   UNL     1      -8.699   7.518  65.775  1.00  0.00    -0.118 A  
HETATM    5  N   UNL     1      -6.824   7.241  64.241  1.00  0.00    -0.046 NA 
HETATM    6  C   UNL     1      -9.000   8.617  66.659  1.00  0.00    -0.145 A  
HETATM    7  H2  UNL     1      -5.955   7.643  63.888  1.00  0.00     0.000 HD 
HETATM    8  H1  UNL     1      -7.129   6.363  63.823  1.00  0.00     0.000 HD 
HETATM    9  N   UNL     1      -7.804   9.353  66.880  1.00  0.00    -0.104 NA 
ENDROOT
BRANCH   4  10
HETATM   10  N   UNL     1      -9.349   6.383  65.324  1.00  0.00    -0.172 N  
HETATM   11  H   UNL     1      -9.656   6.386  64.351  1.00  0.00     0.000 HD 
BRANCH  10  12
HETATM   12  C   UNL     1      -9.618   5.264  66.048  1.00  0.00    -0.149 C  
HETATM   13  O   UNL     1     -10.549   4.540  65.714  1.00  0.00    -0.285 OA 
BRANCH  12  14
HETATM   14  N   UNL     1      -8.910   5.137  67.204  1.00  0.00    -0.110 N  
HETATM   15  H   UNL     1      -8.121   5.755  67.396  1.00  0.00     0.000 HD 
BRANCH  14  16
HETATM   16  C   UNL     1      -9.289   4.110  68.160  1.00  0.00    -0.159 C  
BRANCH  16  17
HETATM   17  C   UNL     1      -9.457   4.662  69.581  1.00  0.00    -0.162 C  
HETATM   18  H2  UNL     1      -9.253   2.808  70.467  1.00  0.00     0.000 HD 
HETATM   19  N   UNL     1      -9.885   3.609  70.490  1.00  0.00    -0.128 NA 
HETATM   20  H1  UNL     1      -9.997   3.975  71.435  1.00  0.00     0.000 HD 
ENDBRANCH  16  17
ENDBRANCH  14  16
ENDBRANCH  12  14
ENDBRANCH  10  12
ENDBRANCH   4  10
BRANCH   9  21
HETATM   21  C   UNL     1      -7.412  10.380  67.890  1.00  0.00    -0.087 C  
BRANCH  21  22
HETATM   22  C   UNL     1      -7.755  12.088  67.560  1.00  0.00    -0.155 C  
HETATM   23  CA  UNL     1      -8.599  12.972  66.081  1.00  0.00     0.607 C  
HETATM   24  C   UNL     1     -10.472  14.710  66.218  1.00  0.00    -0.298 C  
HETATM   25  C   UNL     1      -7.182  13.017  69.088  1.00  0.00     0.084 C  
HETATM   26  C   UNL     1      -9.154  12.359  64.358  1.00  0.00     0.947 C  
HETATM   27  N   UNL     1      -9.085  14.538  66.051  1.00  0.00    -0.060 N  
HETATM   28  O   UNL     1     -11.454  14.019  65.979  1.00  0.00    -0.323 OA 
HETATM   29  S   UNL     1      -7.656  15.216  69.133  1.00  0.00    -0.201 SA 
HETATM   30  C   UNL     1      -8.778  15.627  67.219  1.00  0.00    -0.194 C  
HETATM   31  O   UNL     1      -8.421  11.480  63.798  1.00  0.00     0.456 OA 
HETATM   32  OXT UNL     1     -10.074  13.070  63.880  1.00  0.00    -0.365 OA 
HETATM   33  CA  UNL     1     -10.346  15.678  67.399  1.00  0.00    -0.275 C  
BRANCH  33  34
HETATM   34  N   UNL     1     -10.999  15.150  68.645  1.00  0.00    -0.244 N  
HETATM   35  C   UNL     1     -11.500  13.880  68.962  1.00  0.00    -0.299 C  
HETATM   36  H   UNL     1     -11.094  15.838  69.393  1.00  0.00     0.000 HD 
HETATM   37  O   UNL     1     -11.947  13.784  70.105  1.00  0.00    -0.306 OA 
BRANCH  35  38
HETATM   38  C   UNL     1     -11.518  12.592  68.025  1.00  0.00    -0.318 C  
HETATM   39  C   UNL     1     -12.037  12.636  66.677  1.00  0.00    -0.197 C  
HETATM   40  C   UNL     1     -13.050  12.258  63.758  1.00  0.00    -0.038 C  
HETATM   41  N   UNL     1     -12.276  14.207  66.279  1.00  0.00    -0.455 NA 
HETATM   42  N   UNL     1     -13.008  11.957  62.426  1.00  0.00     0.513 NA 
HETATM   43  H   UNL     1     -12.274  10.476  65.242  1.00  0.00     0.000 HD 
HETATM   44  S   UNL     1     -13.266  14.568  64.117  1.00  0.00     2.030 SA 
HETATM   45  H1  UNL     1     -12.914  10.954  62.270  1.00  0.00     0.000 HD 
HETATM   46  H2  UNL     1     -13.064  12.650  61.680  1.00  0.00     0.000 HD 
HETATM   47  N   UNL     1     -12.424  11.483  65.195  1.00  0.00     0.472 NA 
BRANCH  38  48
HETATM   48  N   UNL     1     -10.953  11.465  68.288  1.00  0.00    -0.199 NA 
HETATM   49  H   UNL     1     -11.051  10.681  67.644  1.00  0.00     0.000 HD 
BRANCH  48  50
HETATM   50  O   UNL     1     -10.224  11.328  69.430  1.00  0.00    -0.106 OA 
HETATM   51  O   UNL     1     -12.450   9.581  71.561  1.00  0.00    -0.328 OA 
HETATM   52  C   UNL     1     -11.760  10.434  71.018  1.00  0.00    -0.337 C  
HETATM   53  C   UNL     1      -9.429   9.734  70.950  1.00  0.00     0.151 C  
HETATM   54  C   UNL     1     -11.356   8.974  69.193  1.00  0.00     0.334 C  
HETATM   55  C   UNL     1     -10.629  10.088  70.064  1.00  0.00    -0.293 C  
HETATM   56  O   UNL     1     -11.941  11.754  71.220  1.00  0.00     0.030 OA 
ENDBRANCH  48  50
ENDBRANCH  38  48
ENDBRANCH  35  38
ENDBRANCH  33  34
ENDBRANCH  21  22
ENDBRANCH   9  21
TORSDOF 11
ENDMDL
MODEL      150
REMARK 921   NORMALIZED FREE ENERGY PREDICTED BY IDOCK:   11.48 KCAL/MOL
REMARK 922        TOTAL FREE ENERGY PREDICTED BY IDOCK:   15.08 KCAL/MOL
REMARK 923 INTER-LIGAND FREE ENERGY PREDICTED BY IDOCK:    5.27 KCAL/MOL
REMARK 924 INTRA-LIGAND FREE ENERGY PREDICTED BY IDOCK:    9.81 KCAL/MOL
REMARK 927      BINDING AFFINITY PREDICTED BY RF-SCORE:    0.00 PKD
ROOT
HETATM    1  C   UNL     1     -13.613   8.379  69.581  1.00  0.00     4.862 C  
HETATM    2  N   UNL     1     -12.224   8.017  69.773  1.00  0.00     1.065 NA 
HETATM    3  C   UNL     1     -11.723   6.731  69.660  1.00  0.00    -0.104 A  
HETATM    4  C   UNL     1     -10.657   6.536  70.566  1.00  0.00    -0.234 A  
HETATM    5  N   UNL     1     -12.195   5.762  68.839  1.00  0.00     2.635 NA 
HETATM    6  C   UNL     1     -10.630   7.796  71.267  1.00  0.00    -0.218 A  
HETATM    7  H2  UNL     1     -12.993   6.001  68.251  1.00  0.00     0.000 HD 
HETATM    8  H1  UNL     1     -11.827   4.814  68.756  1.00  0.00     0.000 HD 
HETATM    9  N   UNL     1     -11.352   8.749  70.497  1.00  0.00    -0.253 NA 
ENDROOT
BRANCH   4  10
HETATM   10  N   UNL     1     -10.032   5.307  70.683  1.00  0.00    -0.203 N  
HETATM   11  H   UNL     1      -9.549   4.957  69.856  1.00  0.00     0.000 HD 
BRANCH  10  12
HETATM   12  C   UNL     1     -10.000   4.518  71.791  1.00  0.00    -0.194 C  
HETATM   13  O   UNL     1     -10.273   3.328  71.691  1.00  0.00    -0.092 OA 
BRANCH  12  14
HETATM   14  N   UNL     1      -9.821   5.180  72.967  1.00  0.00    -0.153 N  
HETATM   15  H   UNL     1     -10.567   5.209  73.662  1.00  0.00     0.000 HD 
BRANCH  14  16
HETATM   16  C   UNL     1      -8.554   5.845  73.222  1.00  0.00    -0.118 C  
BRANCH  16  17
HETATM   17  C   UNL     1      -7.405   4.855  73.454  1.00  0.00    -0.087 C  
HETATM   18  H2  UNL     1      -6.274   5.600  71.895  1.00  0.00     0.000 HD 
HETATM   19  N   UNL     1      -6.612   4.703  72.243  1.00  0.00    -0.036 NA 
HETATM   20  H1  UNL     1      -5.848   4.045  72.397  1.00  0.00     0.000 HD 
ENDBRANCH  16  17
ENDBRANCH  14  16
ENDBRANCH  12  14
ENDBRANCH  10  12
ENDBRANCH   4  10
BRANCH   9  21
HETATM   21  C   UNL     1     -11.431  10.239  70.536  1.00  0.00    -0.343 C  
BRANCH  21  22
HETATM   22  C   UNL     1     -10.724  11.174  69.205  1.00  0.00    -0.262 C  
HETATM   23  CA  UNL     1     -10.943  12.997  68.650  1.00  0.00    -0.265 C  
HETATM   24  C   UNL     1      -9.071  14.664  68.135  1.00  0.00    -0.187 C  
HETATM   25  C   UNL     1      -9.517  10.008  68.361  1.00  0.00    -0.146 C  
HETATM   26  C   UNL     1     -12.158  14.371  69.186  1.00  0.00    -0.281 C  
HETATM   27  N   UNL     1     -10.008  13.786  67.558  1.00  0.00    -0.230 N  
HETATM   28  O   UNL     1      -9.026  15.300  69.180  1.00  0.00    -0.206 OA 
HETATM   29  S   UNL     1      -8.253  10.914  66.736  1.00  0.00    -0.146 SA 
HETATM   30  C   UNL     1      -8.847  13.089  66.657  1.00  0.00    -0.073 C  
HETATM   31  O   UNL     1     -13.344  14.007  69.478  1.00  0.00     1.052 OA 
HETATM   32  OXT UNL     1     -11.695  15.519  68.970  1.00  0.00    -0.346 OA 
HETATM   33  CA  UNL     1      -7.858  14.048  67.430  1.00  0.00    -0.170 C  
BRANCH  33  34
HETATM   34  N   UNL     1      -6.849  13.499  68.398  1.00  0.00    -0.091 N  
HETATM   35  C   UNL     1      -6.107  12.309  68.389  1.00  0.00    -0.052 C  
HETATM   36  H   UNL     1      -6.673  14.098  69.206  1.00  0.00     0.000 HD 
HETATM   37  O   UNL     1      -5.334  12.189  69.340  1.00  0.00    -0.063 OA 
BRANCH  35  38
HETATM   38  C   UNL     1      -6.149  11.158  67.290  1.00  0.00    -0.068 C  
HETATM   39  C   UNL     1      -5.852   9.782  67.613  1.00  0.00    -0.043 C  
HETATM   40  C   UNL     1      -5.284   6.730  67.841  1.00  0.00    -0.011 C  
HETATM   41  N   UNL     1      -5.783   9.651  69.245  1.00  0.00    -0.035 NA 
HETATM   42  N   UNL     1      -5.513   5.384  67.772  1.00  0.00    -0.011 NA 
HETATM   43  H   UNL     1      -5.697   7.954  65.765  1.00  0.00     0.000 HD 
HETATM   44  S   UNL     1      -5.169   7.474  70.064  1.00  0.00    -0.023 SA 
HETATM   45  H1  UNL     1      -5.563   5.061  66.806  1.00  0.00     0.000 HD 
HETATM   46  H2  UNL     1      -5.621   4.779  68.585  1.00  0.00     0.000 HD 
HETATM   47  N   UNL     1      -5.624   8.073  66.775  1.00  0.00    -0.032 NA 
BRANCH  38  48
HETATM   48  N   UNL     1      -6.590  11.286  66.086  1.00  0.00    -0.355 NA 
HETATM   49  H   UNL     1      -7.592  11.354  65.912  1.00  0.00     0.000 HD 
BRANCH  48  50
HETATM   50  O   UNL     1      -5.709  11.331  65.048  1.00  0.00     0.048 OA 
HETATM   51  O   UNL     1      -6.661   8.524  63.108  1.00  0.00    -0.089 OA 
HETATM   52  C   UNL     1      -6.082   9.301  63.858  1.00  0.00    -0.088 C  
HETATM   53  C   UNL     1      -5.590  11.391  62.710  1.00  0.00     0.461 C  
HETATM   54  C   UNL     1      -7.967  10.740  63.851  1.00  0.00     0.201 C  
HETATM   55  C   UNL     1      -6.379  10.790  63.880  1.00  0.00     0.293 C  
HETATM   56  O   UNL     1      -5.132   8.903  64.726  1.00  0.00    -0.037 OA 
ENDBRANCH  48  50
ENDBRANCH  38  48
ENDBRANCH  35  38
ENDBRANCH  33  34
ENDBRANCH  21  22
ENDBRANCH   9  21
TORSDOF 11
ENDMDL
MODEL      151
REMARK 921   NORMALIZED FREE ENERGY PREDICTED BY IDOCK:   11.97 KCAL/MOL
REMARK 922        TOTAL FREE ENERGY PREDICTED BY IDOCK:   15.89 KCAL/MOL
REMARK 923 INTER-LIGAND FREE ENERGY PREDICTED BY IDOCK:    5.28 KCAL/MOL
REMARK 924 INTRA-LIGAND FREE ENERGY PREDICTED BY IDOCK:   10.61 KCAL/MOL
REMARK 927      BINDING AFFINITY PREDICTED BY RF-SCORE:    0.00 PKD
ROOT
HETATM    1  C   UNL     1     -11.684  10.259  69.553  1.00  0.00    -0.122 C  
HETATM    2  N   UNL     1     -10.849  10.732  68.469  1.00  0.00    -0.210 NA 
HETATM    3  C   UNL     1     -11.293  11.522  67.421  1.00  0.00    -0.298 A  
HETATM    4  C   UNL     1     -10.587  11.213  66.237  1.00  0.00    -0.253 A  
HETATM    5  N   UNL     1     -12.289  12.439  67.481  1.00  0.00    -0.168 NA 
HETATM    6  C   UNL     1      -9.748  10.123  66.670  1.00  0.00    -0.192 A  
HETATM    7  H2  UNL     1     -12.756  12.558  68.381  1.00  0.00     0.000 HD 
HETATM    8  H1  UNL     1     -12.617  13.020  66.710  1.00  0.00     0.000 HD 
HETATM    9  N   UNL     1      -9.701  10.134  68.091  1.00  0.00    -0.139 NA 
ENDROOT
BRANCH   4  10
HETATM   10  N   UNL     1     -10.897  11.829  65.038  1.00  0.00    -0.289 N  
HETATM   11  H   UNL     1     -11.676  11.439  64.508  1.00  0.00     0.000 HD 
BRANCH  10  12
HETATM   12  C   UNL     1     -10.264  12.904  64.494  1.00  0.00    -0.310 C  
HETATM   13  O   UNL     1      -9.791  13.760  65.232  1.00  0.00    -0.238 OA 
BRANCH  12  14
HETATM   14  N   UNL     1     -10.362  13.011  63.141  1.00  0.00     0.388 N  
HETATM   15  H   UNL     1     -10.064  13.863  62.667  1.00  0.00     0.000 HD 
BRANCH  14  16
HETATM   16  C   UNL     1     -10.898  11.896  62.377  1.00  0.00     1.945 C  
BRANCH  16  17
HETATM   17  C   UNL     1     -12.190  11.334  62.983  1.00  0.00     0.780 C  
HETATM   18  H2  UNL     1     -13.094  13.187  63.102  1.00  0.00     0.000 HD 
HETATM   19  N   UNL     1     -12.914  12.377  63.695  1.00  0.00    -0.768 NA 
HETATM   20  H1  UNL     1     -13.774  12.004  64.098  1.00  0.00     0.000 HD 
ENDBRANCH  16  17
ENDBRANCH  14  16
ENDBRANCH  12  14
ENDBRANCH  10  12
ENDBRANCH   4  10
BRANCH   9  21
HETATM   21  C   UNL     1      -8.803   9.474  69.085  1.00  0.00    -0.147 C  
BRANCH  21  22
HETATM   22  C   UNL     1      -7.610   8.292  68.516  1.00  0.00    -0.100 C  
HETATM   23  CA  UNL     1      -6.282   7.256  69.433  1.00  0.00    -0.031 C  
HETATM   24  C   UNL     1      -5.896   4.736  69.208  1.00  0.00    -0.017 C  
HETATM   25  C   UNL     1      -7.926   8.111  66.673  1.00  0.00    -0.102 C  
HETATM   26  C   UNL     1      -5.624   7.300  71.227  1.00  0.00    -0.035 C  
HETATM   27  N   UNL     1      -5.436   6.002  68.798  1.00  0.00    -0.007 N  
HETATM   28  O   UNL     1      -6.478   4.318  70.200  1.00  0.00    -0.030 OA 
HETATM   29  S   UNL     1      -6.734   6.515  65.627  1.00  0.00    -0.049 SA 
HETATM   30  C   UNL     1      -5.483   5.549  67.237  1.00  0.00    -0.012 C  
HETATM   31  O   UNL     1      -5.539   8.445  71.779  1.00  0.00    -0.035 OA 
HETATM   32  OXT UNL     1      -5.137   6.195  71.576  1.00  0.00    -0.016 OA 
HETATM   33  CA  UNL     1      -6.086   4.196  67.786  1.00  0.00    -0.032 C  
BRANCH  33  34
HETATM   34  N   UNL     1      -7.512   3.815  67.503  1.00  0.00    -0.067 N  
HETATM   35  C   UNL     1      -8.677   3.949  68.272  1.00  0.00    -0.101 C  
HETATM   36  H   UNL     1      -7.658   3.382  66.591  1.00  0.00     0.000 HD 
HETATM   37  O   UNL     1      -9.699   3.553  67.712  1.00  0.00    -0.165 OA 
BRANCH  35  38
HETATM   38  C   UNL     1      -8.798   4.569  69.734  1.00  0.00    -0.086 C  
HETATM   39  C   UNL     1      -9.963   5.313  70.153  1.00  0.00    -0.243 C  
HETATM   40  C   UNL     1     -12.239   6.974  71.476  1.00  0.00    -0.368 C  
HETATM   41  N   UNL     1     -11.124   5.118  69.014  1.00  0.00     0.643 NA 
HETATM   42  N   UNL     1     -13.216   7.306  72.372  1.00  0.00    -0.393 NA 
HETATM   43  H   UNL     1     -10.049   6.516  72.461  1.00  0.00     0.000 HD 
HETATM   44  S   UNL     1     -13.144   6.366  69.397  1.00  0.00     7.343 SA 
HETATM   45  H1  UNL     1     -12.824   7.570  73.276  1.00  0.00     0.000 HD 
HETATM   46  H2  UNL     1     -14.214   7.292  72.164  1.00  0.00     0.000 HD 
HETATM   47  N   UNL     1     -10.616   6.344  71.632  1.00  0.00    -0.217 NA 
BRANCH  38  48
HETATM   48  N   UNL     1      -7.989   4.349  70.711  1.00  0.00    -0.063 NA 
HETATM   49  H   UNL     1      -7.000   4.584  70.620  1.00  0.00     0.000 HD 
BRANCH  48  50
HETATM   50  O   UNL     1      -8.460   3.803  71.866  1.00  0.00    -0.087 OA 
HETATM   51  O   UNL     1      -6.104   4.916  74.265  1.00  0.00    -0.046 OA 
HETATM   52  C   UNL     1      -6.762   4.249  73.477  1.00  0.00    -0.057 C  
HETATM   53  C   UNL     1      -9.128   4.345  74.044  1.00  0.00    -0.110 C  
HETATM   54  C   UNL     1      -7.770   6.218  72.622  1.00  0.00    -0.101 C  
HETATM   55  C   UNL     1      -8.113   4.701  72.951  1.00  0.00    -0.100 C  
HETATM   56  O   UNL     1      -6.347   3.055  73.011  1.00  0.00    -0.012 OA 
ENDBRANCH  48  50
ENDBRANCH  38  48
ENDBRANCH  35  38
ENDBRANCH  33  34
ENDBRANCH  21  22
ENDBRANCH   9  21
TORSDOF 11
ENDMDL
MODEL      152
REMARK 921   NORMALIZED FREE ENERGY PREDICTED BY IDOCK:   12.33 KCAL/MOL
REMARK 922        TOTAL FREE ENERGY PREDICTED BY IDOCK:   16.47 KCAL/MOL
REMARK 923 INTER-LIGAND FREE ENERGY PREDICTED BY IDOCK:    8.53 KCAL/MOL
REMARK 924 INTRA-LIGAND FREE ENERGY PREDICTED BY IDOCK:    7.94 KCAL/MOL
REMARK 927      BINDING AFFINITY PREDICTED BY RF-SCORE:    0.00 PKD
ROOT
HETATM    1  C   UNL     1     -11.915  15.074  73.488  1.00  0.00    -0.329 C  
HETATM    2  N   UNL     1     -11.383  15.576  72.237  1.00  0.00    -0.387 NA 
HETATM    3  C   UNL     1     -11.155  16.914  71.960  1.00  0.00     1.220 A  
HETATM    4  C   UNL     1     -11.378  17.178  70.591  1.00  0.00     1.151 A  
HETATM    5  N   UNL     1     -10.809  17.865  72.860  1.00  0.00     2.358 NA 
HETATM    6  C   UNL     1     -11.829  15.894  70.111  1.00  0.00    -0.314 A  
HETATM    7  H2  UNL     1     -10.707  17.570  73.831  1.00  0.00     0.000 HD 
HETATM    8  H1  UNL     1     -10.641  18.850  72.657  1.00  0.00     0.000 HD 
HETATM    9  N   UNL     1     -11.462  14.909  71.067  1.00  0.00    -0.288 NA 
ENDROOT
BRANCH   4  10
HETATM   10  N   UNL     1     -11.273  18.461  70.083  1.00  0.00     2.296 N  
HETATM   11  H   UNL     1     -11.975  19.135  70.388  1.00  0.00     0.000 HD 
BRANCH  10  12
HETATM   12  C   UNL     1     -10.326  18.912  69.217  1.00  0.00     0.250 C  
HETATM   13  O   UNL     1      -9.833  18.137  68.406  1.00  0.00    -0.329 OA 
BRANCH  12  14
HETATM   14  N   UNL     1      -9.886  20.180  69.449  1.00  0.00    -0.059 N  
HETATM   15  H   UNL     1      -9.963  20.894  68.724  1.00  0.00     0.000 HD 
BRANCH  14  16
HETATM   16  C   UNL     1      -9.306  20.505  70.742  1.00  0.00     1.919 C  
BRANCH  16  17
HETATM   17  C   UNL     1      -7.983  19.771  70.995  1.00  0.00     2.065 C  
HETATM   18  H2  UNL     1      -6.835  21.455  70.661  1.00  0.00     0.000 HD 
HETATM   19  N   UNL     1      -6.879  20.480  70.364  1.00  0.00    -0.020 NA 
HETATM   20  H1  UNL     1      -5.999  19.993  70.532  1.00  0.00     0.000 HD 
ENDBRANCH  16  17
ENDBRANCH  14  16
ENDBRANCH  12  14
ENDBRANCH  10  12
ENDBRANCH   4  10
BRANCH   9  21
HETATM   21  C   UNL     1     -11.385  13.418  71.015  1.00  0.00     1.494 C  
BRANCH  21  22
HETATM   22  C   UNL     1     -10.347  12.652  69.798  1.00  0.00     1.165 C  
HETATM   23  CA  UNL     1      -8.994  13.350  68.633  1.00  0.00     0.018 C  
HETATM   24  C   UNL     1      -6.637  12.408  68.304  1.00  0.00    -0.063 C  
HETATM   25  C   UNL     1     -10.751  10.819  69.881  1.00  0.00    -0.202 C  
HETATM   26  C   UNL     1      -8.450  15.132  68.209  1.00  0.00    -0.152 C  
HETATM   27  N   UNL     1      -7.932  12.460  67.755  1.00  0.00    -0.143 N  
HETATM   28  O   UNL     1      -5.982  13.153  69.022  1.00  0.00    -0.075 OA 
HETATM   29  S   UNL     1      -9.463   9.475  68.618  1.00  0.00    -0.144 SA 
HETATM   30  C   UNL     1      -7.973  10.840  67.616  1.00  0.00    -0.110 C  
HETATM   31  O   UNL     1      -9.368  16.015  68.158  1.00  0.00    -0.197 OA 
HETATM   32  OXT UNL     1      -7.260  15.178  67.808  1.00  0.00    -0.133 OA 
HETATM   33  CA  UNL     1      -6.563  10.877  68.329  1.00  0.00    -0.058 C  
BRANCH  33  34
HETATM   34  N   UNL     1      -6.386  10.333  69.718  1.00  0.00    -0.060 N  
HETATM   35  C   UNL     1      -6.741   9.100  70.283  1.00  0.00    -0.055 C  
HETATM   36  H   UNL     1      -5.926  10.975  70.365  1.00  0.00     0.000 HD 
HETATM   37  O   UNL     1      -6.412   8.972  71.462  1.00  0.00    -0.080 OA 
BRANCH  35  38
HETATM   38  C   UNL     1      -7.476   7.887  69.560  1.00  0.00    -0.093 C  
HETATM   39  C   UNL     1      -7.548   7.786  68.121  1.00  0.00    -0.116 C  
HETATM   40  C   UNL     1      -7.960   7.168  65.098  1.00  0.00    -0.128 C  
HETATM   41  N   UNL     1      -6.541   8.911  67.485  1.00  0.00    -0.061 NA 
HETATM   42  N   UNL     1      -7.889   6.481  63.918  1.00  0.00    -0.114 NA 
HETATM   43  H   UNL     1      -8.950   5.926  66.957  1.00  0.00     0.000 HD 
HETATM   44  S   UNL     1      -6.563   9.055  65.084  1.00  0.00    -0.072 SA 
HETATM   45  H1  UNL     1      -8.496   5.661  63.924  1.00  0.00     0.000 HD 
HETATM   46  H2  UNL     1      -7.303   6.754  63.130  1.00  0.00     0.000 HD 
HETATM   47  N   UNL     1      -8.341   6.715  66.743  1.00  0.00    -0.113 NA 
BRANCH  38  48
HETATM   48  N   UNL     1      -7.923   6.827  70.140  1.00  0.00    -0.110 NA 
HETATM   49  H   UNL     1      -8.069   5.972  69.603  1.00  0.00     0.000 HD 
BRANCH  48  50
HETATM   50  O   UNL     1      -8.199   6.856  71.473  1.00  0.00    -0.109 OA 
HETATM   51  O   UNL     1     -11.739   6.969  71.526  1.00  0.00    -0.268 OA 
HETATM   52  C   UNL     1     -10.547   7.243  71.592  1.00  0.00    -0.206 C  
HETATM   53  C   UNL     1      -9.411   5.753  73.147  1.00  0.00    -0.147 C  
HETATM   54  C   UNL     1      -9.998   5.181  70.557  1.00  0.00    -0.304 C  
HETATM   55  C   UNL     1      -9.466   6.179  71.675  1.00  0.00    -0.148 C  
HETATM   56  O   UNL     1     -10.090   8.511  71.598  1.00  0.00    -0.218 OA 
ENDBRANCH  48  50
ENDBRANCH  38  48
ENDBRANCH  35  38
ENDBRANCH  33  34
ENDBRANCH  21  22
ENDBRANCH   9  21
TORSDOF 11
ENDMDL
MODEL      153
REMARK 921   NORMALIZED FREE ENERGY PREDICTED BY IDOCK:   12.87 KCAL/MOL
REMARK 922        TOTAL FREE ENERGY PREDICTED BY IDOCK:   17.35 KCAL/MOL
REMARK 923 INTER-LIGAND FREE ENERGY PREDICTED BY IDOCK:    2.66 KCAL/MOL
REMARK 924 INTRA-LIGAND FREE ENERGY PREDICTED BY IDOCK:   14.69 KCAL/MOL
REMARK 927      BINDING AFFINITY PREDICTED BY RF-SCORE:    0.00 PKD
ROOT
HETATM    1  C   UNL     1      -6.435  13.693  70.551  1.00  0.00     0.196 C  
HETATM    2  N   UNL     1      -7.207  14.046  69.377  1.00  0.00    -0.031 NA 
HETATM    3  C   UNL     1      -8.172  15.040  69.340  1.00  0.00    -0.147 A  
HETATM    4  C   UNL     1      -9.206  14.689  68.443  1.00  0.00    -0.197 A  
HETATM    5  N   UNL     1      -8.173  16.177  70.077  1.00  0.00     0.707 NA 
HETATM    6  C   UNL     1      -8.796  13.373  68.020  1.00  0.00    -0.183 A  
HETATM    7  H2  UNL     1      -7.393  16.313  70.719  1.00  0.00     0.000 HD 
HETATM    8  H1  UNL     1      -8.883  16.908  70.050  1.00  0.00     0.000 HD 
HETATM    9  N   UNL     1      -7.421  13.209  68.341  1.00  0.00    -0.118 NA 
ENDROOT
BRANCH   4  10
HETATM   10  N   UNL     1     -10.316  15.498  68.280  1.00  0.00    -0.232 N  
HETATM   11  H   UNL     1     -11.045  15.428  68.990  1.00  0.00     0.000 HD 
BRANCH  10  12
HETATM   12  C   UNL     1     -10.533  16.379  67.266  1.00  0.00    -0.303 C  
HETATM   13  O   UNL     1     -11.555  16.288  66.597  1.00  0.00     0.441 OA 
BRANCH  12  14
HETATM   14  N   UNL     1      -9.485  17.200  66.978  1.00  0.00    -0.245 N  
HETATM   15  H   UNL     1      -8.991  17.114  66.089  1.00  0.00     0.000 HD 
BRANCH  14  16
HETATM   16  C   UNL     1      -9.077  18.199  67.952  1.00  0.00    -0.265 C  
BRANCH  16  17
HETATM   17  C   UNL     1      -9.267  19.632  67.440  1.00  0.00    -0.325 C  
HETATM   18  H2  UNL     1     -10.243  20.253  69.150  1.00  0.00     0.000 HD 
HETATM   19  N   UNL     1     -10.367  20.281  68.138  1.00  0.00    -0.306 NA 
HETATM   20  H1  UNL     1     -10.494  21.234  67.798  1.00  0.00     0.000 HD 
ENDBRANCH  16  17
ENDBRANCH  14  16
ENDBRANCH  12  14
ENDBRANCH  10  12
ENDBRANCH   4  10
BRANCH   9  21
HETATM   21  C   UNL     1      -6.386  12.224  67.910  1.00  0.00    -0.088 C  
BRANCH  21  22
HETATM   22  C   UNL     1      -6.753  10.492  68.003  1.00  0.00    -0.065 C  
HETATM   23  CA  UNL     1      -6.767   9.253  69.468  1.00  0.00    -0.047 C  
HETATM   24  C   UNL     1      -8.649   7.626  70.065  1.00  0.00    -0.138 C  
HETATM   25  C   UNL     1      -7.274   9.997  66.268  1.00  0.00    -0.106 C  
HETATM   26  C   UNL     1      -6.174   9.391  71.279  1.00  0.00    -0.066 C  
HETATM   27  N   UNL     1      -7.394   7.738  69.437  1.00  0.00    -0.084 N  
HETATM   28  O   UNL     1      -9.213   8.235  70.964  1.00  0.00    -0.145 OA 
HETATM   29  S   UNL     1      -8.033   7.892  66.035  1.00  0.00    -0.109 SA 
HETATM   30  C   UNL     1      -7.959   6.996  68.104  1.00  0.00    -0.119 C  
HETATM   31  O   UNL     1      -5.125  10.085  71.489  1.00  0.00    -0.066 OA 
HETATM   32  OXT UNL     1      -6.774   8.585  72.034  1.00  0.00    -0.075 OA 
HETATM   33  CA  UNL     1      -9.351   7.005  68.852  1.00  0.00    -0.139 C  
BRANCH  33  34
HETATM   34  N   UNL     1     -10.490   7.848  68.354  1.00  0.00    -0.302 N  
HETATM   35  C   UNL     1     -10.729   8.439  67.105  1.00  0.00    -0.152 C  
HETATM   36  H   UNL     1     -11.218   8.023  69.047  1.00  0.00     0.000 HD 
HETATM   37  O   UNL     1     -11.797   9.047  67.030  1.00  0.00     2.393 OA 
BRANCH  35  38
HETATM   38  C   UNL     1      -9.797   8.372  65.816  1.00  0.00     0.281 C  
HETATM   39  C   UNL     1      -9.221   7.131  65.352  1.00  0.00     0.460 C  
HETATM   40  C   UNL     1      -7.773   4.725  64.011  1.00  0.00    -0.079 C  
HETATM   41  N   UNL     1      -9.929   5.907  66.180  1.00  0.00    -0.052 NA 
HETATM   42  N   UNL     1      -7.429   3.828  63.038  1.00  0.00    -0.053 NA 
HETATM   43  H   UNL     1      -7.515   7.074  63.386  1.00  0.00     0.000 HD 
HETATM   44  S   UNL     1      -9.058   3.717  65.698  1.00  0.00    -0.155 SA 
HETATM   45  H1  UNL     1      -6.871   4.266  62.305  1.00  0.00     0.000 HD 
HETATM   46  H2  UNL     1      -7.696   2.844  63.044  1.00  0.00     0.000 HD 
HETATM   47  N   UNL     1      -8.002   6.458  64.035  1.00  0.00    -0.111 NA 
BRANCH  38  48
HETATM   48  N   UNL     1      -9.594   9.337  64.987  1.00  0.00    -0.444 NA 
HETATM   49  H   UNL     1      -9.423   9.138  64.001  1.00  0.00     0.000 HD 
BRANCH  48  50
HETATM   50  O   UNL     1      -9.608  10.623  65.434  1.00  0.00    -0.199 OA 
HETATM   51  O   UNL     1     -10.210  12.464  62.468  1.00  0.00     0.789 OA 
HETATM   52  C   UNL     1      -9.701  11.946  63.454  1.00  0.00    -0.270 C  
HETATM   53  C   UNL     1     -10.915  12.566  65.471  1.00  0.00    -0.322 C  
HETATM   54  C   UNL     1     -11.621  10.585  63.753  1.00  0.00     2.570 C  
HETATM   55  C   UNL     1     -10.525  11.371  64.594  1.00  0.00    -0.315 C  
HETATM   56  O   UNL     1      -8.367  11.841  63.614  1.00  0.00     0.872 OA 
ENDBRANCH  48  50
ENDBRANCH  38  48
ENDBRANCH  35  38
ENDBRANCH  33  34
ENDBRANCH  21  22
ENDBRANCH   9  21
TORSDOF 11
ENDMDL
MODEL      154
REMARK 921   NORMALIZED FREE ENERGY PREDICTED BY IDOCK:   13.52 KCAL/MOL
REMARK 922        TOTAL FREE ENERGY PREDICTED BY IDOCK:   18.43 KCAL/MOL
REMARK 923 INTER-LIGAND FREE ENERGY PREDICTED BY IDOCK:   10.09 KCAL/MOL
REMARK 924 INTRA-LIGAND FREE ENERGY PREDICTED BY IDOCK:    8.34 KCAL/MOL
REMARK 927      BINDING AFFINITY PREDICTED BY RF-SCORE:    0.00 PKD
ROOT
HETATM    1  C   UNL     1      -9.521  15.489  65.791  1.00  0.00    -0.299 C  
HETATM    2  N   UNL     1      -9.151  15.935  67.118  1.00  0.00    -0.204 NA 
HETATM    3  C   UNL     1      -9.419  17.195  67.628  1.00  0.00    -0.241 A  
HETATM    4  C   UNL     1      -8.388  17.601  68.505  1.00  0.00    -0.291 A  
HETATM    5  N   UNL     1     -10.485  17.970  67.315  1.00  0.00    -0.383 NA 
HETATM    6  C   UNL     1      -7.462  16.499  68.403  1.00  0.00    -0.186 A  
HETATM    7  H2  UNL     1     -11.152  17.592  66.643  1.00  0.00     0.000 HD 
HETATM    8  H1  UNL     1     -10.683  18.898  67.690  1.00  0.00     0.000 HD 
HETATM    9  N   UNL     1      -8.151  15.390  67.841  1.00  0.00    -0.135 NA 
ENDROOT
BRANCH   4  10
HETATM   10  N   UNL     1      -8.401  18.853  69.093  1.00  0.00    -0.113 N  
HETATM   11  H   UNL     1      -7.611  19.465  68.889  1.00  0.00     0.000 HD 
BRANCH  10  12
HETATM   12  C   UNL     1      -9.363  19.350  69.917  1.00  0.00     0.640 C  
HETATM   13  O   UNL     1     -10.439  18.771  70.003  1.00  0.00     0.698 OA 
BRANCH  12  14
HETATM   14  N   UNL     1      -9.089  20.568  70.459  1.00  0.00     1.392 N  
HETATM   15  H   UNL     1      -9.770  21.030  71.061  1.00  0.00     0.000 HD 
BRANCH  14  16
HETATM   16  C   UNL     1      -7.814  21.204  70.169  1.00  0.00     4.352 C  
BRANCH  16  17
HETATM   17  C   UNL     1      -6.618  20.295  70.479  1.00  0.00     0.023 C  
HETATM   18  H2  UNL     1      -5.407  21.185  69.064  1.00  0.00     0.000 HD 
HETATM   19  N   UNL     1      -5.704  20.251  69.347  1.00  0.00    -0.284 NA 
HETATM   20  H1  UNL     1      -4.909  19.647  69.554  1.00  0.00     0.000 HD 
ENDBRANCH  16  17
ENDBRANCH  14  16
ENDBRANCH  12  14
ENDBRANCH  10  12
ENDBRANCH   4  10
BRANCH   9  21
HETATM   21  C   UNL     1      -7.837  13.932  67.760  1.00  0.00    -0.168 C  
BRANCH  21  22
HETATM   22  C   UNL     1      -8.590  12.959  66.482  1.00  0.00     0.107 C  
HETATM   23  CA  UNL     1      -7.901  11.591  65.328  1.00  0.00     0.896 C  
HETATM   24  C   UNL     1      -8.946   9.294  64.902  1.00  0.00    -0.180 C  
HETATM   25  C   UNL     1     -10.401  13.458  66.476  1.00  0.00    -0.284 C  
HETATM   26  C   UNL     1      -6.129  10.960  64.989  1.00  0.00     0.177 C  
HETATM   27  N   UNL     1      -8.796  10.594  64.382  1.00  0.00    -0.189 N  
HETATM   28  O   UNL     1      -8.277   8.588  65.644  1.00  0.00    -0.114 OA 
HETATM   29  S   UNL     1     -11.740  12.267  65.116  1.00  0.00    -0.337 SA 
HETATM   30  C   UNL     1     -10.402  10.724  64.158  1.00  0.00    -0.311 C  
HETATM   31  O   UNL     1      -5.198  11.830  65.005  1.00  0.00     0.592 OA 
HETATM   32  OXT UNL     1      -6.124   9.777  64.567  1.00  0.00    -0.083 OA 
HETATM   33  CA  UNL     1     -10.478   9.302  64.842  1.00  0.00     2.331 C  
BRANCH  33  34
HETATM   34  N   UNL     1     -11.105   9.130  66.197  1.00  0.00     0.993 N  
HETATM   35  C   UNL     1     -10.540   8.873  67.454  1.00  0.00    -0.235 C  
HETATM   36  H   UNL     1     -12.122   9.213  66.203  1.00  0.00     0.000 HD 
HETATM   37  O   UNL     1     -11.356   8.822  68.374  1.00  0.00     0.370 OA 
BRANCH  35  38
HETATM   38  C   UNL     1      -8.996   8.677  67.792  1.00  0.00    -0.136 C  
HETATM   39  C   UNL     1      -8.209   9.725  68.400  1.00  0.00    -0.105 C  
HETATM   40  C   UNL     1      -6.144  11.672  69.678  1.00  0.00    -0.117 C  
HETATM   41  N   UNL     1      -9.234  10.905  68.894  1.00  0.00    -0.181 NA 
HETATM   42  N   UNL     1      -5.221  12.142  70.570  1.00  0.00    -0.111 NA 
HETATM   43  H   UNL     1      -5.638   9.475  68.733  1.00  0.00     0.000 HD 
HETATM   44  S   UNL     1      -8.171  12.847  69.832  1.00  0.00     2.906 SA 
HETATM   45  H1  UNL     1      -4.340  11.632  70.504  1.00  0.00     0.000 HD 
HETATM   46  H2  UNL     1      -5.392  12.908  71.221  1.00  0.00     0.000 HD 
HETATM   47  N   UNL     1      -6.404  10.126  68.905  1.00  0.00    -0.044 NA 
BRANCH  38  48
HETATM   48  N   UNL     1      -8.347   7.568  67.719  1.00  0.00    -0.118 NA 
HETATM   49  H   UNL     1      -8.386   7.006  66.868  1.00  0.00     0.000 HD 
BRANCH  48  50
HETATM   50  O   UNL     1      -7.607   7.149  68.783  1.00  0.00    -0.102 OA 
HETATM   51  O   UNL     1      -8.145   3.648  68.766  1.00  0.00    -0.065 OA 
HETATM   52  C   UNL     1      -8.160   4.844  69.027  1.00  0.00    -0.079 C  
HETATM   53  C   UNL     1      -5.899   5.668  69.394  1.00  0.00    -0.016 C  
HETATM   54  C   UNL     1      -7.079   5.326  66.972  1.00  0.00    -0.070 C  
HETATM   55  C   UNL     1      -7.125   5.813  68.484  1.00  0.00    -0.077 C  
HETATM   56  O   UNL     1      -9.095   5.404  69.820  1.00  0.00    -0.123 OA 
ENDBRANCH  48  50
ENDBRANCH  38  48
ENDBRANCH  35  38
ENDBRANCH  33  34
ENDBRANCH  21  22
ENDBRANCH   9  21
TORSDOF 11
ENDMDL
MODEL      155
REMARK 921   NORMALIZED FREE ENERGY PREDICTED BY IDOCK:   13.89 KCAL/MOL
REMARK 922        TOTAL FREE ENERGY PREDICTED BY IDOCK:   19.04 KCAL/MOL
REMARK 923 INTER-LIGAND FREE ENERGY PREDICTED BY IDOCK:   18.52 KCAL/MOL
REMARK 924 INTRA-LIGAND FREE ENERGY PREDICTED BY IDOCK:    0.53 KCAL/MOL
REMARK 927      BINDING AFFINITY PREDICTED BY RF-SCORE:    0.00 PKD
ROOT
HETATM    1  C   UNL     1      -7.277  10.474  62.787  1.00  0.00    -0.078 C  
HETATM    2  N   UNL     1      -7.460  10.631  64.216  1.00  0.00     0.114 NA 
HETATM    3  C   UNL     1      -6.624  10.092  65.180  1.00  0.00    -0.115 A  
HETATM    4  C   UNL     1      -7.363   9.743  66.333  1.00  0.00    -0.095 A  
HETATM    5  N   UNL     1      -5.293   9.877  65.050  1.00  0.00    -0.054 NA 
HETATM    6  C   UNL     1      -8.711  10.057  65.926  1.00  0.00    -0.140 A  
HETATM    7  H2  UNL     1      -4.867  10.135  64.160  1.00  0.00     0.000 HD 
HETATM    8  H1  UNL     1      -4.678   9.480  65.759  1.00  0.00     0.000 HD 
HETATM    9  N   UNL     1      -8.646  10.913  64.793  1.00  0.00    -0.072 NA 
ENDROOT
BRANCH   4  10
HETATM   10  N   UNL     1      -6.756   9.128  67.413  1.00  0.00    -0.068 N  
HETATM   11  H   UNL     1      -5.906   9.563  67.771  1.00  0.00     0.000 HD 
BRANCH  10  12
HETATM   12  C   UNL     1      -7.180   7.999  68.044  1.00  0.00    -0.094 C  
HETATM   13  O   UNL     1      -7.455   7.007  67.381  1.00  0.00    -0.092 OA 
BRANCH  12  14
HETATM   14  N   UNL     1      -7.420   8.137  69.377  1.00  0.00    -0.089 N  
HETATM   15  H   UNL     1      -6.979   8.889  69.906  1.00  0.00     0.000 HD 
BRANCH  14  16
HETATM   16  C   UNL     1      -8.314   7.200  70.038  1.00  0.00    -0.138 C  
BRANCH  16  17
HETATM   17  C   UNL     1      -7.948   6.976  71.510  1.00  0.00    -0.103 C  
HETATM   18  H2  UNL     1      -9.909   7.079  72.149  1.00  0.00     0.000 HD 
HETATM   19  N   UNL     1      -9.001   7.482  72.379  1.00  0.00    -0.130 NA 
HETATM   20  H1  UNL     1      -8.758   7.332  73.359  1.00  0.00     0.000 HD 
ENDBRANCH  16  17
ENDBRANCH  14  16
ENDBRANCH  12  14
ENDBRANCH  10  12
ENDBRANCH   4  10
BRANCH   9  21
HETATM   21  C   UNL     1      -9.652  11.787  64.118  1.00  0.00    -0.072 C  
BRANCH  21  22
HETATM   22  C   UNL     1      -9.945  13.415  64.758  1.00  0.00    -0.158 C  
HETATM   23  CA  UNL     1     -11.472  14.216  65.596  1.00  0.00    -0.325 C  
HETATM   24  C   UNL     1     -11.483  15.546  67.782  1.00  0.00    -0.243 C  
HETATM   25  C   UNL     1      -8.319  14.333  64.550  1.00  0.00     8.457 C  
HETATM   26  C   UNL     1     -13.275  13.624  65.828  1.00  0.00     0.291 C  
HETATM   27  N   UNL     1     -11.491  15.657  66.379  1.00  0.00     0.063 N  
HETATM   28  O   UNL     1     -11.868  14.696  68.575  1.00  0.00    -0.325 OA 
HETATM   29  S   UNL     1      -8.233  16.390  65.456  1.00  0.00     2.070 SA 
HETATM   30  C   UNL     1     -10.247  16.704  66.423  1.00  0.00    -0.315 C  
HETATM   31  O   UNL     1     -13.782  12.943  64.878  1.00  0.00     0.087 OA 
HETATM   32  OXT UNL     1     -13.827  14.174  66.814  1.00  0.00     3.400 OA 
HETATM   33  CA  UNL     1     -10.253  16.439  67.981  1.00  0.00    -0.264 C  
BRANCH  33  34
HETATM   34  N   UNL     1      -9.119  15.713  68.645  1.00  0.00    -0.195 N  
HETATM   35  C   UNL     1      -9.108  14.689  69.604  1.00  0.00     0.337 C  
HETATM   36  H   UNL     1      -8.192  16.018  68.347  1.00  0.00     0.000 HD 
HETATM   37  O   UNL     1      -7.983  14.297  69.911  1.00  0.00     0.407 OA 
BRANCH  35  38
HETATM   38  C   UNL     1     -10.370  13.996  70.284  1.00  0.00     1.276 C  
HETATM   39  C   UNL     1     -11.172  14.675  71.275  1.00  0.00     0.154 C  
HETATM   40  C   UNL     1     -13.156  15.728  73.430  1.00  0.00    -0.579 C  
HETATM   41  N   UNL     1     -10.723  16.251  71.296  1.00  0.00     0.547 NA 
HETATM   42  N   UNL     1     -14.347  16.091  73.995  1.00  0.00     1.379 NA 
HETATM   43  H   UNL     1     -13.087  13.449  72.546  1.00  0.00     0.000 HD 
HETATM   44  S   UNL     1     -11.817  17.598  72.961  1.00  0.00     2.281 SA 
HETATM   45  H1  UNL     1     -14.929  15.279  74.199  1.00  0.00     0.000 HD 
HETATM   46  H2  UNL     1     -14.620  17.054  74.188  1.00  0.00     0.000 HD 
HETATM   47  N   UNL     1     -12.637  14.361  72.473  1.00  0.00    -0.300 NA 
BRANCH  38  48
HETATM   48  N   UNL     1     -10.891  12.873  69.930  1.00  0.00    -0.120 NA 
HETATM   49  H   UNL     1     -10.466  12.324  69.182  1.00  0.00     0.000 HD 
BRANCH  48  50
HETATM   50  O   UNL     1     -12.012  12.422  70.558  1.00  0.00    -0.330 OA 
HETATM   51  O   UNL     1     -12.239   9.074  69.424  1.00  0.00     1.149 OA 
HETATM   52  C   UNL     1     -12.408  10.273  69.609  1.00  0.00     0.112 C  
HETATM   53  C   UNL     1     -12.800  10.727  71.969  1.00  0.00    -0.357 C  
HETATM   54  C   UNL     1     -10.367  10.395  70.810  1.00  0.00     0.588 C  
HETATM   55  C   UNL     1     -11.835  11.004  70.810  1.00  0.00    -0.278 C  
HETATM   56  O   UNL     1     -13.119  11.047  68.765  1.00  0.00     0.935 OA 
ENDBRANCH  48  50
ENDBRANCH  38  48
ENDBRANCH  35  38
ENDBRANCH  33  34
ENDBRANCH  21  22
ENDBRANCH   9  21
TORSDOF 11
ENDMDL
MODEL      156
REMARK 921   NORMALIZED FREE ENERGY PREDICTED BY IDOCK:   15.02 KCAL/MOL
REMARK 922        TOTAL FREE ENERGY PREDICTED BY IDOCK:   20.90 KCAL/MOL
REMARK 923 INTER-LIGAND FREE ENERGY PREDICTED BY IDOCK:    0.21 KCAL/MOL
REMARK 924 INTRA-LIGAND FREE ENERGY PREDICTED BY IDOCK:   20.69 KCAL/MOL
REMARK 927      BINDING AFFINITY PREDICTED BY RF-SCORE:    0.00 PKD
ROOT
HETATM    1  C   UNL     1      -6.479  13.667  70.540  1.00  0.00     0.196 C  
HETATM    2  N   UNL     1      -7.360  13.979  69.434  1.00  0.00     0.006 NA 
HETATM    3  C   UNL     1      -8.310  14.987  69.445  1.00  0.00    -0.141 A  
HETATM    4  C   UNL     1      -9.433  14.614  68.674  1.00  0.00    -0.211 A  
HETATM    5  N   UNL     1      -8.222  16.156  70.124  1.00  0.00     0.999 NA 
HETATM    6  C   UNL     1      -9.086  13.272  68.275  1.00  0.00    -0.184 A  
HETATM    7  H2  UNL     1      -7.380  16.308  70.679  1.00  0.00     0.000 HD 
HETATM    8  H1  UNL     1      -8.921  16.898  70.133  1.00  0.00     0.000 HD 
HETATM    9  N   UNL     1      -7.688  13.100  68.465  1.00  0.00    -0.132 NA 
ENDROOT
BRANCH   4  10
HETATM   10  N   UNL     1     -10.544  15.435  68.584  1.00  0.00    -0.233 N  
HETATM   11  H   UNL     1     -11.199  15.409  69.365  1.00  0.00     0.000 HD 
BRANCH  10  12
HETATM   12  C   UNL     1     -10.848  16.273  67.556  1.00  0.00    -0.268 C  
HETATM   13  O   UNL     1     -10.458  17.434  67.591  1.00  0.00    -0.347 OA 
BRANCH  12  14
HETATM   14  N   UNL     1     -11.721  15.771  66.640  1.00  0.00     0.368 N  
HETATM   15  H   UNL     1     -12.653  16.174  66.540  1.00  0.00     0.000 HD 
BRANCH  14  16
HETATM   16  C   UNL     1     -11.310  14.654  65.805  1.00  0.00    -0.340 C  
BRANCH  16  17
HETATM   17  C   UNL     1     -12.467  14.080  64.978  1.00  0.00    -0.425 C  
HETATM   18  H2  UNL     1     -13.210  12.966  66.550  1.00  0.00     0.000 HD 
HETATM   19  N   UNL     1     -12.951  12.842  65.571  1.00  0.00    -0.383 NA 
HETATM   20  H1  UNL     1     -13.721  12.459  65.022  1.00  0.00     0.000 HD 
ENDBRANCH  16  17
ENDBRANCH  14  16
ENDBRANCH  12  14
ENDBRANCH  10  12
ENDBRANCH   4  10
BRANCH   9  21
HETATM   21  C   UNL     1      -6.713  12.077  67.980  1.00  0.00    -0.070 C  
BRANCH  21  22
HETATM   22  C   UNL     1      -7.079  10.358  68.217  1.00  0.00    -0.078 C  
HETATM   23  CA  UNL     1      -6.963   9.214  69.751  1.00  0.00    -0.056 C  
HETATM   24  C   UNL     1      -8.790   7.648  70.622  1.00  0.00    -0.145 C  
HETATM   25  C   UNL     1      -7.762   9.762  66.571  1.00  0.00    -0.105 C  
HETATM   26  C   UNL     1      -6.203   9.458  71.488  1.00  0.00    -0.011 C  
HETATM   27  N   UNL     1      -7.599   7.707  69.875  1.00  0.00    -0.090 N  
HETATM   28  O   UNL     1      -9.264   8.319  71.529  1.00  0.00    -0.148 OA 
HETATM   29  S   UNL     1      -8.550   7.655  66.544  1.00  0.00    -0.145 SA 
HETATM   30  C   UNL     1      -8.289   6.890  68.650  1.00  0.00    -0.121 C  
HETATM   31  O   UNL     1      -5.136  10.152  71.555  1.00  0.00    -0.072 OA 
HETATM   32  OXT UNL     1      -6.735   8.708  72.344  1.00  0.00    -0.145 OA 
HETATM   33  CA  UNL     1      -9.605   6.960  69.521  1.00  0.00    -0.148 C  
BRANCH  33  34
HETATM   34  N   UNL     1     -10.781   7.783  69.078  1.00  0.00    -0.377 N  
HETATM   35  C   UNL     1     -11.160   8.252  67.812  1.00  0.00     0.386 C  
HETATM   36  H   UNL     1     -11.416   8.048  69.832  1.00  0.00     0.000 HD 
HETATM   37  O   UNL     1     -12.218   8.882  67.803  1.00  0.00     3.539 OA 
BRANCH  35  38
HETATM   38  C   UNL     1     -10.393   8.030  66.435  1.00  0.00     0.107 C  
HETATM   39  C   UNL     1      -9.775   6.767  66.100  1.00  0.00     0.104 C  
HETATM   40  C   UNL     1      -8.304   4.267  64.972  1.00  0.00    -0.115 C  
HETATM   41  N   UNL     1     -10.267   5.657  67.201  1.00  0.00    -0.187 NA 
HETATM   42  N   UNL     1      -8.008   3.243  64.116  1.00  0.00    -0.081 NA 
HETATM   43  H   UNL     1      -8.328   6.489  63.953  1.00  0.00     0.000 HD 
HETATM   44  S   UNL     1      -9.278   3.478  66.958  1.00  0.00    -0.194 SA 
HETATM   45  H1  UNL     1      -7.585   3.585  63.254  1.00  0.00     0.000 HD 
HETATM   46  H2  UNL     1      -8.187   2.259  64.315  1.00  0.00     0.000 HD 
HETATM   47  N   UNL     1      -8.676   5.961  64.752  1.00  0.00    -0.003 NA 
BRANCH  38  48
HETATM   48  N   UNL     1     -10.378   8.851  65.443  1.00  0.00     0.523 NA 
HETATM   49  H   UNL     1     -11.211   9.392  65.212  1.00  0.00     0.000 HD 
BRANCH  48  50
HETATM   50  O   UNL     1      -9.242   8.995  64.706  1.00  0.00    -0.123 OA 
HETATM   51  O   UNL     1      -9.715  12.150  63.166  1.00  0.00    -0.379 OA 
HETATM   52  C   UNL     1      -9.619  10.952  63.399  1.00  0.00    -0.332 C  
HETATM   53  C   UNL     1      -7.432  10.435  64.337  1.00  0.00    -0.010 C  
HETATM   54  C   UNL     1      -9.560  11.389  65.729  1.00  0.00    -0.260 C  
HETATM   55  C   UNL     1      -8.934  10.412  64.643  1.00  0.00    -0.209 C  
HETATM   56  O   UNL     1     -10.109  10.008  62.571  1.00  0.00     0.253 OA 
ENDBRANCH  48  50
ENDBRANCH  38  48
ENDBRANCH  35  38
ENDBRANCH  33  34
ENDBRANCH  21  22
ENDBRANCH   9  21
TORSDOF 11
ENDMDL
MODEL      157
REMARK 921   NORMALIZED FREE ENERGY PREDICTED BY IDOCK:   16.23 KCAL/MOL
REMARK 922        TOTAL FREE ENERGY PREDICTED BY IDOCK:   22.88 KCAL/MOL
REMARK 923 INTER-LIGAND FREE ENERGY PREDICTED BY IDOCK:   13.75 KCAL/MOL
REMARK 924 INTRA-LIGAND FREE ENERGY PREDICTED BY IDOCK:    9.13 KCAL/MOL
REMARK 927      BINDING AFFINITY PREDICTED BY RF-SCORE:    0.00 PKD
ROOT
HETATM    1  C   UNL     1     -10.616  14.024  73.213  1.00  0.00     5.974 C  
HETATM    2  N   UNL     1     -11.082  13.885  71.849  1.00  0.00     2.503 NA 
HETATM    3  C   UNL     1     -11.155  14.922  70.933  1.00  0.00    -0.103 A  
HETATM    4  C   UNL     1     -12.250  14.732  70.061  1.00  0.00    -0.333 A  
HETATM    5  N   UNL     1     -10.336  16.000  70.883  1.00  0.00     0.531 NA 
HETATM    6  C   UNL     1     -12.850  13.534  70.597  1.00  0.00    -0.118 A  
HETATM    7  H2  UNL     1      -9.597  16.053  71.584  1.00  0.00     0.000 HD 
HETATM    8  H1  UNL     1     -10.390  16.763  70.210  1.00  0.00     0.000 HD 
HETATM    9  N   UNL     1     -11.896  12.893  71.432  1.00  0.00     0.802 NA 
ENDROOT
BRANCH   4  10
HETATM   10  N   UNL     1     -12.567  15.670  69.095  1.00  0.00    -0.436 N  
HETATM   11  H   UNL     1     -13.405  16.230  69.256  1.00  0.00     0.000 HD 
BRANCH  10  12
HETATM   12  C   UNL     1     -11.873  15.921  67.953  1.00  0.00     0.160 C  
HETATM   13  O   UNL     1     -11.447  17.051  67.742  1.00  0.00     0.055 OA 
BRANCH  12  14
HETATM   14  N   UNL     1     -11.857  14.902  67.049  1.00  0.00    -0.292 N  
HETATM   15  H   UNL     1     -11.702  13.942  67.357  1.00  0.00     0.000 HD 
BRANCH  14  16
HETATM   16  C   UNL     1     -12.063  15.199  65.641  1.00  0.00     0.235 C  
BRANCH  16  17
HETATM   17  C   UNL     1     -11.347  14.205  64.719  1.00  0.00    -0.371 C  
HETATM   18  H2  UNL     1     -13.102  13.299  64.115  1.00  0.00     0.000 HD 
HETATM   19  N   UNL     1     -12.184  13.039  64.478  1.00  0.00    -0.418 NA 
HETATM   20  H1  UNL     1     -11.708  12.378  63.864  1.00  0.00     0.000 HD 
ENDBRANCH  16  17
ENDBRANCH  14  16
ENDBRANCH  12  14
ENDBRANCH  10  12
ENDBRANCH   4  10
BRANCH   9  21
HETATM   21  C   UNL     1     -11.811  11.521  72.013  1.00  0.00     2.414 C  
BRANCH  21  22
HETATM   22  C   UNL     1     -11.990  10.119  70.941  1.00  0.00    -0.461 C  
HETATM   23  CA  UNL     1     -11.783   9.909  69.046  1.00  0.00     0.268 C  
HETATM   24  C   UNL     1     -10.420   8.100  67.856  1.00  0.00    -0.197 C  
HETATM   25  C   UNL     1     -12.374   8.670  72.074  1.00  0.00    -0.435 C  
HETATM   26  C   UNL     1     -11.542  11.168  67.628  1.00  0.00    -0.183 C  
HETATM   27  N   UNL     1     -11.719   8.483  68.240  1.00  0.00     1.647 N  
HETATM   28  O   UNL     1      -9.390   8.710  67.600  1.00  0.00    -0.136 OA 
HETATM   29  S   UNL     1     -12.457   6.651  71.087  1.00  0.00    -0.073 SA 
HETATM   30  C   UNL     1     -11.983   7.025  68.913  1.00  0.00     1.243 C  
HETATM   31  O   UNL     1     -12.154  12.280  67.738  1.00  0.00    -0.478 OA 
HETATM   32  OXT UNL     1     -10.974  10.652  66.633  1.00  0.00    -0.190 OA 
HETATM   33  CA  UNL     1     -10.481   6.724  68.528  1.00  0.00    -0.204 C  
BRANCH  33  34
HETATM   34  N   UNL     1      -9.430   6.556  69.588  1.00  0.00    -0.145 N  
HETATM   35  C   UNL     1      -8.156   5.973  69.546  1.00  0.00    -0.107 C  
HETATM   36  H   UNL     1      -9.690   6.933  70.500  1.00  0.00     0.000 HD 
HETATM   37  O   UNL     1      -7.536   6.036  70.608  1.00  0.00    -0.082 OA 
BRANCH  35  38
HETATM   38  C   UNL     1      -7.452   5.288  68.292  1.00  0.00    -0.076 C  
HETATM   39  C   UNL     1      -7.049   6.050  67.133  1.00  0.00    -0.070 C  
HETATM   40  C   UNL     1      -6.034   7.268  64.454  1.00  0.00    -0.037 C  
HETATM   41  N   UNL     1      -7.179   7.641  67.504  1.00  0.00    -0.085 NA 
HETATM   42  N   UNL     1      -5.158   7.602  63.459  1.00  0.00    -0.036 NA 
HETATM   43  H   UNL     1      -6.115   4.886  64.999  1.00  0.00     0.000 HD 
HETATM   44  S   UNL     1      -6.691   9.150  65.695  1.00  0.00    -0.073 SA 
HETATM   45  H1  UNL     1      -4.873   6.785  62.920  1.00  0.00     0.000 HD 
HETATM   46  H2  UNL     1      -4.831   8.551  63.278  1.00  0.00     0.000 HD 
HETATM   47  N   UNL     1      -6.322   5.811  65.375  1.00  0.00    -0.040 NA 
BRANCH  38  48
HETATM   48  N   UNL     1      -7.036   4.071  68.238  1.00  0.00    -0.047 NA 
HETATM   49  H   UNL     1      -6.168   3.805  68.704  1.00  0.00     0.000 HD 
BRANCH  48  50
HETATM   50  O   UNL     1      -7.759   3.142  67.555  1.00  0.00    -0.074 OA 
HETATM   51  O   UNL     1     -11.088   3.923  68.481  1.00  0.00     3.163 OA 
HETATM   52  C   UNL     1      -9.986   3.403  68.363  1.00  0.00     0.436 C  
HETATM   53  C   UNL     1      -9.518   2.908  66.026  1.00  0.00     0.026 C  
HETATM   54  C   UNL     1      -9.181   5.321  67.225  1.00  0.00    -0.114 C  
HETATM   55  C   UNL     1      -9.040   3.738  67.223  1.00  0.00    -0.159 C  
HETATM   56  O   UNL     1      -9.517   2.486  69.233  1.00  0.00    -0.137 OA 
ENDBRANCH  48  50
ENDBRANCH  38  48
ENDBRANCH  35  38
ENDBRANCH  33  34
ENDBRANCH  21  22
ENDBRANCH   9  21
TORSDOF 11
ENDMDL
MODEL      158
REMARK 921   NORMALIZED FREE ENERGY PREDICTED BY IDOCK:   16.62 KCAL/MOL
REMARK 922        TOTAL FREE ENERGY PREDICTED BY IDOCK:   23.52 KCAL/MOL
REMARK 923 INTER-LIGAND FREE ENERGY PREDICTED BY IDOCK:    8.40 KCAL/MOL
REMARK 924 INTRA-LIGAND FREE ENERGY PREDICTED BY IDOCK:   15.12 KCAL/MOL
REMARK 927      BINDING AFFINITY PREDICTED BY RF-SCORE:    0.00 PKD
ROOT
HETATM    1  C   UNL     1     -10.095   9.537  67.521  1.00  0.00    -0.204 C  
HETATM    2  N   UNL     1     -10.892  10.023  68.629  1.00  0.00    -0.231 NA 
HETATM    3  C   UNL     1     -10.733   9.625  69.946  1.00  0.00    -0.252 A  
HETATM    4  C   UNL     1     -11.979   9.616  70.612  1.00  0.00    -0.229 A  
HETATM    5  N   UNL     1      -9.569   9.250  70.529  1.00  0.00    -0.243 NA 
HETATM    6  C   UNL     1     -12.885   9.971  69.548  1.00  0.00     1.170 A  
HETATM    7  H2  UNL     1      -8.733   9.261  69.945  1.00  0.00     0.000 HD 
HETATM    8  H1  UNL     1      -9.451   8.957  71.499  1.00  0.00     0.000 HD 
HETATM    9  N   UNL     1     -12.128  10.545  68.491  1.00  0.00    -0.242 NA 
ENDROOT
BRANCH   4  10
HETATM   10  N   UNL     1     -12.085   9.193  71.925  1.00  0.00    -0.370 N  
HETATM   11  H   UNL     1     -11.998   9.909  72.647  1.00  0.00     0.000 HD 
BRANCH  10  12
HETATM   12  C   UNL     1     -12.294   7.918  72.349  1.00  0.00    -0.208 C  
HETATM   13  O   UNL     1     -13.229   7.275  71.886  1.00  0.00    -0.311 OA 
BRANCH  12  14
HETATM   14  N   UNL     1     -11.521   7.522  73.398  1.00  0.00    -0.447 N  
HETATM   15  H   UNL     1     -11.802   7.734  74.355  1.00  0.00     0.000 HD 
BRANCH  14  16
HETATM   16  C   UNL     1     -10.290   6.794  73.138  1.00  0.00    -0.247 C  
BRANCH  16  17
HETATM   17  C   UNL     1      -9.464   7.419  72.007  1.00  0.00    -0.136 C  
HETATM   18  H2  UNL     1      -8.587   5.625  71.480  1.00  0.00     0.000 HD 
HETATM   19  N   UNL     1      -8.313   6.584  71.695  1.00  0.00    -0.120 NA 
HETATM   20  H1  UNL     1      -7.764   6.999  70.943  1.00  0.00     0.000 HD 
ENDBRANCH  16  17
ENDBRANCH  14  16
ENDBRANCH  12  14
ENDBRANCH  10  12
ENDBRANCH   4  10
BRANCH   9  21
HETATM   21  C   UNL     1     -12.504  11.349  67.290  1.00  0.00     2.207 C  
BRANCH  21  22
HETATM   22  C   UNL     1     -12.509  13.119  67.405  1.00  0.00     0.238 C  
HETATM   23  CA  UNL     1     -11.847  14.327  68.739  1.00  0.00    -0.341 C  
HETATM   24  C   UNL     1     -10.364  16.373  68.336  1.00  0.00    -0.282 C  
HETATM   25  C   UNL     1     -13.273  13.722  65.798  1.00  0.00     0.158 C  
HETATM   26  C   UNL     1     -11.163  14.052  70.503  1.00  0.00     0.273 C  
HETATM   27  N   UNL     1     -11.686  15.950  68.569  1.00  0.00    -0.361 N  
HETATM   28  O   UNL     1      -9.261  15.926  68.621  1.00  0.00    -0.191 OA 
HETATM   29  S   UNL     1     -13.253  15.948  65.479  1.00  0.00     3.724 SA 
HETATM   30  C   UNL     1     -12.219  16.805  67.292  1.00  0.00     2.353 C  
HETATM   31  O   UNL     1     -11.698  13.120  71.187  1.00  0.00     0.323 OA 
HETATM   32  OXT UNL     1     -10.401  14.985  70.863  1.00  0.00     0.107 OA 
HETATM   33  CA  UNL     1     -10.694  17.145  67.054  1.00  0.00    -0.149 C  
BRANCH  33  34
HETATM   34  N   UNL     1      -9.961  16.610  65.857  1.00  0.00    -0.316 N  
HETATM   35  C   UNL     1      -9.359  15.366  65.619  1.00  0.00    -0.133 C  
HETATM   36  H   UNL     1      -9.887  17.267  65.080  1.00  0.00     0.000 HD 
HETATM   37  O   UNL     1      -8.865  15.250  64.497  1.00  0.00     2.988 OA 
BRANCH  35  38
HETATM   38  C   UNL     1      -9.285  14.127  66.617  1.00  0.00    -0.252 C  
HETATM   39  C   UNL     1      -8.224  13.992  67.588  1.00  0.00    -0.180 C  
HETATM   40  C   UNL     1      -6.154  13.285  69.802  1.00  0.00    -0.128 C  
HETATM   41  N   UNL     1      -7.396  15.406  67.632  1.00  0.00    -0.161 NA 
HETATM   42  N   UNL     1      -5.671  12.998  71.049  1.00  0.00    -0.409 NA 
HETATM   43  H   UNL     1      -7.985  11.850  69.051  1.00  0.00     0.000 HD 
HETATM   44  S   UNL     1      -5.479  15.416  69.084  1.00  0.00    -0.096 SA 
HETATM   45  H1  UNL     1      -5.964  12.073  71.361  1.00  0.00     0.000 HD 
HETATM   46  H2  UNL     1      -5.090  13.631  71.598  1.00  0.00     0.000 HD 
HETATM   47  N   UNL     1      -7.552  12.760  68.894  1.00  0.00    -0.010 NA 
BRANCH  38  48
HETATM   48  N   UNL     1     -10.201  13.236  66.776  1.00  0.00    -0.250 NA 
HETATM   49  H   UNL     1     -10.382  12.847  67.701  1.00  0.00     0.000 HD 
BRANCH  48  50
HETATM   50  O   UNL     1     -10.926  12.816  65.702  1.00  0.00    -0.267 OA 
HETATM   51  O   UNL     1      -8.448  11.395  63.607  1.00  0.00     0.302 OA 
HETATM   52  C   UNL     1      -9.293  12.125  64.110  1.00  0.00     0.332 C  
HETATM   53  C   UNL     1     -11.395  10.930  64.396  1.00  0.00     0.523 C  
HETATM   54  C   UNL     1      -9.274  10.816  66.088  1.00  0.00    -0.202 C  
HETATM   55  C   UNL     1     -10.272  11.638  65.164  1.00  0.00    -0.274 C  
HETATM   56  O   UNL     1      -9.429  13.422  63.771  1.00  0.00     0.948 OA 
ENDBRANCH  48  50
ENDBRANCH  38  48
ENDBRANCH  35  38
ENDBRANCH  33  34
ENDBRANCH  21  22
ENDBRANCH   9  21
TORSDOF 11
ENDMDL
MODEL      159
REMARK 921   NORMALIZED FREE ENERGY PREDICTED BY IDOCK:   16.93 KCAL/MOL
REMARK 922        TOTAL FREE ENERGY PREDICTED BY IDOCK:   24.04 KCAL/MOL
REMARK 923 INTER-LIGAND FREE ENERGY PREDICTED BY IDOCK:   13.41 KCAL/MOL
REMARK 924 INTRA-LIGAND FREE ENERGY PREDICTED BY IDOCK:   10.63 KCAL/MOL
REMARK 927      BINDING AFFINITY PREDICTED BY RF-SCORE:    0.00 PKD
ROOT
HETATM    1  C   UNL     1     -12.043  14.572  67.438  1.00  0.00    -0.257 C  
HETATM    2  N   UNL     1     -10.963  15.399  66.940  1.00  0.00    -0.315 NA 
HETATM    3  C   UNL     1     -10.308  16.368  67.683  1.00  0.00    -0.284 A  
HETATM    4  C   UNL     1      -9.914  17.442  66.854  1.00  0.00    -0.300 A  
HETATM    5  N   UNL     1     -10.099  16.339  69.021  1.00  0.00    -0.245 NA 
HETATM    6  C   UNL     1     -10.462  17.047  65.579  1.00  0.00    -0.166 A  
HETATM    7  H2  UNL     1     -10.457  15.530  69.529  1.00  0.00     0.000 HD 
HETATM    8  H1  UNL     1      -9.618  17.052  69.569  1.00  0.00     0.000 HD 
HETATM    9  N   UNL     1     -10.758  15.658  65.633  1.00  0.00    -0.352 NA 
ENDROOT
BRANCH   4  10
HETATM   10  N   UNL     1      -9.295  18.562  67.379  1.00  0.00    -0.277 N  
HETATM   11  H   UNL     1      -9.536  18.813  68.338  1.00  0.00     0.000 HD 
BRANCH  10  12
HETATM   12  C   UNL     1      -8.396  19.362  66.744  1.00  0.00    -0.296 C  
HETATM   13  O   UNL     1      -8.800  20.254  66.008  1.00  0.00    -0.223 OA 
BRANCH  12  14
HETATM   14  N   UNL     1      -7.095  18.979  66.863  1.00  0.00    -0.204 N  
HETATM   15  H   UNL     1      -6.421  19.207  66.132  1.00  0.00     0.000 HD 
BRANCH  14  16
HETATM   16  C   UNL     1      -6.677  18.241  68.043  1.00  0.00    -0.203 C  
BRANCH  16  17
HETATM   17  C   UNL     1      -5.336  17.524  67.845  1.00  0.00    -0.130 C  
HETATM   18  H2  UNL     1      -6.137  15.652  68.188  1.00  0.00     0.000 HD 
HETATM   19  N   UNL     1      -5.352  16.224  68.499  1.00  0.00    -0.100 NA 
HETATM   20  H1  UNL     1      -4.460  15.746  68.368  1.00  0.00     0.000 HD 
ENDBRANCH  16  17
ENDBRANCH  14  16
ENDBRANCH  12  14
ENDBRANCH  10  12
ENDBRANCH   4  10
BRANCH   9  21
HETATM   21  C   UNL     1     -11.055  14.640  64.582  1.00  0.00    -0.334 C  
BRANCH  21  22
HETATM   22  C   UNL     1      -9.851  13.386  64.232  1.00  0.00     0.438 C  
HETATM   23  CA  UNL     1      -8.089  13.062  64.918  1.00  0.00     5.137 C  
HETATM   24  C   UNL     1      -7.187  10.837  65.803  1.00  0.00    -0.057 C  
HETATM   25  C   UNL     1     -10.678  12.226  63.007  1.00  0.00     0.103 C  
HETATM   26  C   UNL     1      -6.930  14.093  66.035  1.00  0.00     5.352 C  
HETATM   27  N   UNL     1      -7.206  11.699  64.690  1.00  0.00     2.094 N  
HETATM   28  O   UNL     1      -7.304  10.998  67.011  1.00  0.00    -0.109 OA 
HETATM   29  S   UNL     1      -9.524  10.368  62.486  1.00  0.00    -0.190 SA 
HETATM   30  C   UNL     1      -7.631  10.473  63.709  1.00  0.00     0.061 C  
HETATM   31  O   UNL     1      -6.960  15.358  65.880  1.00  0.00     2.340 OA 
HETATM   32  OXT UNL     1      -6.102  13.372  66.646  1.00  0.00     0.775 OA 
HETATM   33  CA  UNL     1      -7.678   9.608  65.030  1.00  0.00    -0.119 C  
BRANCH  33  34
HETATM   34  N   UNL     1      -8.980   9.079  65.561  1.00  0.00    -0.196 N  
HETATM   35  C   UNL     1      -9.762   9.471  66.657  1.00  0.00    -0.211 C  
HETATM   36  H   UNL     1      -9.362   8.295  65.031  1.00  0.00     0.000 HD 
HETATM   37  O   UNL     1     -10.805   8.830  66.788  1.00  0.00    -0.136 OA 
BRANCH  35  38
HETATM   38  C   UNL     1      -9.452  10.643  67.689  1.00  0.00    -0.153 C  
HETATM   39  C   UNL     1      -8.373  10.554  68.645  1.00  0.00    -0.132 C  
HETATM   40  C   UNL     1      -6.197  10.793  70.858  1.00  0.00     0.155 C  
HETATM   41  N   UNL     1      -7.455   9.256  68.249  1.00  0.00    -0.079 NA 
HETATM   42  N   UNL     1      -5.129  11.302  71.543  1.00  0.00    -0.257 NA 
HETATM   43  H   UNL     1      -8.025  12.372  70.477  1.00  0.00     0.000 HD 
HETATM   44  S   UNL     1      -5.647   8.789  69.765  1.00  0.00    -0.029 SA 
HETATM   45  H1  UNL     1      -5.368  12.173  72.017  1.00  0.00     0.000 HD 
HETATM   46  H2  UNL     1      -4.208  10.866  71.575  1.00  0.00     0.000 HD 
HETATM   47  N   UNL     1      -7.620  11.503  70.130  1.00  0.00     0.893 NA 
BRANCH  38  48
HETATM   48  N   UNL     1      -9.993  11.812  67.681  1.00  0.00    -0.191 NA 
HETATM   49  H   UNL     1      -9.411  12.647  67.739  1.00  0.00     0.000 HD 
BRANCH  48  50
HETATM   50  O   UNL     1     -11.348  11.926  67.595  1.00  0.00    -0.261 OA 
HETATM   51  O   UNL     1     -12.338  11.938  70.996  1.00  0.00    -0.352 OA 
HETATM   52  C   UNL     1     -12.117  11.632  69.831  1.00  0.00    -0.301 C  
HETATM   53  C   UNL     1     -13.155  13.230  68.316  1.00  0.00     2.830 C  
HETATM   54  C   UNL     1     -10.765  13.561  69.561  1.00  0.00     0.152 C  
HETATM   55  C   UNL     1     -11.802  12.662  68.760  1.00  0.00    -0.300 C  
HETATM   56  O   UNL     1     -12.137  10.356  69.397  1.00  0.00    -0.163 OA 
ENDBRANCH  48  50
ENDBRANCH  38  48
ENDBRANCH  35  38
ENDBRANCH  33  34
ENDBRANCH  21  22
ENDBRANCH   9  21
TORSDOF 11
ENDMDL
MODEL      160
REMARK 921   NORMALIZED FREE ENERGY PREDICTED BY IDOCK:   18.70 KCAL/MOL
REMARK 922        TOTAL FREE ENERGY PREDICTED BY IDOCK:   26.95 KCAL/MOL
REMARK 923 INTER-LIGAND FREE ENERGY PREDICTED BY IDOCK:    0.37 KCAL/MOL
REMARK 924 INTRA-LIGAND FREE ENERGY PREDICTED BY IDOCK:   26.58 KCAL/MOL
REMARK 927      BINDING AFFINITY PREDICTED BY RF-SCORE:    0.00 PKD
ROOT
HETATM    1  C   UNL     1      -9.135  11.045  62.331  1.00  0.00    -0.281 C  
HETATM    2  N   UNL     1      -8.969  10.681  63.724  1.00  0.00    -0.194 NA 
HETATM    3  C   UNL     1      -8.973   9.381  64.202  1.00  0.00    -0.144 A  
HETATM    4  C   UNL     1      -9.536   9.335  65.497  1.00  0.00    -0.220 A  
HETATM    5  N   UNL     1      -8.545   8.284  63.532  1.00  0.00    -0.408 NA 
HETATM    6  C   UNL     1      -9.928  10.708  65.699  1.00  0.00    -0.268 A  
HETATM    7  H2  UNL     1      -8.188   8.429  62.587  1.00  0.00     0.000 HD 
HETATM    8  H1  UNL     1      -8.548   7.328  63.884  1.00  0.00     0.000 HD 
HETATM    9  N   UNL     1      -9.235  11.512  64.753  1.00  0.00    -0.047 NA 
ENDROOT
BRANCH   4  10
HETATM   10  N   UNL     1      -9.705   8.133  66.161  1.00  0.00    -0.446 N  
HETATM   11  H   UNL     1      -9.942   7.322  65.590  1.00  0.00     0.000 HD 
BRANCH  10  12
HETATM   12  C   UNL     1      -9.586   7.925  67.501  1.00  0.00    -0.152 C  
HETATM   13  O   UNL     1      -8.481   7.703  67.980  1.00  0.00    -0.123 OA 
BRANCH  12  14
HETATM   14  N   UNL     1     -10.764   7.821  68.177  1.00  0.00    -0.417 N  
HETATM   15  H   UNL     1     -11.629   8.166  67.762  1.00  0.00     0.000 HD 
BRANCH  14  16
HETATM   16  C   UNL     1     -10.773   7.212  69.497  1.00  0.00    -0.239 C  
BRANCH  16  17
HETATM   17  C   UNL     1     -11.062   8.225  70.611  1.00  0.00    -0.253 C  
HETATM   18  H2  UNL     1      -9.142   8.141  71.366  1.00  0.00     0.000 HD 
HETATM   19  N   UNL     1     -10.105   8.076  71.697  1.00  0.00    -0.177 NA 
HETATM   20  H1  UNL     1     -10.297   8.750  72.438  1.00  0.00     0.000 HD 
ENDBRANCH  16  17
ENDBRANCH  14  16
ENDBRANCH  12  14
ENDBRANCH  10  12
ENDBRANCH   4  10
BRANCH   9  21
HETATM   21  C   UNL     1      -8.995  12.982  64.648  1.00  0.00     1.971 C  
BRANCH  21  22
HETATM   22  C   UNL     1      -8.788  13.929  66.133  1.00  0.00     0.360 C  
HETATM   23  CA  UNL     1      -9.468  15.637  66.679  1.00  0.00    -0.259 C  
HETATM   24  C   UNL     1     -10.623  16.176  68.898  1.00  0.00    -0.275 C  
HETATM   25  C   UNL     1      -7.752  12.852  67.272  1.00  0.00    -0.122 C  
HETATM   26  C   UNL     1     -10.406  17.012  65.740  1.00  0.00    -0.261 C  
HETATM   27  N   UNL     1      -9.405  16.254  68.197  1.00  0.00    -0.207 N  
HETATM   28  O   UNL     1     -11.801  16.148  68.564  1.00  0.00    -0.300 OA 
HETATM   29  S   UNL     1      -7.458  13.634  69.360  1.00  0.00     0.411 SA 
HETATM   30  C   UNL     1      -8.609  15.573  69.442  1.00  0.00    -0.259 C  
HETATM   31  O   UNL     1     -10.082  17.198  64.521  1.00  0.00     1.044 OA 
HETATM   32  OXT UNL     1     -11.089  17.729  66.514  1.00  0.00     0.121 OA 
HETATM   33  CA  UNL     1     -10.036  15.439  70.107  1.00  0.00    -0.063 C  
BRANCH  33  34
HETATM   34  N   UNL     1     -10.666  14.092  70.320  1.00  0.00    -0.193 N  
HETATM   35  C   UNL     1     -10.568  12.898  69.591  1.00  0.00     0.613 C  
HETATM   36  H   UNL     1     -11.272  14.036  71.139  1.00  0.00     0.000 HD 
HETATM   37  O   UNL     1     -11.202  11.959  70.073  1.00  0.00    -0.098 OA 
BRANCH  35  38
HETATM   38  C   UNL     1      -9.721  12.646  68.267  1.00  0.00    -0.216 C  
HETATM   39  C   UNL     1      -8.605  11.730  68.236  1.00  0.00    -0.162 C  
HETATM   40  C   UNL     1      -6.151   9.888  67.710  1.00  0.00    -0.054 C  
HETATM   41  N   UNL     1      -8.616  10.874  69.634  1.00  0.00     0.234 NA 
HETATM   42  N   UNL     1      -5.405   8.894  67.142  1.00  0.00    -0.040 NA 
HETATM   43  H   UNL     1      -7.088  11.503  66.131  1.00  0.00     0.000 HD 
HETATM   44  S   UNL     1      -6.774   9.352  69.909  1.00  0.00    -0.065 SA 
HETATM   45  H1  UNL     1      -5.134   9.126  66.186  1.00  0.00     0.000 HD 
HETATM   46  H2  UNL     1      -5.150   8.027  67.614  1.00  0.00     0.000 HD 
HETATM   47  N   UNL     1      -7.208  11.125  67.071  1.00  0.00    -0.120 NA 
BRANCH  38  48
HETATM   48  N   UNL     1     -10.019  13.081  67.092  1.00  0.00    -0.231 NA 
HETATM   49  H   UNL     1      -9.485  12.772  66.280  1.00  0.00     0.000 HD 
BRANCH  48  50
HETATM   50  O   UNL     1     -11.052  13.956  66.940  1.00  0.00    -0.292 OA 
HETATM   51  O   UNL     1     -13.061  12.362  64.497  1.00  0.00    -0.823 OA 
HETATM   52  C   UNL     1     -12.291  13.106  65.091  1.00  0.00    -0.473 C  
HETATM   53  C   UNL     1     -13.388  14.110  67.019  1.00  0.00     3.214 C  
HETATM   54  C   UNL     1     -12.272  11.635  66.951  1.00  0.00     0.929 C  
HETATM   55  C   UNL     1     -12.235  13.186  66.607  1.00  0.00    -0.267 C  
HETATM   56  O   UNL     1     -11.428  13.921  64.452  1.00  0.00    -0.378 OA 
ENDBRANCH  48  50
ENDBRANCH  38  48
ENDBRANCH  35  38
ENDBRANCH  33  34
ENDBRANCH  21  22
ENDBRANCH   9  21
TORSDOF 11
ENDMDL
MODEL      161
REMARK 921   NORMALIZED FREE ENERGY PREDICTED BY IDOCK:   19.75 KCAL/MOL
REMARK 922        TOTAL FREE ENERGY PREDICTED BY IDOCK:   28.66 KCAL/MOL
REMARK 923 INTER-LIGAND FREE ENERGY PREDICTED BY IDOCK:    2.18 KCAL/MOL
REMARK 924 INTRA-LIGAND FREE ENERGY PREDICTED BY IDOCK:   26.49 KCAL/MOL
REMARK 927      BINDING AFFINITY PREDICTED BY RF-SCORE:    0.00 PKD
ROOT
HETATM    1  C   UNL     1      -8.957  10.472  62.640  1.00  0.00    -0.274 C  
HETATM    2  N   UNL     1      -8.670  10.072  64.002  1.00  0.00    -0.189 NA 
HETATM    3  C   UNL     1      -8.684   8.764  64.457  1.00  0.00    -0.043 A  
HETATM    4  C   UNL     1      -9.117   8.714  65.801  1.00  0.00    -0.187 A  
HETATM    5  N   UNL     1      -8.374   7.664  63.729  1.00  0.00    -0.372 NA 
HETATM    6  C   UNL     1      -9.425  10.099  66.064  1.00  0.00    -0.197 A  
HETATM    7  H2  UNL     1      -8.106   7.813  62.756  1.00  0.00     0.000 HD 
HETATM    8  H1  UNL     1      -8.384   6.701  64.064  1.00  0.00     0.000 HD 
HETATM    9  N   UNL     1      -8.795  10.892  65.067  1.00  0.00    -0.176 NA 
ENDROOT
BRANCH   4  10
HETATM   10  N   UNL     1      -9.272   7.507  66.459  1.00  0.00    -0.168 N  
HETATM   11  H   UNL     1      -8.468   7.162  66.982  1.00  0.00     0.000 HD 
BRANCH  10  12
HETATM   12  C   UNL     1     -10.392   6.734  66.476  1.00  0.00    -0.046 C  
HETATM   13  O   UNL     1     -11.249   6.934  67.328  1.00  0.00    -0.317 OA 
BRANCH  12  14
HETATM   14  N   UNL     1     -10.377   5.674  65.621  1.00  0.00    -0.266 N  
HETATM   15  H   UNL     1     -11.061   5.610  64.867  1.00  0.00     0.000 HD 
BRANCH  14  16
HETATM   16  C   UNL     1      -9.375   4.635  65.796  1.00  0.00    -0.158 C  
BRANCH  16  17
HETATM   17  C   UNL     1      -8.806   4.135  64.462  1.00  0.00    -0.137 C  
HETATM   18  H2  UNL     1     -10.637   3.463  63.783  1.00  0.00     0.000 HD 
HETATM   19  N   UNL     1      -9.679   3.125  63.882  1.00  0.00    -0.136 NA 
HETATM   20  H1  UNL     1      -9.301   2.793  62.995  1.00  0.00     0.000 HD 
ENDBRANCH  16  17
ENDBRANCH  14  16
ENDBRANCH  12  14
ENDBRANCH  10  12
ENDBRANCH   4  10
BRANCH   9  21
HETATM   21  C   UNL     1      -8.501  12.352  64.963  1.00  0.00     1.994 C  
BRANCH  21  22
HETATM   22  C   UNL     1      -8.471  13.332  66.441  1.00  0.00     0.439 C  
HETATM   23  CA  UNL     1      -9.145  15.082  66.842  1.00  0.00    -0.247 C  
HETATM   24  C   UNL     1     -10.586  15.731  68.854  1.00  0.00    -0.233 C  
HETATM   25  C   UNL     1      -7.662  12.246  67.743  1.00  0.00    -0.139 C  
HETATM   26  C   UNL     1      -9.872  16.467  65.745  1.00  0.00    -0.243 C  
HETATM   27  N   UNL     1      -9.276  15.739  68.339  1.00  0.00    -0.188 N  
HETATM   28  O   UNL     1     -11.702  15.743  68.352  1.00  0.00    -0.366 OA 
HETATM   29  S   UNL     1      -7.641  13.075  69.834  1.00  0.00     1.780 SA 
HETATM   30  C   UNL     1      -8.702  15.061  69.702  1.00  0.00     0.017 C  
HETATM   31  O   UNL     1      -9.367  16.604  64.583  1.00  0.00     1.870 OA 
HETATM   32  OXT UNL     1     -10.628  17.234  66.394  1.00  0.00    -0.281 OA 
HETATM   33  CA  UNL     1     -10.215  15.006  70.153  1.00  0.00     0.021 C  
BRANCH  33  34
HETATM   34  N   UNL     1     -10.930  13.693  70.301  1.00  0.00    -0.119 N  
HETATM   35  C   UNL     1     -10.795  12.481  69.608  1.00  0.00     0.322 C  
HETATM   36  H   UNL     1     -11.639  13.681  71.035  1.00  0.00     0.000 HD 
HETATM   37  O   UNL     1     -11.530  11.582  70.016  1.00  0.00    -0.282 OA 
BRANCH  35  38
HETATM   38  C   UNL     1      -9.797  12.166  68.408  1.00  0.00    -0.200 C  
HETATM   39  C   UNL     1      -8.747  11.181  68.527  1.00  0.00    -0.161 C  
HETATM   40  C   UNL     1      -6.366   9.186  68.333  1.00  0.00    -0.054 C  
HETATM   41  N   UNL     1      -8.998  10.340  69.911  1.00  0.00    -0.061 NA 
HETATM   42  N   UNL     1      -5.615   8.142  67.870  1.00  0.00    -0.034 NA 
HETATM   43  H   UNL     1      -6.981  10.843  66.644  1.00  0.00     0.000 HD 
HETATM   44  S   UNL     1      -7.308   8.709  70.430  1.00  0.00    -0.067 SA 
HETATM   45  H1  UNL     1      -5.205   8.348  66.959  1.00  0.00     0.000 HD 
HETATM   46  H2  UNL     1      -5.481   7.265  68.373  1.00  0.00     0.000 HD 
HETATM   47  N   UNL     1      -7.248  10.481  67.558  1.00  0.00    -0.089 NA 
BRANCH  38  48
HETATM   48  N   UNL     1      -9.908  12.609  67.204  1.00  0.00    -0.209 NA 
HETATM   49  H   UNL     1      -9.228  12.338  66.494  1.00  0.00     0.000 HD 
BRANCH  48  50
HETATM   50  O   UNL     1     -10.938  13.441  66.885  1.00  0.00    -0.278 OA 
HETATM   51  O   UNL     1     -12.305  11.905  64.001  1.00  0.00    -0.377 OA 
HETATM   52  C   UNL     1     -11.719  12.647  64.778  1.00  0.00    -0.352 C  
HETATM   53  C   UNL     1     -13.245  13.477  66.484  1.00  0.00     1.716 C  
HETATM   54  C   UNL     1     -11.994  11.067  66.525  1.00  0.00     1.428 C  
HETATM   55  C   UNL     1     -11.980  12.636  66.274  1.00  0.00    -0.374 C  
HETATM   56  O   UNL     1     -10.794  13.540  64.375  1.00  0.00    -0.392 OA 
ENDBRANCH  48  50
ENDBRANCH  38  48
ENDBRANCH  35  38
ENDBRANCH  33  34
ENDBRANCH  21  22
ENDBRANCH   9  21
TORSDOF 11
ENDMDL
MODEL      162
REMARK 921   NORMALIZED FREE ENERGY PREDICTED BY IDOCK:   19.75 KCAL/MOL
REMARK 922        TOTAL FREE ENERGY PREDICTED BY IDOCK:   28.67 KCAL/MOL
REMARK 923 INTER-LIGAND FREE ENERGY PREDICTED BY IDOCK:    8.80 KCAL/MOL
REMARK 924 INTRA-LIGAND FREE ENERGY PREDICTED BY IDOCK:   19.87 KCAL/MOL
REMARK 927      BINDING AFFINITY PREDICTED BY RF-SCORE:    0.00 PKD
ROOT
HETATM    1  C   UNL     1      -9.648  15.609  65.800  1.00  0.00    -0.326 C  
HETATM    2  N   UNL     1      -9.299  16.063  67.130  1.00  0.00    -0.209 NA 
HETATM    3  C   UNL     1      -9.561  17.331  67.623  1.00  0.00    -0.256 A  
HETATM    4  C   UNL     1      -8.542  17.733  68.516  1.00  0.00    -0.291 A  
HETATM    5  N   UNL     1     -10.611  18.116  67.283  1.00  0.00    -0.390 NA 
HETATM    6  C   UNL     1      -7.629  16.619  68.442  1.00  0.00    -0.197 A  
HETATM    7  H2  UNL     1     -11.270  17.739  66.601  1.00  0.00     0.000 HD 
HETATM    8  H1  UNL     1     -10.805  19.049  67.645  1.00  0.00     0.000 HD 
HETATM    9  N   UNL     1      -8.319  15.513  67.877  1.00  0.00    -0.141 NA 
ENDROOT
BRANCH   4  10
HETATM   10  N   UNL     1      -8.551  18.991  69.092  1.00  0.00    -0.148 N  
HETATM   11  H   UNL     1      -9.456  19.351  69.396  1.00  0.00     0.000 HD 
BRANCH  10  12
HETATM   12  C   UNL     1      -7.473  19.795  69.293  1.00  0.00    -0.171 C  
HETATM   13  O   UNL     1      -6.476  19.652  68.595  1.00  0.00    -0.251 OA 
BRANCH  12  14
HETATM   14  N   UNL     1      -7.546  20.598  70.391  1.00  0.00     1.078 N  
HETATM   15  H   UNL     1      -6.773  21.220  70.628  1.00  0.00     0.000 HD 
BRANCH  14  16
HETATM   16  C   UNL     1      -8.738  20.558  71.221  1.00  0.00     2.225 C  
BRANCH  16  17
HETATM   17  C   UNL     1      -9.950  19.974  70.485  1.00  0.00     1.182 C  
HETATM   18  H2  UNL     1     -10.823  19.261  72.215  1.00  0.00     0.000 HD 
HETATM   19  N   UNL     1     -10.576  18.930  71.282  1.00  0.00     1.467 NA 
HETATM   20  H1  UNL     1     -11.382  18.541  70.793  1.00  0.00     0.000 HD 
ENDBRANCH  16  17
ENDBRANCH  14  16
ENDBRANCH  12  14
ENDBRANCH  10  12
ENDBRANCH   4  10
BRANCH   9  21
HETATM   21  C   UNL     1      -8.022  14.051  67.816  1.00  0.00    -0.171 C  
BRANCH  21  22
HETATM   22  C   UNL     1      -9.337  12.920  67.448  1.00  0.00    -0.194 C  
HETATM   23  CA  UNL     1      -9.546  11.582  66.090  1.00  0.00    -0.225 C  
HETATM   24  C   UNL     1     -10.268   9.153  66.448  1.00  0.00    -0.230 C  
HETATM   25  C   UNL     1     -10.619  13.190  68.794  1.00  0.00    -0.225 C  
HETATM   26  C   UNL     1      -8.526  11.156  64.531  1.00  0.00     0.317 C  
HETATM   27  N   UNL     1     -10.712  10.429  66.051  1.00  0.00    -0.055 N  
HETATM   28  O   UNL     1      -9.187   8.579  66.427  1.00  0.00    -0.171 OA 
HETATM   29  S   UNL     1     -12.360  11.766  68.789  1.00  0.00     0.535 SA 
HETATM   30  C   UNL     1     -11.969  10.346  67.080  1.00  0.00     2.233 C  
HETATM   31  O   UNL     1      -8.001  12.133  63.905  1.00  0.00     2.531 OA 
HETATM   32  OXT UNL     1      -8.682   9.959  64.179  1.00  0.00    -0.171 OA 
HETATM   33  CA  UNL     1     -11.340   8.968  67.529  1.00  0.00     0.968 C  
BRANCH  33  34
HETATM   34  N   UNL     1     -10.748   8.799  68.899  1.00  0.00    -0.390 N  
HETATM   35  C   UNL     1      -9.437   8.961  69.369  1.00  0.00    -0.161 C  
HETATM   36  H   UNL     1     -11.418   8.515  69.614  1.00  0.00     0.000 HD 
HETATM   37  O   UNL     1      -9.306   8.768  70.578  1.00  0.00    -0.163 OA 
BRANCH  35  38
HETATM   38  C   UNL     1      -8.157   9.383  68.522  1.00  0.00    -0.105 C  
HETATM   39  C   UNL     1      -7.686  10.748  68.478  1.00  0.00    -0.118 C  
HETATM   40  C   UNL     1      -6.333  13.523  68.083  1.00  0.00    -0.124 C  
HETATM   41  N   UNL     1      -8.493  11.597  69.624  1.00  0.00     0.959 NA 
HETATM   42  N   UNL     1      -5.354  14.477  68.108  1.00  0.00    -0.115 NA 
HETATM   43  H   UNL     1      -5.737  11.464  66.907  1.00  0.00     0.000 HD 
HETATM   44  S   UNL     1      -7.996  13.950  69.685  1.00  0.00     0.949 SA 
HETATM   45  H1  UNL     1      -4.632  14.292  67.412  1.00  0.00     0.000 HD 
HETATM   46  H2  UNL     1      -5.347  15.275  68.743  1.00  0.00     0.000 HD 
HETATM   47  N   UNL     1      -6.374  11.842  67.607  1.00  0.00    -0.072 NA 
BRANCH  38  48
HETATM   48  N   UNL     1      -7.341   8.573  67.941  1.00  0.00    -0.091 NA 
HETATM   49  H   UNL     1      -7.287   8.542  66.923  1.00  0.00     0.000 HD 
BRANCH  48  50
HETATM   50  O   UNL     1      -6.550   7.760  68.695  1.00  0.00    -0.053 OA 
HETATM   51  O   UNL     1      -8.063   4.588  68.251  1.00  0.00    -0.083 OA 
HETATM   52  C   UNL     1      -7.679   5.661  68.697  1.00  0.00    -0.092 C  
HETATM   53  C   UNL     1      -5.252   5.813  68.594  1.00  0.00     0.000 C  
HETATM   54  C   UNL     1      -6.952   6.321  66.539  1.00  0.00    -0.067 C  
HETATM   55  C   UNL     1      -6.544   6.450  68.069  1.00  0.00    -0.066 C  
HETATM   56  O   UNL     1      -8.229   6.235  69.786  1.00  0.00    -0.120 OA 
ENDBRANCH  48  50
ENDBRANCH  38  48
ENDBRANCH  35  38
ENDBRANCH  33  34
ENDBRANCH  21  22
ENDBRANCH   9  21
TORSDOF 11
ENDMDL
MODEL      163
REMARK 921   NORMALIZED FREE ENERGY PREDICTED BY IDOCK:   19.96 KCAL/MOL
REMARK 922        TOTAL FREE ENERGY PREDICTED BY IDOCK:   29.01 KCAL/MOL
REMARK 923 INTER-LIGAND FREE ENERGY PREDICTED BY IDOCK:   12.24 KCAL/MOL
REMARK 924 INTRA-LIGAND FREE ENERGY PREDICTED BY IDOCK:   16.77 KCAL/MOL
REMARK 927      BINDING AFFINITY PREDICTED BY RF-SCORE:    0.00 PKD
ROOT
HETATM    1  C   UNL     1     -11.799  14.522  67.275  1.00  0.00    -0.392 C  
HETATM    2  N   UNL     1     -11.106  15.574  66.560  1.00  0.00    -0.243 NA 
HETATM    3  C   UNL     1     -10.852  16.836  67.071  1.00  0.00    -0.066 A  
HETATM    4  C   UNL     1     -10.889  17.802  66.040  1.00  0.00     0.041 A  
HETATM    5  N   UNL     1     -10.639  17.140  68.374  1.00  0.00    -0.367 NA 
HETATM    6  C   UNL     1     -11.260  17.001  64.899  1.00  0.00     0.260 A  
HETATM    7  H2  UNL     1     -10.668  16.369  69.040  1.00  0.00     0.000 HD 
HETATM    8  H1  UNL     1     -10.452  18.069  68.751  1.00  0.00     0.000 HD 
HETATM    9  N   UNL     1     -11.020  15.636  65.215  1.00  0.00    -0.373 NA 
ENDROOT
BRANCH   4  10
HETATM   10  N   UNL     1     -10.725  19.148  66.314  1.00  0.00    -0.401 N  
HETATM   11  H   UNL     1     -11.016  19.468  67.238  1.00  0.00     0.000 HD 
BRANCH  10  12
HETATM   12  C   UNL     1     -10.215  20.088  65.473  1.00  0.00    -0.128 C  
HETATM   13  O   UNL     1     -10.968  20.694  64.720  1.00  0.00     0.465 OA 
BRANCH  12  14
HETATM   14  N   UNL     1      -8.856  20.151  65.432  1.00  0.00    -0.037 N  
HETATM   15  H   UNL     1      -8.380  20.485  64.594  1.00  0.00     0.000 HD 
BRANCH  14  16
HETATM   16  C   UNL     1      -8.090  19.736  66.596  1.00  0.00    -0.315 C  
BRANCH  16  17
HETATM   17  C   UNL     1      -6.610  19.494  66.272  1.00  0.00    -0.198 C  
HETATM   18  H2  UNL     1      -6.668  17.518  66.867  1.00  0.00     0.000 HD 
HETATM   19  N   UNL     1      -6.104  18.354  67.022  1.00  0.00    -0.163 NA 
HETATM   20  H1  UNL     1      -5.120  18.193  66.807  1.00  0.00     0.000 HD 
ENDBRANCH  16  17
ENDBRANCH  14  16
ENDBRANCH  12  14
ENDBRANCH  10  12
ENDBRANCH   4  10
BRANCH   9  21
HETATM   21  C   UNL     1     -10.925  14.400  64.384  1.00  0.00    -0.153 C  
BRANCH  21  22
HETATM   22  C   UNL     1      -9.700  13.183  64.786  1.00  0.00     0.116 C  
HETATM   23  CA  UNL     1      -8.069  13.278  65.791  1.00  0.00     2.612 C  
HETATM   24  C   UNL     1      -7.346  11.695  67.668  1.00  0.00    -0.108 C  
HETATM   25  C   UNL     1     -10.346  11.569  64.074  1.00  0.00    -0.406 C  
HETATM   26  C   UNL     1      -7.080  14.747  66.510  1.00  0.00     1.922 C  
HETATM   27  N   UNL     1      -7.182  11.997  66.303  1.00  0.00     0.435 N  
HETATM   28  O   UNL     1      -7.644  12.351  68.658  1.00  0.00    -0.116 OA 
HETATM   29  S   UNL     1      -9.152   9.730  64.576  1.00  0.00    -0.242 SA 
HETATM   30  C   UNL     1      -7.469  10.448  65.894  1.00  0.00    -0.139 C  
HETATM   31  O   UNL     1      -7.068  15.820  65.824  1.00  0.00     1.813 OA 
HETATM   32  OXT UNL     1      -6.366  14.401  67.485  1.00  0.00    -0.295 OA 
HETATM   33  CA  UNL     1      -7.730  10.229  67.437  1.00  0.00    -0.095 C  
BRANCH  33  34
HETATM   34  N   UNL     1      -9.105   9.909  67.950  1.00  0.00    -0.131 N  
HETATM   35  C   UNL     1     -10.039  10.689  68.648  1.00  0.00    -0.183 C  
HETATM   36  H   UNL     1      -9.415   8.956  67.756  1.00  0.00     0.000 HD 
HETATM   37  O   UNL     1     -11.099  10.112  68.889  1.00  0.00    -0.231 OA 
BRANCH  35  38
HETATM   38  C   UNL     1      -9.871  12.202  69.114  1.00  0.00     0.361 C  
HETATM   39  C   UNL     1      -8.659  12.679  69.737  1.00  0.00     2.422 C  
HETATM   40  C   UNL     1      -6.273  14.133  71.111  1.00  0.00     0.024 C  
HETATM   41  N   UNL     1      -7.517  11.515  69.577  1.00  0.00     0.104 NA 
HETATM   42  N   UNL     1      -5.273  15.047  71.290  1.00  0.00    -0.138 NA 
HETATM   43  H   UNL     1      -8.485  15.092  70.703  1.00  0.00     0.000 HD 
HETATM   44  S   UNL     1      -5.418  11.996  70.649  1.00  0.00    -0.148 SA 
HETATM   45  H1  UNL     1      -5.644  15.975  71.491  1.00  0.00     0.000 HD 
HETATM   46  H2  UNL     1      -4.279  14.828  71.231  1.00  0.00     0.000 HD 
HETATM   47  N   UNL     1      -7.934  14.243  70.576  1.00  0.00     1.634 NA 
BRANCH  38  48
HETATM   48  N   UNL     1     -10.690  13.162  68.854  1.00  0.00    -0.367 NA 
HETATM   49  H   UNL     1     -10.387  13.956  68.290  1.00  0.00     0.000 HD 
BRANCH  48  50
HETATM   50  O   UNL     1     -11.962  13.110  69.337  1.00  0.00    -0.307 OA 
HETATM   51  O   UNL     1     -11.468  13.326  72.838  1.00  0.00     3.548 OA 
HETATM   52  C   UNL     1     -11.701  12.940  71.699  1.00  0.00     2.033 C  
HETATM   53  C   UNL     1     -13.484  14.259  70.697  1.00  0.00     0.045 C  
HETATM   54  C   UNL     1     -10.869  14.979  70.818  1.00  0.00    -0.112 C  
HETATM   55  C   UNL     1     -12.002  13.895  70.557  1.00  0.00    -0.314 C  
HETATM   56  O   UNL     1     -11.712  11.636  71.361  1.00  0.00     0.572 OA 
ENDBRANCH  48  50
ENDBRANCH  38  48
ENDBRANCH  35  38
ENDBRANCH  33  34
ENDBRANCH  21  22
ENDBRANCH   9  21
TORSDOF 11
ENDMDL
MODEL      164
REMARK 921   NORMALIZED FREE ENERGY PREDICTED BY IDOCK:   20.06 KCAL/MOL
REMARK 922        TOTAL FREE ENERGY PREDICTED BY IDOCK:   29.18 KCAL/MOL
REMARK 923 INTER-LIGAND FREE ENERGY PREDICTED BY IDOCK:    1.96 KCAL/MOL
REMARK 924 INTRA-LIGAND FREE ENERGY PREDICTED BY IDOCK:   27.22 KCAL/MOL
REMARK 927      BINDING AFFINITY PREDICTED BY RF-SCORE:    0.00 PKD
ROOT
HETATM    1  C   UNL     1     -11.521   4.831  69.042  1.00  0.00     4.321 C  
HETATM    2  N   UNL     1     -10.398   5.088  69.920  1.00  0.00    -0.273 NA 
HETATM    3  C   UNL     1     -10.499   5.647  71.184  1.00  0.00    -0.241 A  
HETATM    4  C   UNL     1      -9.363   6.438  71.465  1.00  0.00    -0.148 A  
HETATM    5  N   UNL     1     -11.545   5.508  72.034  1.00  0.00    -0.080 NA 
HETATM    6  C   UNL     1      -8.629   6.352  70.227  1.00  0.00    -0.135 A  
HETATM    7  H2  UNL     1     -12.330   4.941  71.714  1.00  0.00     0.000 HD 
HETATM    8  H1  UNL     1     -11.620   5.919  72.964  1.00  0.00     0.000 HD 
HETATM    9  N   UNL     1      -9.129   5.245  69.489  1.00  0.00    -0.109 NA 
ENDROOT
BRANCH   4  10
HETATM   10  N   UNL     1      -9.262   7.150  72.647  1.00  0.00    -0.137 N  
HETATM   11  H   UNL     1      -8.673   6.749  73.376  1.00  0.00     0.000 HD 
BRANCH  10  12
HETATM   12  C   UNL     1      -9.872   8.333  72.933  1.00  0.00    -0.233 C  
HETATM   13  O   UNL     1      -9.292   9.155  73.632  1.00  0.00     1.176 OA 
BRANCH  12  14
HETATM   14  N   UNL     1     -11.173   8.424  72.540  1.00  0.00    -0.368 N  
HETATM   15  H   UNL     1     -11.807   7.636  72.669  1.00  0.00     0.000 HD 
BRANCH  14  16
HETATM   16  C   UNL     1     -11.646   9.657  71.933  1.00  0.00    -0.097 C  
BRANCH  16  17
HETATM   17  C   UNL     1     -13.100   9.975  72.303  1.00  0.00    -0.291 C  
HETATM   18  H2  UNL     1     -13.433   8.114  73.134  1.00  0.00     0.000 HD 
HETATM   19  N   UNL     1     -13.866   8.748  72.461  1.00  0.00    -0.641 NA 
HETATM   20  H1  UNL     1     -14.833   8.959  72.708  1.00  0.00     0.000 HD 
ENDBRANCH  16  17
ENDBRANCH  14  16
ENDBRANCH  12  14
ENDBRANCH  10  12
ENDBRANCH   4  10
BRANCH   9  21
HETATM   21  C   UNL     1      -8.608   4.485  68.314  1.00  0.00    -0.098 C  
BRANCH  21  22
HETATM   22  C   UNL     1      -7.393   5.245  67.268  1.00  0.00    -0.083 C  
HETATM   23  CA  UNL     1      -6.689   4.764  65.550  1.00  0.00    -0.052 C  
HETATM   24  C   UNL     1      -6.464   6.300  63.515  1.00  0.00    -0.029 C  
HETATM   25  C   UNL     1      -6.894   6.827  68.149  1.00  0.00    -0.078 C  
HETATM   26  C   UNL     1      -6.872   3.196  64.473  1.00  0.00    -0.041 C  
HETATM   27  N   UNL     1      -5.764   5.721  64.590  1.00  0.00    -0.023 N  
HETATM   28  O   UNL     1      -7.453   5.981  62.867  1.00  0.00    -0.054 OA 
HETATM   29  S   UNL     1      -5.510   8.187  67.011  1.00  0.00    -0.037 SA 
HETATM   30  C   UNL     1      -5.169   7.171  65.026  1.00  0.00    -0.028 C  
HETATM   31  O   UNL     1      -6.937   2.082  65.088  1.00  0.00    -0.041 OA 
HETATM   32  OXT UNL     1      -6.683   3.437  63.254  1.00  0.00    -0.029 OA 
HETATM   33  CA  UNL     1      -6.066   7.741  63.856  1.00  0.00    -0.057 C  
BRANCH  33  34
HETATM   34  N   UNL     1      -7.255   8.611  64.149  1.00  0.00    -0.090 N  
HETATM   35  C   UNL     1      -8.384   8.398  64.953  1.00  0.00    -0.149 C  
HETATM   36  H   UNL     1      -7.239   9.516  63.679  1.00  0.00     0.000 HD 
HETATM   37  O   UNL     1      -9.162   9.350  64.993  1.00  0.00    -0.241 OA 
BRANCH  35  38
HETATM   38  C   UNL     1      -8.723   7.099  65.810  1.00  0.00    -0.107 C  
HETATM   39  C   UNL     1      -9.375   5.949  65.227  1.00  0.00     0.320 C  
HETATM   40  C   UNL     1     -10.760   3.282  64.416  1.00  0.00     0.102 C  
HETATM   41  N   UNL     1      -9.391   6.148  63.601  1.00  0.00     1.351 NA 
HETATM   42  N   UNL     1     -10.919   1.938  64.224  1.00  0.00    -0.015 NA 
HETATM   43  H   UNL     1     -10.132   3.931  66.688  1.00  0.00     0.000 HD 
HETATM   44  S   UNL     1     -10.543   4.427  62.378  1.00  0.00     0.127 SA 
HETATM   45  H1  UNL     1     -11.013   1.440  65.109  1.00  0.00     0.000 HD 
HETATM   46  H2  UNL     1     -10.941   1.489  63.308  1.00  0.00     0.000 HD 
HETATM   47  N   UNL     1     -10.115   4.251  65.720  1.00  0.00    -0.227 NA 
BRANCH  38  48
HETATM   48  N   UNL     1      -8.329   6.871  67.015  1.00  0.00    -0.119 NA 
HETATM   49  H   UNL     1      -8.025   5.936  67.286  1.00  0.00     0.000 HD 
BRANCH  48  50
HETATM   50  O   UNL     1      -8.321   7.885  67.923  1.00  0.00    -0.124 OA 
HETATM   51  O   UNL     1     -10.994   9.931  66.821  1.00  0.00    -0.089 OA 
HETATM   52  C   UNL     1      -9.891   9.464  67.075  1.00  0.00    -0.201 C  
HETATM   53  C   UNL     1      -9.678   9.019  69.459  1.00  0.00    -0.171 C  
HETATM   54  C   UNL     1     -10.882   7.388  67.652  1.00  0.00    -0.220 C  
HETATM   55  C   UNL     1      -9.688   8.345  68.082  1.00  0.00    -0.155 C  
HETATM   56  O   UNL     1      -8.762   9.903  66.485  1.00  0.00    -0.127 OA 
ENDBRANCH  48  50
ENDBRANCH  38  48
ENDBRANCH  35  38
ENDBRANCH  33  34
ENDBRANCH  21  22
ENDBRANCH   9  21
TORSDOF 11
ENDMDL
MODEL      165
REMARK 921   NORMALIZED FREE ENERGY PREDICTED BY IDOCK:   20.37 KCAL/MOL
REMARK 922        TOTAL FREE ENERGY PREDICTED BY IDOCK:   29.68 KCAL/MOL
REMARK 923 INTER-LIGAND FREE ENERGY PREDICTED BY IDOCK:   -0.89 KCAL/MOL
REMARK 924 INTRA-LIGAND FREE ENERGY PREDICTED BY IDOCK:   30.57 KCAL/MOL
REMARK 927      BINDING AFFINITY PREDICTED BY RF-SCORE:    0.00 PKD
ROOT
HETATM    1  C   UNL     1      -7.641   9.971  63.380  1.00  0.00    -0.142 C  
HETATM    2  N   UNL     1      -7.915   9.535  64.735  1.00  0.00    -0.116 NA 
HETATM    3  C   UNL     1      -8.414   8.289  65.074  1.00  0.00    -0.123 A  
HETATM    4  C   UNL     1      -9.246   8.384  66.212  1.00  0.00    -0.208 A  
HETATM    5  N   UNL     1      -8.190   7.132  64.405  1.00  0.00    -0.322 NA 
HETATM    6  C   UNL     1      -9.246   9.806  66.459  1.00  0.00    -0.156 A  
HETATM    7  H2  UNL     1      -7.600   7.184  63.575  1.00  0.00     0.000 HD 
HETATM    8  H1  UNL     1      -8.557   6.214  64.655  1.00  0.00     0.000 HD 
HETATM    9  N   UNL     1      -8.149  10.379  65.761  1.00  0.00    -0.150 NA 
ENDROOT
BRANCH   4  10
HETATM   10  N   UNL     1      -9.911   7.277  66.707  1.00  0.00    -0.285 N  
HETATM   11  H   UNL     1     -10.905   7.203  66.491  1.00  0.00     0.000 HD 
BRANCH  10  12
HETATM   12  C   UNL     1      -9.372   6.277  67.455  1.00  0.00    -0.113 C  
HETATM   13  O   UNL     1      -8.376   5.690  67.047  1.00  0.00    -0.108 OA 
BRANCH  12  14
HETATM   14  N   UNL     1     -10.106   5.903  68.539  1.00  0.00    -0.154 N  
HETATM   15  H   UNL     1     -10.850   6.505  68.891  1.00  0.00     0.000 HD 
BRANCH  14  16
HETATM   16  C   UNL     1      -9.818   4.635  69.190  1.00  0.00    -0.172 C  
BRANCH  16  17
HETATM   17  C   UNL     1      -9.781   3.462  68.203  1.00  0.00     0.016 C  
HETATM   18  H2  UNL     1      -8.600   2.296  69.431  1.00  0.00     0.000 HD 
HETATM   19  N   UNL     1      -8.627   2.614  68.462  1.00  0.00    -0.073 NA 
HETATM   20  H1  UNL     1      -8.602   1.833  67.807  1.00  0.00     0.000 HD 
ENDBRANCH  16  17
ENDBRANCH  14  16
ENDBRANCH  12  14
ENDBRANCH  10  12
ENDBRANCH   4  10
BRANCH   9  21
HETATM   21  C   UNL     1      -7.465  11.703  65.851  1.00  0.00     0.584 C  
BRANCH  21  22
HETATM   22  C   UNL     1      -8.148  12.955  66.907  1.00  0.00     0.028 C  
HETATM   23  CA  UNL     1      -9.489  14.295  66.619  1.00  0.00    -0.286 C  
HETATM   24  C   UNL     1     -11.502  14.779  68.123  1.00  0.00    -0.323 C  
HETATM   25  C   UNL     1      -7.332  12.697  68.579  1.00  0.00    -0.115 C  
HETATM   26  C   UNL     1     -10.390  14.901  65.046  1.00  0.00    -0.370 C  
HETATM   27  N   UNL     1     -10.203  15.203  67.783  1.00  0.00    -0.235 N  
HETATM   28  O   UNL     1     -12.391  14.186  67.527  1.00  0.00    -0.296 OA 
HETATM   29  S   UNL     1      -8.112  13.975  70.257  1.00  0.00     2.371 SA 
HETATM   30  C   UNL     1      -9.763  15.216  69.348  1.00  0.00    -0.202 C  
HETATM   31  O   UNL     1      -9.709  14.928  63.969  1.00  0.00     1.685 OA 
HETATM   32  OXT UNL     1     -11.504  15.418  65.312  1.00  0.00    -0.271 OA 
HETATM   33  CA  UNL     1     -11.211  14.648  69.623  1.00  0.00    -0.272 C  
BRANCH  33  34
HETATM   34  N   UNL     1     -11.409  13.246  70.125  1.00  0.00    -0.491 N  
HETATM   35  C   UNL     1     -11.002  12.009  69.604  1.00  0.00     0.098 C  
HETATM   36  H   UNL     1     -11.932  13.182  70.998  1.00  0.00     0.000 HD 
HETATM   37  O   UNL     1     -11.311  11.042  70.300  1.00  0.00    -0.284 OA 
BRANCH  35  38
HETATM   38  C   UNL     1     -10.184  11.753  68.263  1.00  0.00    -0.205 C  
HETATM   39  C   UNL     1     -10.782  11.923  66.959  1.00  0.00    -0.240 C  
HETATM   40  C   UNL     1     -11.644  12.147  63.976  1.00  0.00    -0.423 C  
HETATM   41  N   UNL     1     -12.230  12.662  67.161  1.00  0.00    -0.406 NA 
HETATM   42  N   UNL     1     -11.638  12.577  62.679  1.00  0.00    -0.141 NA 
HETATM   43  H   UNL     1      -9.506  11.277  64.783  1.00  0.00     0.000 HD 
HETATM   44  S   UNL     1     -13.512  12.954  65.147  1.00  0.00     1.881 SA 
HETATM   45  H1  UNL     1     -10.827  12.226  62.170  1.00  0.00     0.000 HD 
HETATM   46  H2  UNL     1     -12.357  13.174  62.270  1.00  0.00     0.000 HD 
HETATM   47  N   UNL     1     -10.392  11.668  65.099  1.00  0.00    -0.266 NA 
BRANCH  38  48
HETATM   48  N   UNL     1      -8.916  11.536  68.187  1.00  0.00    -0.166 NA 
HETATM   49  H   UNL     1      -8.485  11.328  67.286  1.00  0.00     0.000 HD 
BRANCH  48  50
HETATM   50  O   UNL     1      -8.156  11.586  69.316  1.00  0.00     0.058 OA 
HETATM   51  O   UNL     1      -8.096   8.200  70.355  1.00  0.00    -0.103 OA 
HETATM   52  C   UNL     1      -8.322   9.399  70.247  1.00  0.00    -0.195 C  
HETATM   53  C   UNL     1      -6.246  10.669  70.315  1.00  0.00    -0.139 C  
HETATM   54  C   UNL     1      -7.263   9.426  68.125  1.00  0.00    -0.078 C  
HETATM   55  C   UNL     1      -7.445  10.325  69.423  1.00  0.00    -0.128 C  
HETATM   56  O   UNL     1      -9.366  10.000  70.851  1.00  0.00     0.148 OA 
ENDBRANCH  48  50
ENDBRANCH  38  48
ENDBRANCH  35  38
ENDBRANCH  33  34
ENDBRANCH  21  22
ENDBRANCH   9  21
TORSDOF 11
ENDMDL
MODEL      166
REMARK 921   NORMALIZED FREE ENERGY PREDICTED BY IDOCK:   20.45 KCAL/MOL
REMARK 922        TOTAL FREE ENERGY PREDICTED BY IDOCK:   29.82 KCAL/MOL
REMARK 923 INTER-LIGAND FREE ENERGY PREDICTED BY IDOCK:    6.39 KCAL/MOL
REMARK 924 INTRA-LIGAND FREE ENERGY PREDICTED BY IDOCK:   23.43 KCAL/MOL
REMARK 927      BINDING AFFINITY PREDICTED BY RF-SCORE:    0.00 PKD
ROOT
HETATM    1  C   UNL     1     -13.706   8.339  69.498  1.00  0.00     6.131 C  
HETATM    2  N   UNL     1     -12.317   7.952  69.641  1.00  0.00     1.467 NA 
HETATM    3  C   UNL     1     -11.847   6.654  69.532  1.00  0.00     0.081 A  
HETATM    4  C   UNL     1     -10.749   6.453  70.398  1.00  0.00    -0.262 A  
HETATM    5  N   UNL     1     -12.372   5.680  68.749  1.00  0.00     4.040 NA 
HETATM    6  C   UNL     1     -10.669   7.724  71.074  1.00  0.00    -0.228 A  
HETATM    7  H2  UNL     1     -13.188   5.926  68.188  1.00  0.00     0.000 HD 
HETATM    8  H1  UNL     1     -12.026   4.724  68.668  1.00  0.00     0.000 HD 
HETATM    9  N   UNL     1     -11.402   8.678  70.317  1.00  0.00    -0.194 NA 
ENDROOT
BRANCH   4  10
HETATM   10  N   UNL     1     -10.145   5.213  70.512  1.00  0.00    -0.238 N  
HETATM   11  H   UNL     1     -10.374   4.665  71.341  1.00  0.00     0.000 HD 
BRANCH  10  12
HETATM   12  C   UNL     1      -9.276   4.653  69.628  1.00  0.00    -0.124 C  
HETATM   13  O   UNL     1      -8.379   3.930  70.043  1.00  0.00    -0.056 OA 
BRANCH  12  14
HETATM   14  N   UNL     1      -9.392   5.092  68.344  1.00  0.00    -0.117 N  
HETATM   15  H   UNL     1      -9.184   6.063  68.111  1.00  0.00     0.000 HD 
BRANCH  14  16
HETATM   16  C   UNL     1      -9.815   4.162  67.310  1.00  0.00    -0.123 C  
BRANCH  16  17
HETATM   17  C   UNL     1      -8.764   3.083  67.023  1.00  0.00    -0.126 C  
HETATM   18  H2  UNL     1     -10.150   1.747  66.276  1.00  0.00     0.000 HD 
HETATM   19  N   UNL     1      -9.388   1.770  66.954  1.00  0.00    -0.350 NA 
HETATM   20  H1  UNL     1      -8.689   1.052  66.762  1.00  0.00     0.000 HD 
ENDBRANCH  16  17
ENDBRANCH  14  16
ENDBRANCH  12  14
ENDBRANCH  10  12
ENDBRANCH   4  10
BRANCH   9  21
HETATM   21  C   UNL     1     -11.450  10.170  70.331  1.00  0.00    -0.322 C  
BRANCH  21  22
HETATM   22  C   UNL     1     -10.305  11.078  69.325  1.00  0.00    -0.181 C  
HETATM   23  CA  UNL     1     -10.327  12.871  68.645  1.00  0.00    -0.188 C  
HETATM   24  C   UNL     1      -8.428  14.579  68.801  1.00  0.00    -0.145 C  
HETATM   25  C   UNL     1      -8.849   9.922  69.059  1.00  0.00    -0.156 C  
HETATM   26  C   UNL     1     -11.678  14.223  68.613  1.00  0.00    -0.345 C  
HETATM   27  N   UNL     1      -9.060  13.650  67.953  1.00  0.00    -0.189 N  
HETATM   28  O   UNL     1      -8.795  15.255  69.753  1.00  0.00    -0.191 OA 
HETATM   29  S   UNL     1      -7.076  10.810  67.995  1.00  0.00    -0.083 SA 
HETATM   30  C   UNL     1      -7.632  12.959  67.594  1.00  0.00    -0.156 C  
HETATM   31  O   UNL     1     -12.879  13.830  68.450  1.00  0.00     0.683 OA 
HETATM   32  OXT UNL     1     -11.186  15.377  68.536  1.00  0.00    -0.282 OA 
HETATM   33  CA  UNL     1      -7.027  13.978  68.639  1.00  0.00    -0.106 C  
BRANCH  33  34
HETATM   34  N   UNL     1      -6.454  13.500  69.942  1.00  0.00    -0.318 N  
HETATM   35  C   UNL     1      -5.928  12.257  70.323  1.00  0.00    -0.138 C  
HETATM   36  H   UNL     1      -6.447  14.204  70.681  1.00  0.00     0.000 HD 
HETATM   37  O   UNL     1      -5.509  12.219  71.480  1.00  0.00    -0.378 OA 
BRANCH  35  38
HETATM   38  C   UNL     1      -5.801  10.950  69.423  1.00  0.00    -0.045 C  
HETATM   39  C   UNL     1      -5.732   9.628  70.001  1.00  0.00    -0.041 C  
HETATM   40  C   UNL     1      -5.541   6.624  70.792  1.00  0.00    -0.023 C  
HETATM   41  N   UNL     1      -6.094   9.755  71.594  1.00  0.00    -0.293 NA 
HETATM   42  N   UNL     1      -5.875   5.300  70.852  1.00  0.00    -0.020 NA 
HETATM   43  H   UNL     1      -5.291   7.523  68.532  1.00  0.00     0.000 HD 
HETATM   44  S   UNL     1      -5.924   7.705  72.841  1.00  0.00    -0.049 SA 
HETATM   45  H1  UNL     1      -5.709   4.830  69.962  1.00  0.00     0.000 HD 
HETATM   46  H2  UNL     1      -6.245   4.839  71.683  1.00  0.00     0.000 HD 
HETATM   47  N   UNL     1      -5.466   7.797  69.499  1.00  0.00    -0.023 NA 
BRANCH  38  48
HETATM   48  N   UNL     1      -5.906  10.910  68.140  1.00  0.00    -0.046 NA 
HETATM   49  H   UNL     1      -6.444  11.623  67.647  1.00  0.00     0.000 HD 
BRANCH  48  50
HETATM   50  O   UNL     1      -5.295   9.910  67.445  1.00  0.00    -0.038 OA 
HETATM   51  O   UNL     1      -8.038   8.134  66.077  1.00  0.00    -0.101 OA 
HETATM   52  C   UNL     1      -7.077   8.490  66.747  1.00  0.00    -0.074 C  
HETATM   53  C   UNL     1      -5.156   8.937  65.320  1.00  0.00    -0.037 C  
HETATM   54  C   UNL     1      -7.197  10.662  65.802  1.00  0.00    -0.104 C  
HETATM   55  C   UNL     1      -6.132   9.593  66.303  1.00  0.00    -0.064 C  
HETATM   56  O   UNL     1      -6.772   7.932  67.936  1.00  0.00    -0.063 OA 
ENDBRANCH  48  50
ENDBRANCH  38  48
ENDBRANCH  35  38
ENDBRANCH  33  34
ENDBRANCH  21  22
ENDBRANCH   9  21
TORSDOF 11
ENDMDL
MODEL      167
REMARK 921   NORMALIZED FREE ENERGY PREDICTED BY IDOCK:   20.56 KCAL/MOL
REMARK 922        TOTAL FREE ENERGY PREDICTED BY IDOCK:   29.99 KCAL/MOL
REMARK 923 INTER-LIGAND FREE ENERGY PREDICTED BY IDOCK:    1.06 KCAL/MOL
REMARK 924 INTRA-LIGAND FREE ENERGY PREDICTED BY IDOCK:   28.93 KCAL/MOL
REMARK 927      BINDING AFFINITY PREDICTED BY RF-SCORE:    0.00 PKD
ROOT
HETATM    1  C   UNL     1      -6.250   5.294  68.189  1.00  0.00    -0.034 C  
HETATM    2  N   UNL     1      -7.693   5.209  68.091  1.00  0.00    -0.083 NA 
HETATM    3  C   UNL     1      -8.376   4.266  67.341  1.00  0.00    -0.099 A  
HETATM    4  C   UNL     1      -9.570   4.817  66.825  1.00  0.00    -0.173 A  
HETATM    5  N   UNL     1      -7.963   3.001  67.084  1.00  0.00    -0.078 NA 
HETATM    6  C   UNL     1      -9.484   6.184  67.279  1.00  0.00    -0.114 A  
HETATM    7  H2  UNL     1      -7.066   2.717  67.478  1.00  0.00     0.000 HD 
HETATM    8  H1  UNL     1      -8.465   2.307  66.532  1.00  0.00     0.000 HD 
HETATM    9  N   UNL     1      -8.522   6.247  68.323  1.00  0.00    -0.115 NA 
ENDROOT
BRANCH   4  10
HETATM   10  N   UNL     1     -10.395   4.084  65.991  1.00  0.00    -0.417 N  
HETATM   11  H   UNL     1     -10.412   3.074  66.133  1.00  0.00     0.000 HD 
BRANCH  10  12
HETATM   12  C   UNL     1     -11.187   4.576  65.000  1.00  0.00     0.287 C  
HETATM   13  O   UNL     1     -11.928   5.522  65.236  1.00  0.00     2.008 OA 
BRANCH  12  14
HETATM   14  N   UNL     1     -11.198   3.845  63.851  1.00  0.00    -0.189 N  
HETATM   15  H   UNL     1     -12.018   3.851  63.244  1.00  0.00     0.000 HD 
BRANCH  14  16
HETATM   16  C   UNL     1     -10.029   3.055  63.501  1.00  0.00    -0.146 C  
BRANCH  16  17
HETATM   17  C   UNL     1      -8.912   3.901  62.877  1.00  0.00    -0.106 C  
HETATM   18  H2  UNL     1      -9.963   5.668  63.071  1.00  0.00     0.000 HD 
HETATM   19  N   UNL     1      -9.449   5.150  62.357  1.00  0.00    -0.356 NA 
HETATM   20  H1  UNL     1      -8.706   5.713  61.943  1.00  0.00     0.000 HD 
ENDBRANCH  16  17
ENDBRANCH  14  16
ENDBRANCH  12  14
ENDBRANCH  10  12
ENDBRANCH   4  10
BRANCH   9  21
HETATM   21  C   UNL     1      -8.208   7.277  69.357  1.00  0.00    -0.131 C  
BRANCH  21  22
HETATM   22  C   UNL     1      -7.713   8.898  68.835  1.00  0.00    -0.095 C  
HETATM   23  CA  UNL     1      -7.080   9.576  67.156  1.00  0.00    -0.086 C  
HETATM   24  C   UNL     1      -7.948  11.646  65.927  1.00  0.00     0.379 C  
HETATM   25  C   UNL     1      -8.014  10.014  70.317  1.00  0.00    -0.039 C  
HETATM   26  C   UNL     1      -6.544   8.713  65.537  1.00  0.00    -0.063 C  
HETATM   27  N   UNL     1      -6.922  11.159  66.759  1.00  0.00    -0.129 N  
HETATM   28  O   UNL     1      -8.693  11.136  65.101  1.00  0.00    -0.121 OA 
HETATM   29  S   UNL     1      -7.702  12.213  69.966  1.00  0.00     2.460 SA 
HETATM   30  C   UNL     1      -7.127  12.398  67.792  1.00  0.00    -0.120 C  
HETATM   31  O   UNL     1      -5.938   7.599  65.654  1.00  0.00    -0.037 OA 
HETATM   32  OXT UNL     1      -6.662   9.470  64.540  1.00  0.00    -0.087 OA 
HETATM   33  CA  UNL     1      -8.326  12.811  66.849  1.00  0.00    -0.058 C  
BRANCH  33  34
HETATM   34  N   UNL     1      -9.748  12.727  67.326  1.00  0.00    -0.202 N  
HETATM   35  C   UNL     1     -10.605  11.630  67.497  1.00  0.00    -0.209 C  
HETATM   36  H   UNL     1     -10.164  13.627  67.568  1.00  0.00     0.000 HD 
HETATM   37  O   UNL     1     -11.714  11.921  67.944  1.00  0.00    -0.404 OA 
BRANCH  35  38
HETATM   38  C   UNL     1     -10.277  10.099  67.205  1.00  0.00    -0.222 C  
HETATM   39  C   UNL     1      -9.827   9.648  65.909  1.00  0.00    -0.288 C  
HETATM   40  C   UNL     1      -8.857   8.235  63.311  1.00  0.00     0.526 C  
HETATM   41  N   UNL     1      -9.469  10.971  65.011  1.00  0.00    -0.225 NA 
HETATM   42  N   UNL     1      -8.054   7.495  62.488  1.00  0.00    -0.220 NA 
HETATM   43  H   UNL     1      -9.521   7.116  65.382  1.00  0.00     0.000 HD 
HETATM   44  S   UNL     1      -8.813  10.512  62.742  1.00  0.00    -0.281 SA 
HETATM   45  H1  UNL     1      -8.073   6.506  62.735  1.00  0.00     0.000 HD 
HETATM   46  H2  UNL     1      -7.504   7.885  61.723  1.00  0.00     0.000 HD 
HETATM   47  N   UNL     1      -9.418   8.037  64.955  1.00  0.00     1.027 NA 
BRANCH  38  48
HETATM   48  N   UNL     1     -10.221   9.163  68.088  1.00  0.00    -0.198 NA 
HETATM   49  H   UNL     1      -9.392   8.572  68.155  1.00  0.00     0.000 HD 
BRANCH  48  50
HETATM   50  O   UNL     1     -11.273   8.967  68.930  1.00  0.00     0.076 OA 
HETATM   51  O   UNL     1     -10.730   5.663  70.086  1.00  0.00    -0.296 OA 
HETATM   52  C   UNL     1     -11.152   6.660  69.514  1.00  0.00    -0.322 C  
HETATM   53  C   UNL     1     -11.810   8.360  71.127  1.00  0.00    -0.314 C  
HETATM   54  C   UNL     1      -9.277   7.905  70.260  1.00  0.00    -0.152 C  
HETATM   55  C   UNL     1     -10.833   8.069  69.982  1.00  0.00    -0.235 C  
HETATM   56  O   UNL     1     -11.937   6.594  68.420  1.00  0.00     0.740 OA 
ENDBRANCH  48  50
ENDBRANCH  38  48
ENDBRANCH  35  38
ENDBRANCH  33  34
ENDBRANCH  21  22
ENDBRANCH   9  21
TORSDOF 11
ENDMDL
MODEL      168
REMARK 921   NORMALIZED FREE ENERGY PREDICTED BY IDOCK:   20.67 KCAL/MOL
REMARK 922        TOTAL FREE ENERGY PREDICTED BY IDOCK:   30.17 KCAL/MOL
REMARK 923 INTER-LIGAND FREE ENERGY PREDICTED BY IDOCK:    8.81 KCAL/MOL
REMARK 924 INTRA-LIGAND FREE ENERGY PREDICTED BY IDOCK:   21.36 KCAL/MOL
REMARK 927      BINDING AFFINITY PREDICTED BY RF-SCORE:    0.00 PKD
ROOT
HETATM    1  C   UNL     1      -6.518  13.652  70.542  1.00  0.00     0.196 C  
HETATM    2  N   UNL     1      -7.487  14.019  69.531  1.00  0.00     0.132 NA 
HETATM    3  C   UNL     1      -8.391  15.061  69.649  1.00  0.00    -0.009 A  
HETATM    4  C   UNL     1      -9.597  14.746  68.984  1.00  0.00    -0.178 A  
HETATM    5  N   UNL     1      -8.193  16.213  70.335  1.00  0.00     1.677 NA 
HETATM    6  C   UNL     1      -9.342  13.400  68.533  1.00  0.00    -0.097 A  
HETATM    7  H2  UNL     1      -7.296  16.322  70.808  1.00  0.00     0.000 HD 
HETATM    8  H1  UNL     1      -8.858  16.981  70.422  1.00  0.00     0.000 HD 
HETATM    9  N   UNL     1      -7.941  13.171  68.584  1.00  0.00    -0.084 NA 
ENDROOT
BRANCH   4  10
HETATM   10  N   UNL     1     -10.678  15.610  69.013  1.00  0.00    -0.223 N  
HETATM   11  H   UNL     1     -10.566  16.503  68.534  1.00  0.00     0.000 HD 
BRANCH  10  12
HETATM   12  C   UNL     1     -11.875  15.385  69.619  1.00  0.00    -0.347 C  
HETATM   13  O   UNL     1     -12.747  14.769  69.019  1.00  0.00     0.129 OA 
BRANCH  12  14
HETATM   14  N   UNL     1     -12.053  16.028  70.806  1.00  0.00    -0.502 N  
HETATM   15  H   UNL     1     -11.352  16.685  71.147  1.00  0.00     0.000 HD 
BRANCH  14  16
HETATM   16  C   UNL     1     -13.254  15.766  71.583  1.00  0.00    -0.386 C  
BRANCH  16  17
HETATM   17  C   UNL     1     -13.033  15.950  73.089  1.00  0.00    -0.549 C  
HETATM   18  H2  UNL     1     -10.984  16.126  72.900  1.00  0.00     0.000 HD 
HETATM   19  N   UNL     1     -11.666  15.603  73.450  1.00  0.00    -0.320 NA 
HETATM   20  H1  UNL     1     -11.519  15.726  74.452  1.00  0.00     0.000 HD 
ENDBRANCH  16  17
ENDBRANCH  14  16
ENDBRANCH  12  14
ENDBRANCH  10  12
ENDBRANCH   4  10
BRANCH   9  21
HETATM   21  C   UNL     1      -7.058  12.122  67.992  1.00  0.00    -0.096 C  
BRANCH  21  22
HETATM   22  C   UNL     1      -7.484  10.414  68.211  1.00  0.00    -0.090 C  
HETATM   23  CA  UNL     1      -7.292   9.217  69.696  1.00  0.00    -0.065 C  
HETATM   24  C   UNL     1      -9.110   7.707  70.677  1.00  0.00    -0.158 C  
HETATM   25  C   UNL     1      -8.332   9.903  66.614  1.00  0.00    -0.125 C  
HETATM   26  C   UNL     1      -6.375   9.370  71.367  1.00  0.00    -0.020 C  
HETATM   27  N   UNL     1      -7.985   7.737  69.831  1.00  0.00    -0.108 N  
HETATM   28  O   UNL     1      -9.473   8.369  71.641  1.00  0.00    -0.172 OA 
HETATM   29  S   UNL     1      -9.219   7.836  66.595  1.00  0.00    -0.186 SA 
HETATM   30  C   UNL     1      -8.816   6.991  68.648  1.00  0.00    -0.128 C  
HETATM   31  O   UNL     1      -5.275  10.013  71.360  1.00  0.00    -0.067 OA 
HETATM   32  OXT UNL     1      -6.868   8.617  72.244  1.00  0.00    -0.148 OA 
HETATM   33  CA  UNL     1     -10.048   7.092  69.631  1.00  0.00    -0.192 C  
BRANCH  33  34
HETATM   34  N   UNL     1     -11.217   7.982  69.316  1.00  0.00    -0.418 N  
HETATM   35  C   UNL     1     -11.674   8.517  68.103  1.00  0.00     2.158 C  
HETATM   36  H   UNL     1     -11.778   8.242  70.128  1.00  0.00     0.000 HD 
HETATM   37  O   UNL     1     -12.699   9.191  68.203  1.00  0.00     5.269 OA 
BRANCH  35  38
HETATM   38  C   UNL     1     -11.029   8.318  66.661  1.00  0.00     0.719 C  
HETATM   39  C   UNL     1     -10.473   7.053  66.241  1.00  0.00     0.438 C  
HETATM   40  C   UNL     1      -9.165   4.554  64.925  1.00  0.00    -0.156 C  
HETATM   41  N   UNL     1     -10.900   5.922  67.347  1.00  0.00    -0.283 NA 
HETATM   42  N   UNL     1      -8.966   3.550  64.019  1.00  0.00    -0.100 NA 
HETATM   43  H   UNL     1      -9.217   6.805  63.974  1.00  0.00     0.000 HD 
HETATM   44  S   UNL     1      -9.991   3.729  66.962  1.00  0.00     0.384 SA 
HETATM   45  H1  UNL     1      -8.607   3.908  63.134  1.00  0.00     0.000 HD 
HETATM   46  H2  UNL     1      -9.154   2.565  64.205  1.00  0.00     0.000 HD 
HETATM   47  N   UNL     1      -9.510   6.262  64.784  1.00  0.00     1.014 NA 
BRANCH  38  48
HETATM   48  N   UNL     1     -11.075   9.169  65.695  1.00  0.00     1.989 NA 
HETATM   49  H   UNL     1     -11.908   9.740  65.554  1.00  0.00     0.000 HD 
BRANCH  48  50
HETATM   50  O   UNL     1     -10.004   9.302  64.864  1.00  0.00     0.195 OA 
HETATM   51  O   UNL     1     -10.504  12.519  63.470  1.00  0.00    -0.420 OA 
HETATM   52  C   UNL     1     -10.428  11.311  63.656  1.00  0.00    -0.405 C  
HETATM   53  C   UNL     1      -8.186  10.697  64.379  1.00  0.00     0.010 C  
HETATM   54  C   UNL     1     -10.150  11.669  65.984  1.00  0.00    -0.259 C  
HETATM   55  C   UNL     1      -9.656  10.709  64.817  1.00  0.00    -0.280 C  
HETATM   56  O   UNL     1     -11.021  10.411  62.847  1.00  0.00     1.071 OA 
ENDBRANCH  48  50
ENDBRANCH  38  48
ENDBRANCH  35  38
ENDBRANCH  33  34
ENDBRANCH  21  22
ENDBRANCH   9  21
TORSDOF 11
ENDMDL
MODEL      169
REMARK 921   NORMALIZED FREE ENERGY PREDICTED BY IDOCK:   20.91 KCAL/MOL
REMARK 922        TOTAL FREE ENERGY PREDICTED BY IDOCK:   30.56 KCAL/MOL
REMARK 923 INTER-LIGAND FREE ENERGY PREDICTED BY IDOCK:    8.20 KCAL/MOL
REMARK 924 INTRA-LIGAND FREE ENERGY PREDICTED BY IDOCK:   22.37 KCAL/MOL
REMARK 927      BINDING AFFINITY PREDICTED BY RF-SCORE:    0.00 PKD
ROOT
HETATM    1  C   UNL     1     -10.164  11.234  69.334  1.00  0.00     0.051 C  
HETATM    2  N   UNL     1     -11.574  11.151  69.655  1.00  0.00    -0.295 NA 
HETATM    3  C   UNL     1     -12.116  10.297  70.601  1.00  0.00    -0.338 A  
HETATM    4  C   UNL     1     -13.406   9.878  70.205  1.00  0.00     0.418 A  
HETATM    5  N   UNL     1     -11.505   9.873  71.734  1.00  0.00    -0.130 NA 
HETATM    6  C   UNL     1     -13.535  10.502  68.911  1.00  0.00     4.654 A  
HETATM    7  H2  UNL     1     -10.559  10.212  71.905  1.00  0.00     0.000 HD 
HETATM    8  H1  UNL     1     -11.904   9.244  72.431  1.00  0.00     0.000 HD 
HETATM    9  N   UNL     1     -12.558  11.529  68.813  1.00  0.00    -0.006 NA 
ENDROOT
BRANCH   4  10
HETATM   10  N   UNL     1     -14.127   8.970  70.961  1.00  0.00    -0.531 N  
HETATM   11  H   UNL     1     -15.128   8.912  70.777  1.00  0.00     0.000 HD 
BRANCH  10  12
HETATM   12  C   UNL     1     -13.632   8.149  71.926  1.00  0.00    -0.330 C  
HETATM   13  O   UNL     1     -13.910   8.363  73.100  1.00  0.00     0.113 OA 
BRANCH  12  14
HETATM   14  N   UNL     1     -12.717   7.237  71.497  1.00  0.00    -0.370 N  
HETATM   15  H   UNL     1     -11.976   7.513  70.852  1.00  0.00     0.000 HD 
BRANCH  14  16
HETATM   16  C   UNL     1     -12.807   5.864  71.968  1.00  0.00     0.687 C  
BRANCH  16  17
HETATM   17  C   UNL     1     -11.709   5.516  72.981  1.00  0.00    -0.087 C  
HETATM   18  H2  UNL     1     -12.082   3.487  72.884  1.00  0.00     0.000 HD 
HETATM   19  N   UNL     1     -11.968   4.218  73.587  1.00  0.00    -0.080 NA 
HETATM   20  H1  UNL     1     -11.238   3.986  74.260  1.00  0.00     0.000 HD 
ENDBRANCH  16  17
ENDBRANCH  14  16
ENDBRANCH  12  14
ENDBRANCH  10  12
ENDBRANCH   4  10
BRANCH   9  21
HETATM   21  C   UNL     1     -12.384  12.682  67.880  1.00  0.00     0.403 C  
BRANCH  21  22
HETATM   22  C   UNL     1     -11.522  12.429  66.351  1.00  0.00    -0.427 C  
HETATM   23  CA  UNL     1      -9.680  12.641  65.858  1.00  0.00    -0.207 C  
HETATM   24  C   UNL     1      -8.230  10.930  64.625  1.00  0.00     0.171 C  
HETATM   25  C   UNL     1     -12.808  11.761  65.157  1.00  0.00     1.604 C  
HETATM   26  C   UNL     1      -8.183  13.410  66.762  1.00  0.00     0.189 C  
HETATM   27  N   UNL     1      -8.991  12.104  64.470  1.00  0.00     0.700 N  
HETATM   28  O   UNL     1      -7.614  10.428  65.556  1.00  0.00    -0.146 OA 
HETATM   29  S   UNL     1     -12.035  11.108  63.148  1.00  0.00     1.364 SA 
HETATM   30  C   UNL     1      -9.806  11.449  63.224  1.00  0.00    -0.404 C  
HETATM   31  O   UNL     1      -8.414  14.431  67.488  1.00  0.00    -0.167 OA 
HETATM   32  OXT UNL     1      -7.092  12.940  66.351  1.00  0.00     0.795 OA 
HETATM   33  CA  UNL     1      -8.973  10.144  63.538  1.00  0.00    -0.245 C  
BRANCH  33  34
HETATM   34  N   UNL     1      -9.641   8.912  64.078  1.00  0.00     0.340 N  
HETATM   35  C   UNL     1      -9.742   8.408  65.382  1.00  0.00     0.668 C  
HETATM   36  H   UNL     1     -10.103   8.340  63.370  1.00  0.00     0.000 HD 
HETATM   37  O   UNL     1     -10.401   7.372  65.474  1.00  0.00     1.607 OA 
BRANCH  35  38
HETATM   38  C   UNL     1      -9.131   9.043  66.708  1.00  0.00    -0.145 C  
HETATM   39  C   UNL     1      -9.410   8.495  68.016  1.00  0.00    -0.136 C  
HETATM   40  C   UNL     1      -9.738   7.677  71.001  1.00  0.00    -0.163 C  
HETATM   41  N   UNL     1     -10.153   7.049  67.810  1.00  0.00    -0.155 NA 
HETATM   42  N   UNL     1      -9.378   7.279  72.259  1.00  0.00    -0.138 NA 
HETATM   43  H   UNL     1      -8.596   9.680  70.188  1.00  0.00     0.000 HD 
HETATM   44  S   UNL     1     -10.854   5.968  69.841  1.00  0.00    -0.385 SA 
HETATM   45  H1  UNL     1      -8.893   8.021  72.763  1.00  0.00     0.000 HD 
HETATM   46  H2  UNL     1      -9.571   6.355  72.644  1.00  0.00     0.000 HD 
HETATM   47  N   UNL     1      -9.102   8.852  69.874  1.00  0.00    -0.154 NA 
BRANCH  38  48
HETATM   48  N   UNL     1      -8.235   9.967  66.754  1.00  0.00    -0.123 NA 
HETATM   49  H   UNL     1      -8.509  10.940  66.886  1.00  0.00     0.000 HD 
BRANCH  48  50
HETATM   50  O   UNL     1      -6.920   9.636  66.625  1.00  0.00    -0.083 OA 
HETATM   51  O   UNL     1      -5.858   9.365  69.993  1.00  0.00    -0.034 OA 
HETATM   52  C   UNL     1      -6.056   9.736  68.843  1.00  0.00    -0.041 C  
HETATM   53  C   UNL     1      -5.333   8.034  67.259  1.00  0.00    -0.036 C  
HETATM   54  C   UNL     1      -7.713   8.061  68.567  1.00  0.00    -0.106 C  
HETATM   55  C   UNL     1      -6.563   8.802  67.757  1.00  0.00    -0.061 C  
HETATM   56  O   UNL     1      -5.839  11.003  68.439  1.00  0.00    -0.043 OA 
ENDBRANCH  48  50
ENDBRANCH  38  48
ENDBRANCH  35  38
ENDBRANCH  33  34
ENDBRANCH  21  22
ENDBRANCH   9  21
TORSDOF 11
ENDMDL
MODEL      170
REMARK 921   NORMALIZED FREE ENERGY PREDICTED BY IDOCK:   22.07 KCAL/MOL
REMARK 922        TOTAL FREE ENERGY PREDICTED BY IDOCK:   32.49 KCAL/MOL
REMARK 923 INTER-LIGAND FREE ENERGY PREDICTED BY IDOCK:    4.40 KCAL/MOL
REMARK 924 INTRA-LIGAND FREE ENERGY PREDICTED BY IDOCK:   28.08 KCAL/MOL
REMARK 927      BINDING AFFINITY PREDICTED BY RF-SCORE:    0.00 PKD
ROOT
HETATM    1  C   UNL     1     -10.226  12.713  63.129  1.00  0.00     0.673 C  
HETATM    2  N   UNL     1     -10.030  12.358  64.519  1.00  0.00    -0.220 NA 
HETATM    3  C   UNL     1     -10.295  11.109  65.057  1.00  0.00    -0.301 A  
HETATM    4  C   UNL     1     -10.740  11.231  66.392  1.00  0.00    -0.267 A  
HETATM    5  N   UNL     1     -10.193   9.924  64.407  1.00  0.00    -0.316 NA 
HETATM    6  C   UNL     1     -10.782  12.663  66.559  1.00  0.00    -0.250 A  
HETATM    7  H2  UNL     1      -9.894   9.955  63.432  1.00  0.00     0.000 HD 
HETATM    8  H1  UNL     1     -10.387   9.005  64.802  1.00  0.00     0.000 HD 
HETATM    9  N   UNL     1     -10.006  13.255  65.526  1.00  0.00    -0.247 NA 
ENDROOT
BRANCH   4  10
HETATM   10  N   UNL     1     -11.125  10.121  67.122  1.00  0.00    -0.178 N  
HETATM   11  H   UNL     1     -12.116  10.042  67.350  1.00  0.00     0.000 HD 
BRANCH  10  12
HETATM   12  C   UNL     1     -10.314   9.124  67.568  1.00  0.00    -0.261 C  
HETATM   13  O   UNL     1     -10.647   7.957  67.402  1.00  0.00    -0.279 OA 
BRANCH  12  14
HETATM   14  N   UNL     1      -9.256   9.532  68.322  1.00  0.00    -0.130 N  
HETATM   15  H   UNL     1      -8.542  10.141  67.922  1.00  0.00     0.000 HD 
BRANCH  14  16
HETATM   16  C   UNL     1      -9.156   9.090  69.703  1.00  0.00    -0.154 C  
BRANCH  16  17
HETATM   17  C   UNL     1     -10.516   8.709  70.300  1.00  0.00    -0.210 C  
HETATM   18  H2  UNL     1     -10.503  10.265  71.658  1.00  0.00     0.000 HD 
HETATM   19  N   UNL     1     -10.655   9.256  71.641  1.00  0.00    -0.348 NA 
HETATM   20  H1  UNL     1     -11.560   9.003  72.039  1.00  0.00     0.000 HD 
ENDBRANCH  16  17
ENDBRANCH  14  16
ENDBRANCH  12  14
ENDBRANCH  10  12
ENDBRANCH   4  10
BRANCH   9  21
HETATM   21  C   UNL     1      -9.441  14.624  65.335  1.00  0.00     0.173 C  
BRANCH  21  22
HETATM   22  C   UNL     1      -7.979  15.084  66.228  1.00  0.00     0.916 C  
HETATM   23  CA  UNL     1      -7.212  16.789  66.655  1.00  0.00    -0.254 C  
HETATM   24  C   UNL     1      -6.428  17.568  68.963  1.00  0.00    -0.227 C  
HETATM   25  C   UNL     1      -7.243  13.471  66.847  1.00  0.00     0.688 C  
HETATM   26  C   UNL     1      -7.617  18.566  66.081  1.00  0.00    -0.239 C  
HETATM   27  N   UNL     1      -5.998  17.054  67.725  1.00  0.00    -0.127 N  
HETATM   28  O   UNL     1      -7.383  18.243  69.323  1.00  0.00    -0.179 OA 
HETATM   29  S   UNL     1      -5.475  13.665  68.224  1.00  0.00    -0.116 SA 
HETATM   30  C   UNL     1      -5.148  15.884  68.471  1.00  0.00    -0.095 C  
HETATM   31  O   UNL     1      -7.995  18.706  64.872  1.00  0.00     1.232 OA 
HETATM   32  OXT UNL     1      -7.245  19.428  66.917  1.00  0.00    -0.207 OA 
HETATM   33  CA  UNL     1      -5.760  16.473  69.803  1.00  0.00    -0.191 C  
BRANCH  33  34
HETATM   34  N   UNL     1      -6.752  15.686  70.611  1.00  0.00     0.483 N  
HETATM   35  C   UNL     1      -7.724  14.749  70.230  1.00  0.00     0.655 C  
HETATM   36  H   UNL     1      -6.712  15.864  71.615  1.00  0.00     0.000 HD 
HETATM   37  O   UNL     1      -8.354  14.264  71.169  1.00  0.00     3.197 OA 
BRANCH  35  38
HETATM   38  C   UNL     1      -8.055  14.254  68.753  1.00  0.00    -0.109 C  
HETATM   39  C   UNL     1      -7.427  13.085  68.181  1.00  0.00    -0.130 C  
HETATM   40  C   UNL     1      -6.331  10.670  66.553  1.00  0.00    -0.102 C  
HETATM   41  N   UNL     1      -6.633  12.301  69.381  1.00  0.00    -0.103 NA 
HETATM   42  N   UNL     1      -6.345   9.503  65.840  1.00  0.00    -0.073 NA 
HETATM   43  H   UNL     1      -7.801  12.423  65.691  1.00  0.00     0.000 HD 
HETATM   44  S   UNL     1      -5.379  10.372  68.678  1.00  0.00    -0.037 SA 
HETATM   45  H1  UNL     1      -6.759   9.632  64.917  1.00  0.00     0.000 HD 
HETATM   46  H2  UNL     1      -5.988   8.614  66.189  1.00  0.00     0.000 HD 
HETATM   47  N   UNL     1      -7.314  12.114  66.532  1.00  0.00     0.212 NA 
BRANCH  38  48
HETATM   48  N   UNL     1      -8.990  14.716  67.999  1.00  0.00    -0.168 NA 
HETATM   49  H   UNL     1      -9.383  14.138  67.256  1.00  0.00     0.000 HD 
BRANCH  48  50
HETATM   50  O   UNL     1      -9.453  15.982  68.199  1.00  0.00    -0.205 OA 
HETATM   51  O   UNL     1     -12.843  15.730  67.204  1.00  0.00     2.079 OA 
HETATM   52  C   UNL     1     -11.645  15.973  67.264  1.00  0.00     0.304 C  
HETATM   53  C   UNL     1     -11.122  17.200  69.300  1.00  0.00     0.262 C  
HETATM   54  C   UNL     1     -11.420  14.508  69.114  1.00  0.00    -0.324 C  
HETATM   55  C   UNL     1     -10.855  15.885  68.558  1.00  0.00    -0.298 C  
HETATM   56  O   UNL     1     -10.922  16.343  66.188  1.00  0.00    -0.126 OA 
ENDBRANCH  48  50
ENDBRANCH  38  48
ENDBRANCH  35  38
ENDBRANCH  33  34
ENDBRANCH  21  22
ENDBRANCH   9  21
TORSDOF 11
ENDMDL
MODEL      171
REMARK 921   NORMALIZED FREE ENERGY PREDICTED BY IDOCK:   23.28 KCAL/MOL
REMARK 922        TOTAL FREE ENERGY PREDICTED BY IDOCK:   34.47 KCAL/MOL
REMARK 923 INTER-LIGAND FREE ENERGY PREDICTED BY IDOCK:   -4.86 KCAL/MOL
REMARK 924 INTRA-LIGAND FREE ENERGY PREDICTED BY IDOCK:   39.33 KCAL/MOL
REMARK 927      BINDING AFFINITY PREDICTED BY RF-SCORE:    0.00 PKD
ROOT
HETATM    1  C   UNL     1     -10.858   9.704  70.184  1.00  0.00    -0.280 C  
HETATM    2  N   UNL     1      -9.944  10.154  69.154  1.00  0.00    -0.198 NA 
HETATM    3  C   UNL     1     -10.263  11.072  68.166  1.00  0.00    -0.182 A  
HETATM    4  C   UNL     1      -9.571  10.770  66.972  1.00  0.00    -0.169 A  
HETATM    5  N   UNL     1     -11.140  12.097  68.285  1.00  0.00    -0.225 NA 
HETATM    6  C   UNL     1      -8.882   9.554  67.329  1.00  0.00    -0.128 A  
HETATM    7  H2  UNL     1     -11.611  12.202  69.183  1.00  0.00     0.000 HD 
HETATM    8  H1  UNL     1     -11.375  12.772  67.558  1.00  0.00     0.000 HD 
HETATM    9  N   UNL     1      -8.869   9.449  68.746  1.00  0.00    -0.131 NA 
ENDROOT
BRANCH   4  10
HETATM   10  N   UNL     1      -9.772  11.511  65.821  1.00  0.00    -0.228 N  
HETATM   11  H   UNL     1     -10.209  11.030  65.035  1.00  0.00     0.000 HD 
BRANCH  10  12
HETATM   12  C   UNL     1      -9.445  12.819  65.634  1.00  0.00     0.052 C  
HETATM   13  O   UNL     1      -8.894  13.436  66.537  1.00  0.00    -0.126 OA 
BRANCH  12  14
HETATM   14  N   UNL     1      -9.923  13.377  64.488  1.00  0.00    -0.635 N  
HETATM   15  H   UNL     1      -9.460  14.186  64.076  1.00  0.00     0.000 HD 
BRANCH  14  16
HETATM   16  C   UNL     1     -11.103  12.807  63.859  1.00  0.00    -0.431 C  
BRANCH  16  17
HETATM   17  C   UNL     1     -12.388  13.095  64.645  1.00  0.00    -0.405 C  
HETATM   18  H2  UNL     1     -12.571  15.011  63.897  1.00  0.00     0.000 HD 
HETATM   19  N   UNL     1     -12.581  14.530  64.797  1.00  0.00    -0.583 NA 
HETATM   20  H1  UNL     1     -13.436  14.723  65.319  1.00  0.00     0.000 HD 
ENDBRANCH  16  17
ENDBRANCH  14  16
ENDBRANCH  12  14
ENDBRANCH  10  12
ENDBRANCH   4  10
BRANCH   9  21
HETATM   21  C   UNL     1      -8.084   8.608  69.698  1.00  0.00    -0.112 C  
BRANCH  21  22
HETATM   22  C   UNL     1      -7.040   7.326  69.055  1.00  0.00    -0.080 C  
HETATM   23  CA  UNL     1      -5.976   5.978  69.909  1.00  0.00    -0.025 C  
HETATM   24  C   UNL     1      -5.965   3.478  69.365  1.00  0.00    -0.023 C  
HETATM   25  C   UNL     1      -7.212   7.432  67.187  1.00  0.00    -0.089 C  
HETATM   26  C   UNL     1      -5.485   5.687  71.733  1.00  0.00    -0.020 C  
HETATM   27  N   UNL     1      -5.280   4.692  69.167  1.00  0.00    -0.003 N  
HETATM   28  O   UNL     1      -6.692   3.040  70.247  1.00  0.00    -0.032 OA 
HETATM   29  S   UNL     1      -6.191   5.806  66.015  1.00  0.00    -0.035 SA 
HETATM   30  C   UNL     1      -5.255   4.452  67.559  1.00  0.00    -0.011 C  
HETATM   31  O   UNL     1      -5.275   6.724  72.443  1.00  0.00    -0.034 OA 
HETATM   32  OXT UNL     1      -5.208   4.482  71.959  1.00  0.00    -0.003 OA 
HETATM   33  CA  UNL     1      -6.107   3.159  67.872  1.00  0.00    -0.028 C  
BRANCH  33  34
HETATM   34  N   UNL     1      -7.542   3.057  67.441  1.00  0.00    -0.065 N  
HETATM   35  C   UNL     1      -8.738   3.242  68.150  1.00  0.00    -0.105 C  
HETATM   36  H   UNL     1      -7.670   2.808  66.460  1.00  0.00     0.000 HD 
HETATM   37  O   UNL     1      -9.754   3.109  67.469  1.00  0.00    -0.129 OA 
BRANCH  35  38
HETATM   38  C   UNL     1      -8.895   3.623  69.688  1.00  0.00    -0.089 C  
HETATM   39  C   UNL     1      -8.399   4.871  70.220  1.00  0.00    -0.084 C  
HETATM   40  C   UNL     1      -7.490   7.399  71.793  1.00  0.00    -0.083 C  
HETATM   41  N   UNL     1      -7.974   5.825  68.957  1.00  0.00    -0.097 NA 
HETATM   42  N   UNL     1      -7.592   8.521  72.568  1.00  0.00    -0.302 NA 
HETATM   43  H   UNL     1      -8.454   5.378  72.774  1.00  0.00     0.000 HD 
HETATM   44  S   UNL     1      -6.984   7.932  69.563  1.00  0.00    -0.055 SA 
HETATM   45  H1  UNL     1      -7.812   8.290  73.536  1.00  0.00     0.000 HD 
HETATM   46  H2  UNL     1      -7.464   9.471  72.220  1.00  0.00     0.000 HD 
HETATM   47  N   UNL     1      -8.182   5.796  71.885  1.00  0.00    -0.118 NA 
BRANCH  38  48
HETATM   48  N   UNL     1      -9.590   2.972  70.555  1.00  0.00    -0.153 NA 
HETATM   49  H   UNL     1      -9.383   1.992  70.746  1.00  0.00     0.000 HD 
BRANCH  48  50
HETATM   50  O   UNL     1     -10.603   3.600  71.214  1.00  0.00     0.422 OA 
HETATM   51  O   UNL     1     -10.892   1.691  74.184  1.00  0.00    -0.124 OA 
HETATM   52  C   UNL     1     -11.067   2.194  73.081  1.00  0.00    -0.124 C  
HETATM   53  C   UNL     1     -11.148   4.621  73.250  1.00  0.00    -0.403 C  
HETATM   54  C   UNL     1      -8.886   3.123  73.138  1.00  0.00    -0.085 C  
HETATM   55  C   UNL     1     -10.356   3.460  72.637  1.00  0.00    -0.140 C  
HETATM   56  O   UNL     1     -11.906   1.669  72.166  1.00  0.00     1.037 OA 
ENDBRANCH  48  50
ENDBRANCH  38  48
ENDBRANCH  35  38
ENDBRANCH  33  34
ENDBRANCH  21  22
ENDBRANCH   9  21
TORSDOF 11
ENDMDL
MODEL      172
REMARK 921   NORMALIZED FREE ENERGY PREDICTED BY IDOCK:   23.44 KCAL/MOL
REMARK 922        TOTAL FREE ENERGY PREDICTED BY IDOCK:   34.72 KCAL/MOL
REMARK 923 INTER-LIGAND FREE ENERGY PREDICTED BY IDOCK:   15.67 KCAL/MOL
REMARK 924 INTRA-LIGAND FREE ENERGY PREDICTED BY IDOCK:   19.05 KCAL/MOL
REMARK 927      BINDING AFFINITY PREDICTED BY RF-SCORE:    0.00 PKD
ROOT
HETATM    1  C   UNL     1     -12.244   4.357  70.244  1.00  0.00    10.381 C  
HETATM    2  N   UNL     1     -10.952   4.879  70.640  1.00  0.00     0.328 NA 
HETATM    3  C   UNL     1     -10.177   4.365  71.667  1.00  0.00    -0.116 A  
HETATM    4  C   UNL     1      -9.452   5.398  72.302  1.00  0.00    -0.145 A  
HETATM    5  N   UNL     1     -10.133   3.069  72.060  1.00  0.00    -0.149 NA 
HETATM    6  C   UNL     1      -9.929   6.566  71.603  1.00  0.00    -0.177 A  
HETATM    7  H2  UNL     1     -10.725   2.411  71.553  1.00  0.00     0.000 HD 
HETATM    8  H1  UNL     1      -9.564   2.690  72.816  1.00  0.00     0.000 HD 
HETATM    9  N   UNL     1     -10.545   6.141  70.395  1.00  0.00    -0.237 NA 
ENDROOT
BRANCH   4  10
HETATM   10  N   UNL     1      -8.652   5.140  73.401  1.00  0.00    -0.116 N  
HETATM   11  H   UNL     1      -8.916   5.591  74.277  1.00  0.00     0.000 HD 
BRANCH  10  12
HETATM   12  C   UNL     1      -7.548   4.345  73.429  1.00  0.00    -0.078 C  
HETATM   13  O   UNL     1      -7.351   3.623  74.398  1.00  0.00    -0.052 OA 
BRANCH  12  14
HETATM   14  N   UNL     1      -6.658   4.556  72.420  1.00  0.00    -0.039 N  
HETATM   15  H   UNL     1      -6.838   4.186  71.487  1.00  0.00     0.000 HD 
BRANCH  14  16
HETATM   16  C   UNL     1      -5.447   5.314  72.689  1.00  0.00    -0.017 C  
BRANCH  16  17
HETATM   17  C   UNL     1      -5.723   6.612  73.458  1.00  0.00    -0.050 C  
HETATM   18  H2  UNL     1      -7.322   5.813  74.492  1.00  0.00     0.000 HD 
HETATM   19  N   UNL     1      -7.098   6.638  73.936  1.00  0.00    -0.080 NA 
HETATM   20  H1  UNL     1      -7.282   7.501  74.448  1.00  0.00     0.000 HD 
ENDBRANCH  16  17
ENDBRANCH  14  16
ENDBRANCH  12  14
ENDBRANCH  10  12
ENDBRANCH   4  10
BRANCH   9  21
HETATM   21  C   UNL     1     -10.951   6.861  69.151  1.00  0.00    -0.199 C  
BRANCH  21  22
HETATM   22  C   UNL     1      -9.894   8.131  68.507  1.00  0.00    -0.190 C  
HETATM   23  CA  UNL     1      -8.781   8.216  66.947  1.00  0.00    -0.129 C  
HETATM   24  C   UNL     1      -8.726  10.103  65.220  1.00  0.00    -0.165 C  
HETATM   25  C   UNL     1     -10.109   9.595  69.665  1.00  0.00    -0.242 C  
HETATM   26  C   UNL     1      -8.243   6.896  65.674  1.00  0.00    -0.134 C  
HETATM   27  N   UNL     1      -8.073   9.567  66.346  1.00  0.00    -0.111 N  
HETATM   28  O   UNL     1      -9.423   9.630  64.331  1.00  0.00    -0.234 OA 
HETATM   29  S   UNL     1      -9.078  11.495  69.044  1.00  0.00     0.253 SA 
HETATM   30  C   UNL     1      -8.078  11.020  67.078  1.00  0.00    -0.136 C  
HETATM   31  O   UNL     1      -8.041   5.719  66.118  1.00  0.00    -0.104 OA 
HETATM   32  OXT UNL     1      -7.934   7.408  64.568  1.00  0.00    -0.134 OA 
HETATM   33  CA  UNL     1      -8.893  11.505  65.815  1.00  0.00    -0.058 C  
BRANCH  33  34
HETATM   34  N   UNL     1     -10.336  11.908  65.935  1.00  0.00    -0.234 N  
HETATM   35  C   UNL     1     -10.935  13.057  66.472  1.00  0.00    -0.285 C  
HETATM   36  H   UNL     1     -10.995  11.226  65.561  1.00  0.00     0.000 HD 
HETATM   37  O   UNL     1     -12.162  13.077  66.377  1.00  0.00    -0.387 OA 
BRANCH  35  38
HETATM   38  C   UNL     1     -10.201  14.302  67.141  1.00  0.00    -0.254 C  
HETATM   39  C   UNL     1      -9.259  14.141  68.224  1.00  0.00    -0.198 C  
HETATM   40  C   UNL     1      -7.197  14.277  70.551  1.00  0.00     0.816 C  
HETATM   41  N   UNL     1      -8.923  12.544  68.368  1.00  0.00    -0.168 NA 
HETATM   42  N   UNL     1      -6.024  14.551  71.198  1.00  0.00    -0.135 NA 
HETATM   43  H   UNL     1      -8.246  16.197  69.460  1.00  0.00     0.000 HD 
HETATM   44  S   UNL     1      -7.469  11.972  70.196  1.00  0.00     2.311 SA 
HETATM   45  H1  UNL     1      -5.906  15.552  71.353  1.00  0.00     0.000 HD 
HETATM   46  H2  UNL     1      -5.352  13.843  71.491  1.00  0.00     0.000 HD 
HETATM   47  N   UNL     1      -8.212  15.178  69.450  1.00  0.00    -0.217 NA 
BRANCH  38  48
HETATM   48  N   UNL     1     -10.236  15.514  66.708  1.00  0.00    -0.273 NA 
HETATM   49  H   UNL     1      -9.388  15.956  66.353  1.00  0.00     0.000 HD 
BRANCH  48  50
HETATM   50  O   UNL     1     -11.411  16.203  66.727  1.00  0.00     0.057 OA 
HETATM   51  O   UNL     1     -12.836  15.208  69.814  1.00  0.00    -0.089 OA 
HETATM   52  C   UNL     1     -12.572  15.353  68.627  1.00  0.00     0.623 C  
HETATM   53  C   UNL     1     -12.665  17.707  68.011  1.00  0.00     5.316 C  
HETATM   54  C   UNL     1     -10.557  16.469  69.193  1.00  0.00    -0.319 C  
HETATM   55  C   UNL     1     -11.722  16.502  68.112  1.00  0.00     0.262 C  
HETATM   56  O   UNL     1     -13.013  14.509  67.674  1.00  0.00     0.973 OA 
ENDBRANCH  48  50
ENDBRANCH  38  48
ENDBRANCH  35  38
ENDBRANCH  33  34
ENDBRANCH  21  22
ENDBRANCH   9  21
TORSDOF 11
ENDMDL
MODEL      173
REMARK 921   NORMALIZED FREE ENERGY PREDICTED BY IDOCK:   25.34 KCAL/MOL
REMARK 922        TOTAL FREE ENERGY PREDICTED BY IDOCK:   37.85 KCAL/MOL
REMARK 923 INTER-LIGAND FREE ENERGY PREDICTED BY IDOCK:    5.23 KCAL/MOL
REMARK 924 INTRA-LIGAND FREE ENERGY PREDICTED BY IDOCK:   32.62 KCAL/MOL
REMARK 927      BINDING AFFINITY PREDICTED BY RF-SCORE:    0.00 PKD
ROOT
HETATM    1  C   UNL     1      -9.949  10.083  67.230  1.00  0.00    -0.197 C  
HETATM    2  N   UNL     1     -10.742  10.633  68.311  1.00  0.00    -0.202 NA 
HETATM    3  C   UNL     1     -10.661  10.224  69.632  1.00  0.00    -0.256 A  
HETATM    4  C   UNL     1     -11.925  10.318  70.256  1.00  0.00    -0.264 A  
HETATM    5  N   UNL     1      -9.552   9.755  70.255  1.00  0.00    -0.330 NA 
HETATM    6  C   UNL     1     -12.762  10.745  69.162  1.00  0.00     0.768 A  
HETATM    7  H2  UNL     1      -8.699   9.697  69.699  1.00  0.00     0.000 HD 
HETATM    8  H1  UNL     1      -9.492   9.453  71.227  1.00  0.00     0.000 HD 
HETATM    9  N   UNL     1     -11.925  11.255  68.133  1.00  0.00    -0.641 NA 
ENDROOT
BRANCH   4  10
HETATM   10  N   UNL     1     -12.111   9.906  71.563  1.00  0.00    -0.400 N  
HETATM   11  H   UNL     1     -12.421  10.614  72.229  1.00  0.00     0.000 HD 
BRANCH  10  12
HETATM   12  C   UNL     1     -11.921   8.649  72.050  1.00  0.00    -0.372 C  
HETATM   13  O   UNL     1     -12.528   7.711  71.548  1.00  0.00    -0.314 OA 
BRANCH  12  14
HETATM   14  N   UNL     1     -11.177   8.576  73.188  1.00  0.00     0.435 N  
HETATM   15  H   UNL     1     -11.175   9.348  73.854  1.00  0.00     0.000 HD 
BRANCH  14  16
HETATM   16  C   UNL     1     -10.385   7.383  73.443  1.00  0.00    -0.360 C  
BRANCH  16  17
HETATM   17  C   UNL     1      -9.405   7.072  72.305  1.00  0.00    -0.136 C  
HETATM   18  H2  UNL     1     -10.704   5.770  71.367  1.00  0.00     0.000 HD 
HETATM   19  N   UNL     1      -9.735   5.798  71.683  1.00  0.00    -0.160 NA 
HETATM   20  H1  UNL     1      -9.083   5.591  70.926  1.00  0.00     0.000 HD 
ENDBRANCH  16  17
ENDBRANCH  14  16
ENDBRANCH  12  14
ENDBRANCH  10  12
ENDBRANCH   4  10
BRANCH   9  21
HETATM   21  C   UNL     1     -12.192  12.086  66.921  1.00  0.00     0.528 C  
BRANCH  21  22
HETATM   22  C   UNL     1     -11.900  13.834  66.995  1.00  0.00    -0.445 C  
HETATM   23  CA  UNL     1     -12.294  15.153  68.330  1.00  0.00     0.237 C  
HETATM   24  C   UNL     1     -10.667  16.882  69.286  1.00  0.00    -0.288 C  
HETATM   25  C   UNL     1     -10.957  14.249  65.424  1.00  0.00    -0.335 C  
HETATM   26  C   UNL     1     -13.334  15.095  69.933  1.00  0.00     0.602 C  
HETATM   27  N   UNL     1     -11.713  16.686  68.365  1.00  0.00     0.097 N  
HETATM   28  O   UNL     1     -10.343  16.346  70.338  1.00  0.00     0.081 OA 
HETATM   29  S   UNL     1     -10.211  16.365  65.260  1.00  0.00     0.060 SA 
HETATM   30  C   UNL     1     -10.839  17.373  67.178  1.00  0.00    -0.090 C  
HETATM   31  O   UNL     1     -14.385  14.375  69.909  1.00  0.00     2.588 OA 
HETATM   32  OXT UNL     1     -12.968  15.965  70.763  1.00  0.00    -0.475 OA 
HETATM   33  CA  UNL     1      -9.689  17.460  68.257  1.00  0.00    -0.299 C  
BRANCH  33  34
HETATM   34  N   UNL     1      -8.441  16.633  68.125  1.00  0.00    -0.193 N  
HETATM   35  C   UNL     1      -8.245  15.245  68.126  1.00  0.00    -0.141 C  
HETATM   36  H   UNL     1      -7.585  17.178  68.016  1.00  0.00     0.000 HD 
HETATM   37  O   UNL     1      -7.074  14.900  67.962  1.00  0.00    -0.109 OA 
BRANCH  35  38
HETATM   38  C   UNL     1      -9.357  14.117  68.286  1.00  0.00    -0.203 C  
HETATM   39  C   UNL     1     -10.084  13.930  69.520  1.00  0.00     0.476 C  
HETATM   40  C   UNL     1     -11.868  13.162  71.952  1.00  0.00     1.778 C  
HETATM   41  N   UNL     1      -9.760  15.207  70.495  1.00  0.00     0.432 NA 
HETATM   42  N   UNL     1     -13.007  12.937  72.675  1.00  0.00    -0.153 NA 
HETATM   43  H   UNL     1     -11.729  11.936  69.841  1.00  0.00     0.000 HD 
HETATM   44  S   UNL     1     -10.745  15.088  72.686  1.00  0.00     2.453 SA 
HETATM   45  H1  UNL     1     -13.494  12.100  72.356  1.00  0.00     0.000 HD 
HETATM   46  H2  UNL     1     -13.328  13.532  73.438  1.00  0.00     0.000 HD 
HETATM   47  N   UNL     1     -11.363  12.753  70.329  1.00  0.00     0.218 NA 
BRANCH  38  48
HETATM   48  N   UNL     1      -9.827  13.387  67.334  1.00  0.00    -0.223 NA 
HETATM   49  H   UNL     1     -10.605  12.752  67.512  1.00  0.00     0.000 HD 
BRANCH  48  50
HETATM   50  O   UNL     1      -9.280  13.470  66.090  1.00  0.00    -0.128 OA 
HETATM   51  O   UNL     1      -7.449  10.447  65.851  1.00  0.00    -0.129 OA 
HETATM   52  C   UNL     1      -7.785  11.619  65.969  1.00  0.00     0.358 C  
HETATM   53  C   UNL     1      -9.110  12.326  64.053  1.00  0.00     0.816 C  
HETATM   54  C   UNL     1     -10.052  10.965  66.206  1.00  0.00    -0.284 C  
HETATM   55  C   UNL     1      -9.162  12.120  65.571  1.00  0.00     0.109 C  
HETATM   56  O   UNL     1      -6.961  12.566  66.459  1.00  0.00     0.322 OA 
ENDBRANCH  48  50
ENDBRANCH  38  48
ENDBRANCH  35  38
ENDBRANCH  33  34
ENDBRANCH  21  22
ENDBRANCH   9  21
TORSDOF 11
ENDMDL
MODEL      174
REMARK 921   NORMALIZED FREE ENERGY PREDICTED BY IDOCK:   25.98 KCAL/MOL
REMARK 922        TOTAL FREE ENERGY PREDICTED BY IDOCK:   38.91 KCAL/MOL
REMARK 923 INTER-LIGAND FREE ENERGY PREDICTED BY IDOCK:   26.01 KCAL/MOL
REMARK 924 INTRA-LIGAND FREE ENERGY PREDICTED BY IDOCK:   12.90 KCAL/MOL
REMARK 927      BINDING AFFINITY PREDICTED BY RF-SCORE:    0.00 PKD
ROOT
HETATM    1  C   UNL     1      -8.763  12.640  68.936  1.00  0.00     0.332 C  
HETATM    2  N   UNL     1      -9.653  12.083  69.934  1.00  0.00     1.933 NA 
HETATM    3  C   UNL     1      -9.341  11.012  70.755  1.00  0.00     4.042 A  
HETATM    4  C   UNL     1     -10.498  10.247  71.027  1.00  0.00     0.660 A  
HETATM    5  N   UNL     1      -8.107  10.691  71.212  1.00  0.00     2.433 NA 
HETATM    6  C   UNL     1     -11.493  10.924  70.233  1.00  0.00    -0.302 A  
HETATM    7  H2  UNL     1      -7.336  11.294  70.925  1.00  0.00     0.000 HD 
HETATM    8  H1  UNL     1      -7.877   9.902  71.816  1.00  0.00     0.000 HD 
HETATM    9  N   UNL     1     -10.995  12.213  69.898  1.00  0.00     0.226 NA 
ENDROOT
BRANCH   4  10
HETATM   10  N   UNL     1     -10.429   9.087  71.778  1.00  0.00    -0.354 N  
HETATM   11  H   UNL     1     -10.859   9.112  72.702  1.00  0.00     0.000 HD 
BRANCH  10  12
HETATM   12  C   UNL     1      -9.843   7.917  71.406  1.00  0.00    -0.168 C  
HETATM   13  O   UNL     1      -9.954   6.933  72.127  1.00  0.00    -0.164 OA 
BRANCH  12  14
HETATM   14  N   UNL     1      -9.030   7.997  70.317  1.00  0.00    -0.146 N  
HETATM   15  H   UNL     1      -8.586   8.881  70.068  1.00  0.00     0.000 HD 
BRANCH  14  16
HETATM   16  C   UNL     1      -8.801   6.808  69.512  1.00  0.00    -0.139 C  
BRANCH  16  17
HETATM   17  C   UNL     1      -9.005   7.062  68.014  1.00  0.00    -0.126 C  
HETATM   18  H2  UNL     1      -7.250   6.114  67.481  1.00  0.00     0.000 HD 
HETATM   19  N   UNL     1      -7.734   6.996  67.308  1.00  0.00    -0.107 NA 
HETATM   20  H1  UNL     1      -7.869   7.165  66.312  1.00  0.00     0.000 HD 
ENDBRANCH  16  17
ENDBRANCH  14  16
ENDBRANCH  12  14
ENDBRANCH  10  12
ENDBRANCH   4  10
BRANCH   9  21
HETATM   21  C   UNL     1     -11.643  13.449  69.368  1.00  0.00    -0.307 C  
BRANCH  21  22
HETATM   22  C   UNL     1     -11.308  13.949  67.699  1.00  0.00    -0.335 C  
HETATM   23  CA  UNL     1      -9.685  14.428  66.798  1.00  0.00    -0.270 C  
HETATM   24  C   UNL     1      -8.868  13.517  64.550  1.00  0.00     3.757 C  
HETATM   25  C   UNL     1     -12.958  13.849  66.807  1.00  0.00     0.831 C  
HETATM   26  C   UNL     1      -7.909  14.757  67.425  1.00  0.00    -0.200 C  
HETATM   27  N   UNL     1      -9.504  14.605  65.177  1.00  0.00     0.245 N  
HETATM   28  O   UNL     1      -8.064  12.670  64.916  1.00  0.00     2.991 OA 
HETATM   29  S   UNL     1     -12.894  14.207  64.587  1.00  0.00     0.216 SA 
HETATM   30  C   UNL     1     -10.720  14.557  64.098  1.00  0.00     0.579 C  
HETATM   31  O   UNL     1      -7.798  15.328  68.558  1.00  0.00    -0.124 OA 
HETATM   32  OXT UNL     1      -7.051  14.564  66.528  1.00  0.00     0.794 OA 
HETATM   33  CA  UNL     1      -9.983  13.283  63.524  1.00  0.00     1.822 C  
BRANCH  33  34
HETATM   34  N   UNL     1     -10.596  11.917  63.645  1.00  0.00    -0.401 N  
HETATM   35  C   UNL     1     -10.017  10.640  63.667  1.00  0.00    -0.301 C  
HETATM   36  H   UNL     1     -11.613  11.918  63.725  1.00  0.00     0.000 HD 
HETATM   37  O   UNL     1     -10.824   9.722  63.812  1.00  0.00     2.510 OA 
BRANCH  35  38
HETATM   38  C   UNL     1      -8.469  10.284  63.554  1.00  0.00    -0.182 C  
HETATM   39  C   UNL     1      -8.007   8.924  63.395  1.00  0.00    -0.157 C  
HETATM   40  C   UNL     1      -6.569   6.184  63.062  1.00  0.00    -0.039 C  
HETATM   41  N   UNL     1      -9.310   7.983  63.075  1.00  0.00     1.689 NA 
HETATM   42  N   UNL     1      -5.775   5.224  62.501  1.00  0.00    -0.014 NA 
HETATM   43  H   UNL     1      -5.471   8.335  63.446  1.00  0.00     0.000 HD 
HETATM   44  S   UNL     1      -8.844   5.630  62.893  1.00  0.00     0.326 SA 
HETATM   45  H1  UNL     1      -4.786   5.464  62.574  1.00  0.00     0.000 HD 
HETATM   46  H2  UNL     1      -6.127   4.372  62.063  1.00  0.00     0.000 HD 
HETATM   47  N   UNL     1      -6.387   7.902  63.330  1.00  0.00    -0.066 NA 
BRANCH  38  48
HETATM   48  N   UNL     1      -7.510  11.135  63.432  1.00  0.00     0.027 NA 
HETATM   49  H   UNL     1      -7.022  11.233  62.542  1.00  0.00     0.000 HD 
BRANCH  48  50
HETATM   50  O   UNL     1      -7.154  11.905  64.497  1.00  0.00     2.670 OA 
HETATM   51  O   UNL     1      -6.148   9.492  66.888  1.00  0.00    -0.061 OA 
HETATM   52  C   UNL     1      -6.756  10.346  66.255  1.00  0.00    -0.112 C  
HETATM   53  C   UNL     1      -5.385  12.338  65.971  1.00  0.00     1.720 C  
HETATM   54  C   UNL     1      -5.251  10.100  64.439  1.00  0.00    -0.106 C  
HETATM   55  C   UNL     1      -6.090  11.214  65.202  1.00  0.00     0.523 C  
HETATM   56  O   UNL     1      -8.068  10.592  66.440  1.00  0.00    -0.136 OA 
ENDBRANCH  48  50
ENDBRANCH  38  48
ENDBRANCH  35  38
ENDBRANCH  33  34
ENDBRANCH  21  22
ENDBRANCH   9  21
TORSDOF 11
ENDMDL
MODEL      175
REMARK 921   NORMALIZED FREE ENERGY PREDICTED BY IDOCK:   27.10 KCAL/MOL
REMARK 922        TOTAL FREE ENERGY PREDICTED BY IDOCK:   40.74 KCAL/MOL
REMARK 923 INTER-LIGAND FREE ENERGY PREDICTED BY IDOCK:   34.81 KCAL/MOL
REMARK 924 INTRA-LIGAND FREE ENERGY PREDICTED BY IDOCK:    5.93 KCAL/MOL
REMARK 927      BINDING AFFINITY PREDICTED BY RF-SCORE:    0.00 PKD
ROOT
HETATM    1  C   UNL     1      -9.903  20.553  68.391  1.00  0.00     0.082 C  
HETATM    2  N   UNL     1     -10.104  19.286  67.718  1.00  0.00    -0.367 NA 
HETATM    3  C   UNL     1     -10.259  19.139  66.350  1.00  0.00    -0.438 A  
HETATM    4  C   UNL     1     -11.132  18.065  66.066  1.00  0.00     0.541 A  
HETATM    5  N   UNL     1      -9.702  19.923  65.396  1.00  0.00    -0.235 NA 
HETATM    6  C   UNL     1     -11.529  17.649  67.389  1.00  0.00     0.879 A  
HETATM    7  H2  UNL     1      -9.114  20.694  65.714  1.00  0.00     0.000 HD 
HETATM    8  H1  UNL     1      -9.816  19.815  64.388  1.00  0.00     0.000 HD 
HETATM    9  N   UNL     1     -10.601  18.187  68.321  1.00  0.00    -0.308 NA 
ENDROOT
BRANCH   4  10
HETATM   10  N   UNL     1     -11.492  17.760  64.765  1.00  0.00     1.430 N  
HETATM   11  H   UNL     1     -11.538  18.537  64.107  1.00  0.00     0.000 HD 
BRANCH  10  12
HETATM   12  C   UNL     1     -11.791  16.525  64.277  1.00  0.00     0.614 C  
HETATM   13  O   UNL     1     -12.882  16.332  63.756  1.00  0.00    -0.033 OA 
BRANCH  12  14
HETATM   14  N   UNL     1     -10.884  15.552  64.570  1.00  0.00    -0.644 N  
HETATM   15  H   UNL     1     -11.082  14.578  64.344  1.00  0.00     0.000 HD 
BRANCH  14  16
HETATM   16  C   UNL     1      -9.630  15.918  65.209  1.00  0.00     0.211 C  
BRANCH  16  17
HETATM   17  C   UNL     1      -9.462  15.272  66.589  1.00  0.00    -0.259 C  
HETATM   18  H2  UNL     1     -10.960  13.887  66.268  1.00  0.00     0.000 HD 
HETATM   19  N   UNL     1     -10.676  14.567  66.973  1.00  0.00    -0.286 NA 
HETATM   20  H1  UNL     1     -10.564  14.137  67.891  1.00  0.00     0.000 HD 
ENDBRANCH  16  17
ENDBRANCH  14  16
ENDBRANCH  12  14
ENDBRANCH  10  12
ENDBRANCH   4  10
BRANCH   9  21
HETATM   21  C   UNL     1     -10.307  17.886  69.754  1.00  0.00     0.585 C  
BRANCH  21  22
HETATM   22  C   UNL     1      -8.962  16.799  70.147  1.00  0.00     1.908 C  
HETATM   23  CA  UNL     1      -8.895  15.091  71.018  1.00  0.00     2.816 C  
HETATM   24  C   UNL     1      -7.686  13.000  70.173  1.00  0.00     2.428 C  
HETATM   25  C   UNL     1      -7.432  17.616  69.424  1.00  0.00     0.137 C  
HETATM   26  C   UNL     1     -10.206  14.075  71.966  1.00  0.00     6.185 C  
HETATM   27  N   UNL     1      -7.599  14.087  71.062  1.00  0.00     2.608 N  
HETATM   28  O   UNL     1      -8.614  12.375  69.675  1.00  0.00     1.305 OA 
HETATM   29  S   UNL     1      -5.535  16.413  69.535  1.00  0.00    -0.152 SA 
HETATM   30  C   UNL     1      -6.116  14.463  70.507  1.00  0.00    -0.185 C  
HETATM   31  O   UNL     1     -11.045  14.731  72.666  1.00  0.00     0.277 OA 
HETATM   32  OXT UNL     1      -9.943  12.846  71.961  1.00  0.00    11.307 OA 
HETATM   33  CA  UNL     1      -6.348  13.284  69.481  1.00  0.00    -0.104 C  
BRANCH  33  34
HETATM   34  N   UNL     1      -6.508  13.558  68.013  1.00  0.00    -0.117 N  
HETATM   35  C   UNL     1      -7.264  12.909  67.026  1.00  0.00     0.173 C  
HETATM   36  H   UNL     1      -5.972  14.357  67.674  1.00  0.00     0.000 HD 
HETATM   37  O   UNL     1      -7.188  13.425  65.911  1.00  0.00     2.884 OA 
BRANCH  35  38
HETATM   38  C   UNL     1      -8.197  11.633  67.214  1.00  0.00    -0.159 C  
HETATM   39  C   UNL     1      -8.029  10.440  66.416  1.00  0.00    -0.130 C  
HETATM   40  C   UNL     1      -8.047   7.698  64.942  1.00  0.00    -0.128 C  
HETATM   41  N   UNL     1      -6.618  10.576  65.595  1.00  0.00    -0.128 NA 
HETATM   42  N   UNL     1      -7.980   6.344  64.773  1.00  0.00    -0.118 NA 
HETATM   43  H   UNL     1      -9.706   8.453  66.572  1.00  0.00     0.000 HD 
HETATM   44  S   UNL     1      -6.148   8.773  64.074  1.00  0.00    -0.072 SA 
HETATM   45  H1  UNL     1      -8.805   5.877  65.150  1.00  0.00     0.000 HD 
HETATM   46  H2  UNL     1      -7.201   5.860  64.327  1.00  0.00     0.000 HD 
HETATM   47  N   UNL     1      -8.850   8.737  66.096  1.00  0.00    -0.157 NA 
BRANCH  38  48
HETATM   48  N   UNL     1      -9.056  11.463  68.159  1.00  0.00    -0.167 NA 
HETATM   49  H   UNL     1      -9.060  12.088  68.965  1.00  0.00     0.000 HD 
BRANCH  48  50
HETATM   50  O   UNL     1      -9.957  10.446  68.075  1.00  0.00    -0.151 OA 
HETATM   51  O   UNL     1     -12.955  11.980  69.173  1.00  0.00     0.776 OA 
HETATM   52  C   UNL     1     -11.933  11.311  69.088  1.00  0.00    -0.336 C  
HETATM   53  C   UNL     1     -12.021   9.861  67.134  1.00  0.00     3.318 C  
HETATM   54  C   UNL     1     -11.309  12.482  67.122  1.00  0.00    -0.381 C  
HETATM   55  C   UNL     1     -11.249  11.028  67.762  1.00  0.00    -0.308 C  
HETATM   56  O   UNL     1     -11.328  10.766  70.161  1.00  0.00    -0.290 OA 
ENDBRANCH  48  50
ENDBRANCH  38  48
ENDBRANCH  35  38
ENDBRANCH  33  34
ENDBRANCH  21  22
ENDBRANCH   9  21
TORSDOF 11
ENDMDL
MODEL      176
REMARK 921   NORMALIZED FREE ENERGY PREDICTED BY IDOCK:   27.96 KCAL/MOL
REMARK 922        TOTAL FREE ENERGY PREDICTED BY IDOCK:   42.16 KCAL/MOL
REMARK 923 INTER-LIGAND FREE ENERGY PREDICTED BY IDOCK:   25.30 KCAL/MOL
REMARK 924 INTRA-LIGAND FREE ENERGY PREDICTED BY IDOCK:   16.86 KCAL/MOL
REMARK 927      BINDING AFFINITY PREDICTED BY RF-SCORE:    0.00 PKD
ROOT
HETATM    1  C   UNL     1      -9.976  11.536  70.316  1.00  0.00     2.396 C  
HETATM    2  N   UNL     1     -10.262  10.696  71.461  1.00  0.00     2.858 NA 
HETATM    3  C   UNL     1      -9.708   9.445  71.676  1.00  0.00     0.189 A  
HETATM    4  C   UNL     1     -10.632   8.604  72.337  1.00  0.00    -0.239 A  
HETATM    5  N   UNL     1      -8.477   9.040  71.282  1.00  0.00    -0.291 NA 
HETATM    6  C   UNL     1     -11.796   9.452  72.420  1.00  0.00     0.247 A  
HETATM    7  H2  UNL     1      -7.904   9.719  70.781  1.00  0.00     0.000 HD 
HETATM    8  H1  UNL     1      -8.069   8.119  71.440  1.00  0.00     0.000 HD 
HETATM    9  N   UNL     1     -11.385  10.795  72.202  1.00  0.00     2.749 NA 
ENDROOT
BRANCH   4  10
HETATM   10  N   UNL     1     -10.330   7.282  72.607  1.00  0.00    -0.207 N  
HETATM   11  H   UNL     1     -11.045   6.735  73.086  1.00  0.00     0.000 HD 
BRANCH  10  12
HETATM   12  C   UNL     1      -9.172   6.637  72.298  1.00  0.00    -0.136 C  
HETATM   13  O   UNL     1      -8.249   6.638  73.104  1.00  0.00    -0.112 OA 
BRANCH  12  14
HETATM   14  N   UNL     1      -9.088   6.178  71.019  1.00  0.00    -0.146 N  
HETATM   15  H   UNL     1      -9.194   6.819  70.233  1.00  0.00     0.000 HD 
BRANCH  14  16
HETATM   16  C   UNL     1      -8.846   4.764  70.787  1.00  0.00    -0.121 C  
BRANCH  16  17
HETATM   17  C   UNL     1      -9.026   3.919  72.054  1.00  0.00    -0.113 C  
HETATM   18  H2  UNL     1      -8.362   2.185  71.150  1.00  0.00     0.000 HD 
HETATM   19  N   UNL     1      -9.149   2.510  71.713  1.00  0.00    -0.082 NA 
HETATM   20  H1  UNL     1      -9.268   1.947  72.556  1.00  0.00     0.000 HD 
ENDBRANCH  16  17
ENDBRANCH  14  16
ENDBRANCH  12  14
ENDBRANCH  10  12
ENDBRANCH   4  10
BRANCH   9  21
HETATM   21  C   UNL     1     -12.043  12.113  72.445  1.00  0.00     2.800 C  
BRANCH  21  22
HETATM   22  C   UNL     1     -11.708  13.459  71.339  1.00  0.00     1.001 C  
HETATM   23  CA  UNL     1     -10.075  14.290  70.775  1.00  0.00     2.230 C  
HETATM   24  C   UNL     1      -9.376  14.786  68.363  1.00  0.00    -0.197 C  
HETATM   25  C   UNL     1     -13.381  13.964  70.648  1.00  0.00     0.076 C  
HETATM   26  C   UNL     1      -8.267  14.117  71.371  1.00  0.00     5.700 C  
HETATM   27  N   UNL     1      -9.917  15.351  69.534  1.00  0.00    -0.255 N  
HETATM   28  O   UNL     1      -8.627  13.845  68.135  1.00  0.00    -0.164 OA 
HETATM   29  S   UNL     1     -13.339  15.521  69.025  1.00  0.00     3.006 SA 
HETATM   30  C   UNL     1     -11.157  15.984  68.693  1.00  0.00    -0.349 C  
HETATM   31  O   UNL     1      -8.090  13.934  72.619  1.00  0.00     6.629 OA 
HETATM   32  OXT UNL     1      -7.444  14.431  70.474  1.00  0.00     0.551 OA 
HETATM   33  CA  UNL     1     -10.527  15.232  67.455  1.00  0.00    -0.270 C  
BRANCH  33  34
HETATM   34  N   UNL     1     -11.234  14.072  66.814  1.00  0.00    -0.307 N  
HETATM   35  C   UNL     1     -10.811  12.762  66.545  1.00  0.00    -0.256 C  
HETATM   36  H   UNL     1     -12.192  14.272  66.523  1.00  0.00     0.000 HD 
HETATM   37  O   UNL     1     -11.673  12.049  66.030  1.00  0.00    -0.460 OA 
BRANCH  35  38
HETATM   38  C   UNL     1      -9.385  12.129  66.858  1.00  0.00    -0.203 C  
HETATM   39  C   UNL     1      -8.644  11.387  65.865  1.00  0.00    -0.049 C  
HETATM   40  C   UNL     1      -6.718   9.725  64.071  1.00  0.00    -0.120 C  
HETATM   41  N   UNL     1      -9.385  11.599  64.419  1.00  0.00    -0.017 NA 
HETATM   42  N   UNL     1      -5.574   9.389  63.402  1.00  0.00    -0.078 NA 
HETATM   43  H   UNL     1      -6.424  10.162  66.459  1.00  0.00     0.000 HD 
HETATM   44  S   UNL     1      -8.429  10.358  62.594  1.00  0.00    -0.209 SA 
HETATM   45  H1  UNL     1      -4.830   9.114  64.043  1.00  0.00     0.000 HD 
HETATM   46  H2  UNL     1      -5.477   9.410  62.387  1.00  0.00     0.000 HD 
HETATM   47  N   UNL     1      -7.046  10.344  65.672  1.00  0.00    -0.143 NA 
BRANCH  38  48
HETATM   48  N   UNL     1      -8.690  12.335  67.923  1.00  0.00    -0.169 NA 
HETATM   49  H   UNL     1      -9.139  12.315  68.839  1.00  0.00     0.000 HD 
BRANCH  48  50
HETATM   50  O   UNL     1      -7.354  12.577  67.819  1.00  0.00    -0.099 OA 
HETATM   51  O   UNL     1      -5.956  10.127  69.961  1.00  0.00    -0.045 OA 
HETATM   52  C   UNL     1      -6.359  11.172  69.466  1.00  0.00    -0.101 C  
HETATM   53  C   UNL     1      -5.311  11.555  67.302  1.00  0.00    -0.074 C  
HETATM   54  C   UNL     1      -7.461   9.957  67.753  1.00  0.00    -0.090 C  
HETATM   55  C   UNL     1      -6.663  11.312  67.985  1.00  0.00    -0.062 C  
HETATM   56  O   UNL     1      -6.567  12.288  70.192  1.00  0.00     0.041 OA 
ENDBRANCH  48  50
ENDBRANCH  38  48
ENDBRANCH  35  38
ENDBRANCH  33  34
ENDBRANCH  21  22
ENDBRANCH   9  21
TORSDOF 11
ENDMDL
MODEL      177
REMARK 921   NORMALIZED FREE ENERGY PREDICTED BY IDOCK:   28.72 KCAL/MOL
REMARK 922        TOTAL FREE ENERGY PREDICTED BY IDOCK:   43.40 KCAL/MOL
REMARK 923 INTER-LIGAND FREE ENERGY PREDICTED BY IDOCK:   -5.07 KCAL/MOL
REMARK 924 INTRA-LIGAND FREE ENERGY PREDICTED BY IDOCK:   48.47 KCAL/MOL
REMARK 927      BINDING AFFINITY PREDICTED BY RF-SCORE:    0.00 PKD
ROOT
HETATM    1  C   UNL     1      -5.660  12.000  70.036  1.00  0.00    -0.123 C  
HETATM    2  N   UNL     1      -6.201  11.538  68.774  1.00  0.00    -0.049 NA 
HETATM    3  C   UNL     1      -6.891  12.335  67.875  1.00  0.00    -0.093 A  
HETATM    4  C   UNL     1      -7.882  11.580  67.208  1.00  0.00    -0.153 A  
HETATM    5  N   UNL     1      -6.697  13.660  67.674  1.00  0.00    -0.172 NA 
HETATM    6  C   UNL     1      -7.757  10.295  67.851  1.00  0.00    -0.089 A  
HETATM    7  H2  UNL     1      -5.976  14.114  68.235  1.00  0.00     0.000 HD 
HETATM    8  H1  UNL     1      -7.205  14.247  67.013  1.00  0.00     0.000 HD 
HETATM    9  N   UNL     1      -6.501  10.249  68.514  1.00  0.00    -0.052 NA 
ENDROOT
BRANCH   4  10
HETATM   10  N   UNL     1      -8.744  12.173  66.303  1.00  0.00    -0.397 N  
HETATM   11  H   UNL     1      -8.763  13.192  66.286  1.00  0.00     0.000 HD 
BRANCH  10  12
HETATM   12  C   UNL     1      -9.571  11.531  65.434  1.00  0.00    -0.224 C  
HETATM   13  O   UNL     1      -9.528  10.309  65.354  1.00  0.00    -0.194 OA 
BRANCH  12  14
HETATM   14  N   UNL     1     -10.271  12.342  64.594  1.00  0.00    -0.353 N  
HETATM   15  H   UNL     1     -10.713  11.961  63.758  1.00  0.00     0.000 HD 
BRANCH  14  16
HETATM   16  C   UNL     1     -10.380  13.759  64.902  1.00  0.00    -0.398 C  
BRANCH  16  17
HETATM   17  C   UNL     1     -11.805  14.168  65.294  1.00  0.00    -0.367 C  
HETATM   18  H2  UNL     1     -12.416  14.407  63.336  1.00  0.00     0.000 HD 
HETATM   19  N   UNL     1     -12.434  14.920  64.218  1.00  0.00    -0.770 NA 
HETATM   20  H1  UNL     1     -13.381  15.192  64.479  1.00  0.00     0.000 HD 
ENDBRANCH  16  17
ENDBRANCH  14  16
ENDBRANCH  12  14
ENDBRANCH  10  12
ENDBRANCH   4  10
BRANCH   9  21
HETATM   21  C   UNL     1      -5.692   9.131  69.085  1.00  0.00    -0.036 C  
BRANCH  21  22
HETATM   22  C   UNL     1      -6.440   8.042  70.267  1.00  0.00    -0.037 C  
HETATM   23  CA  UNL     1      -6.906   8.266  72.114  1.00  0.00    -0.083 C  
HETATM   24  C   UNL     1      -9.160   7.710  73.191  1.00  0.00    -0.200 C  
HETATM   25  C   UNL     1      -6.841   6.472  69.316  1.00  0.00    -0.065 C  
HETATM   26  C   UNL     1      -6.524   9.644  73.382  1.00  0.00     1.013 C  
HETATM   27  N   UNL     1      -7.844   7.251  72.997  1.00  0.00    -0.095 N  
HETATM   28  O   UNL     1      -9.681   8.817  73.234  1.00  0.00     0.224 OA 
HETATM   29  S   UNL     1      -8.010   4.916  70.443  1.00  0.00    -0.070 SA 
HETATM   30  C   UNL     1      -8.390   5.809  72.479  1.00  0.00    -0.117 C  
HETATM   31  O   UNL     1      -5.383  10.203  73.295  1.00  0.00    -0.323 OA 
HETATM   32  OXT UNL     1      -7.376   9.682  74.306  1.00  0.00     0.442 OA 
HETATM   33  CA  UNL     1      -9.827   6.446  72.637  1.00  0.00    -0.166 C  
BRANCH  33  34
HETATM   34  N   UNL     1     -10.682   6.730  71.435  1.00  0.00    -0.222 N  
HETATM   35  C   UNL     1     -10.798   6.070  70.203  1.00  0.00    -0.339 C  
HETATM   36  H   UNL     1     -11.286   7.547  71.531  1.00  0.00     0.000 HD 
HETATM   37  O   UNL     1     -11.633   6.561  69.443  1.00  0.00    -0.339 OA 
BRANCH  35  38
HETATM   38  C   UNL     1      -9.999   4.778  69.726  1.00  0.00    -0.238 C  
HETATM   39  C   UNL     1      -8.962   4.179  70.534  1.00  0.00    -0.095 C  
HETATM   40  C   UNL     1      -6.677   2.576  71.911  1.00  0.00    -0.018 C  
HETATM   41  N   UNL     1      -9.017   4.870  72.019  1.00  0.00    -0.130 NA 
HETATM   42  N   UNL     1      -6.025   1.510  72.464  1.00  0.00    -0.008 NA 
HETATM   43  H   UNL     1      -7.508   2.212  69.641  1.00  0.00     0.000 HD 
HETATM   44  S   UNL     1      -7.300   4.148  73.540  1.00  0.00    -0.076 SA 
HETATM   45  H1  UNL     1      -5.754   0.827  71.757  1.00  0.00     0.000 HD 
HETATM   46  H2  UNL     1      -5.833   1.409  73.461  1.00  0.00     0.000 HD 
HETATM   47  N   UNL     1      -7.641   2.792  70.469  1.00  0.00    -0.043 NA 
BRANCH  38  48
HETATM   48  N   UNL     1     -10.282   4.059  68.695  1.00  0.00     0.356 NA 
HETATM   49  H   UNL     1     -10.761   3.166  68.809  1.00  0.00     0.000 HD 
BRANCH  48  50
HETATM   50  O   UNL     1      -9.939   4.499  67.453  1.00  0.00    -0.177 OA 
HETATM   51  O   UNL     1      -8.821   7.800  68.084  1.00  0.00    -0.126 OA 
HETATM   52  C   UNL     1      -9.466   6.816  67.746  1.00  0.00    -0.118 C  
HETATM   53  C   UNL     1      -8.168   5.423  66.229  1.00  0.00    -0.110 C  
HETATM   54  C   UNL     1      -7.977   5.407  68.938  1.00  0.00    -0.094 C  
HETATM   55  C   UNL     1      -8.843   5.438  67.606  1.00  0.00    -0.105 C  
HETATM   56  O   UNL     1     -10.783   6.870  67.467  1.00  0.00    -0.240 OA 
ENDBRANCH  48  50
ENDBRANCH  38  48
ENDBRANCH  35  38
ENDBRANCH  33  34
ENDBRANCH  21  22
ENDBRANCH   9  21
TORSDOF 11
ENDMDL
MODEL      178
REMARK 921   NORMALIZED FREE ENERGY PREDICTED BY IDOCK:   33.27 KCAL/MOL
REMARK 922        TOTAL FREE ENERGY PREDICTED BY IDOCK:   50.87 KCAL/MOL
REMARK 923 INTER-LIGAND FREE ENERGY PREDICTED BY IDOCK:   21.52 KCAL/MOL
REMARK 924 INTRA-LIGAND FREE ENERGY PREDICTED BY IDOCK:   29.35 KCAL/MOL
REMARK 927      BINDING AFFINITY PREDICTED BY RF-SCORE:    0.00 PKD
ROOT
HETATM    1  C   UNL     1      -5.574  13.002  68.658  1.00  0.00    -0.069 C  
HETATM    2  N   UNL     1      -5.828  13.668  67.396  1.00  0.00    -0.343 NA 
HETATM    3  C   UNL     1      -6.302  14.964  67.272  1.00  0.00     0.277 A  
HETATM    4  C   UNL     1      -7.125  15.080  66.130  1.00  0.00     3.427 A  
HETATM    5  N   UNL     1      -6.062  15.985  68.130  1.00  0.00    -0.110 NA 
HETATM    6  C   UNL     1      -7.150  13.722  65.644  1.00  0.00     7.435 A  
HETATM    7  H2  UNL     1      -5.481  15.781  68.942  1.00  0.00     0.000 HD 
HETATM    8  H1  UNL     1      -6.411  16.939  68.039  1.00  0.00     0.000 HD 
HETATM    9  N   UNL     1      -6.070  13.016  66.240  1.00  0.00     2.099 NA 
ENDROOT
BRANCH   4  10
HETATM   10  N   UNL     1      -7.767  16.268  65.828  1.00  0.00     0.599 N  
HETATM   11  H   UNL     1      -7.264  16.922  65.228  1.00  0.00     0.000 HD 
BRANCH  10  12
HETATM   12  C   UNL     1      -9.001  16.651  66.252  1.00  0.00    -0.305 C  
HETATM   13  O   UNL     1      -9.814  17.071  65.438  1.00  0.00    -0.531 OA 
BRANCH  12  14
HETATM   14  N   UNL     1      -9.164  16.686  67.604  1.00  0.00    -0.208 N  
HETATM   15  H   UNL     1      -8.982  15.856  68.167  1.00  0.00     0.000 HD 
BRANCH  14  16
HETATM   16  C   UNL     1      -9.600  17.921  68.235  1.00  0.00    -0.312 C  
BRANCH  16  17
HETATM   17  C   UNL     1      -9.748  17.786  69.755  1.00  0.00     0.706 C  
HETATM   18  H2  UNL     1      -9.805  15.723  69.697  1.00  0.00     0.000 HD 
HETATM   19  N   UNL     1     -10.333  16.498  70.097  1.00  0.00     0.034 NA 
HETATM   20  H1  UNL     1     -10.431  16.408  71.109  1.00  0.00     0.000 HD 
ENDBRANCH  16  17
ENDBRANCH  14  16
ENDBRANCH  12  14
ENDBRANCH  10  12
ENDBRANCH   4  10
BRANCH   9  21
HETATM   21  C   UNL     1      -5.409  11.714  65.928  1.00  0.00     0.475 C  
BRANCH  21  22
HETATM   22  C   UNL     1      -6.400  10.364  65.344  1.00  0.00    -0.122 C  
HETATM   23  CA  UNL     1      -6.927   8.706  66.151  1.00  0.00    -0.080 C  
HETATM   24  C   UNL     1      -9.300   7.757  66.265  1.00  0.00    -0.151 C  
HETATM   25  C   UNL     1      -7.007  10.889  63.645  1.00  0.00     0.538 C  
HETATM   26  C   UNL     1      -6.389   7.827  67.761  1.00  0.00    -0.051 C  
HETATM   27  N   UNL     1      -8.073   7.682  65.580  1.00  0.00    -0.123 N  
HETATM   28  O   UNL     1      -9.626   8.070  67.402  1.00  0.00    -0.141 OA 
HETATM   29  S   UNL     1      -8.488   9.509  62.665  1.00  0.00    -0.205 SA 
HETATM   30  C   UNL     1      -8.827   7.842  64.147  1.00  0.00     0.691 C  
HETATM   31  O   UNL     1      -5.165   7.944  68.097  1.00  0.00    -0.029 OA 
HETATM   32  OXT UNL     1      -7.273   7.041  68.186  1.00  0.00    -0.085 OA 
HETATM   33  CA  UNL     1     -10.140   8.013  65.009  1.00  0.00     2.973 C  
BRANCH  33  34
HETATM   34  N   UNL     1     -10.864   9.329  65.061  1.00  0.00     2.032 N  
HETATM   35  C   UNL     1     -11.037  10.250  66.104  1.00  0.00     0.414 C  
HETATM   36  H   UNL     1     -11.307   9.600  64.183  1.00  0.00     0.000 HD 
HETATM   37  O   UNL     1     -11.670  11.258  65.788  1.00  0.00    -0.048 OA 
BRANCH  35  38
HETATM   38  C   UNL     1     -10.488  10.131  67.594  1.00  0.00    -0.245 C  
HETATM   39  C   UNL     1      -9.708  11.181  68.207  1.00  0.00    -0.188 C  
HETATM   40  C   UNL     1      -8.004  13.151  69.911  1.00  0.00     1.980 C  
HETATM   41  N   UNL     1      -9.786  12.499  67.236  1.00  0.00    -0.199 NA 
HETATM   42  N   UNL     1      -7.669  13.972  70.950  1.00  0.00     1.790 NA 
HETATM   43  H   UNL     1      -8.623  10.874  70.554  1.00  0.00     0.000 HD 
HETATM   44  S   UNL     1      -8.457  14.370  67.957  1.00  0.00    -0.176 SA 
HETATM   45  H1  UNL     1      -7.472  13.443  71.799  1.00  0.00     0.000 HD 
HETATM   46  H2  UNL     1      -7.622  14.989  70.885  1.00  0.00     0.000 HD 
HETATM   47  N   UNL     1      -8.722  11.560  69.806  1.00  0.00     1.208 NA 
BRANCH  38  48
HETATM   48  N   UNL     1     -10.798   9.207  68.436  1.00  0.00    -0.447 NA 
HETATM   49  H   UNL     1     -11.096   9.452  69.380  1.00  0.00     0.000 HD 
BRANCH  48  50
HETATM   50  O   UNL     1     -10.727   7.900  68.058  1.00  0.00    -0.161 OA 
HETATM   51  O   UNL     1      -9.036   6.400  70.784  1.00  0.00    -0.143 OA 
HETATM   52  C   UNL     1      -9.332   6.877  69.696  1.00  0.00    -0.145 C  
HETATM   53  C   UNL     1     -11.262   5.729  68.756  1.00  0.00     0.088 C  
HETATM   54  C   UNL     1     -11.356   7.722  70.598  1.00  0.00    -0.275 C  
HETATM   55  C   UNL     1     -10.771   7.091  69.261  1.00  0.00    -0.225 C  
HETATM   56  O   UNL     1      -8.408   7.252  68.790  1.00  0.00    -0.127 OA 
ENDBRANCH  48  50
ENDBRANCH  38  48
ENDBRANCH  35  38
ENDBRANCH  33  34
ENDBRANCH  21  22
ENDBRANCH   9  21
TORSDOF 11
ENDMDL
MODEL      179
REMARK 921   NORMALIZED FREE ENERGY PREDICTED BY IDOCK:   34.84 KCAL/MOL
REMARK 922        TOTAL FREE ENERGY PREDICTED BY IDOCK:   53.46 KCAL/MOL
REMARK 923 INTER-LIGAND FREE ENERGY PREDICTED BY IDOCK:   27.59 KCAL/MOL
REMARK 924 INTRA-LIGAND FREE ENERGY PREDICTED BY IDOCK:   25.87 KCAL/MOL
REMARK 927      BINDING AFFINITY PREDICTED BY RF-SCORE:    0.00 PKD
ROOT
HETATM    1  C   UNL     1     -12.858   9.825  68.180  1.00  0.00     6.739 C  
HETATM    2  N   UNL     1     -11.490   9.864  67.704  1.00  0.00     0.041 NA 
HETATM    3  C   UNL     1     -10.711   8.745  67.461  1.00  0.00    -0.143 A  
HETATM    4  C   UNL     1      -9.355   9.017  67.750  1.00  0.00    -0.140 A  
HETATM    5  N   UNL     1     -11.160   7.535  67.046  1.00  0.00    -0.489 NA 
HETATM    6  C   UNL     1      -9.425  10.367  68.253  1.00  0.00    -0.148 A  
HETATM    7  H2  UNL     1     -12.165   7.440  66.901  1.00  0.00     0.000 HD 
HETATM    8  H1  UNL     1     -10.586   6.712  66.868  1.00  0.00     0.000 HD 
HETATM    9  N   UNL     1     -10.672  10.924  67.858  1.00  0.00    -0.212 NA 
ENDROOT
BRANCH   4  10
HETATM   10  N   UNL     1      -8.388   8.033  67.642  1.00  0.00    -0.127 N  
HETATM   11  H   UNL     1      -7.705   8.139  66.893  1.00  0.00     0.000 HD 
BRANCH  10  12
HETATM   12  C   UNL     1      -8.260   6.936  68.437  1.00  0.00    -0.120 C  
HETATM   13  O   UNL     1      -9.010   5.981  68.272  1.00  0.00    -0.115 OA 
BRANCH  12  14
HETATM   14  N   UNL     1      -7.392   7.074  69.478  1.00  0.00    -0.091 N  
HETATM   15  H   UNL     1      -6.699   7.821  69.476  1.00  0.00     0.000 HD 
BRANCH  14  16
HETATM   16  C   UNL     1      -7.466   6.142  70.592  1.00  0.00    -0.087 C  
BRANCH  16  17
HETATM   17  C   UNL     1      -7.525   6.851  71.950  1.00  0.00    -0.088 C  
HETATM   18  H2  UNL     1      -6.333   5.446  72.883  1.00  0.00     0.000 HD 
HETATM   19  N   UNL     1      -7.227   5.917  73.026  1.00  0.00    -0.092 NA 
HETATM   20  H1  UNL     1      -7.266   6.388  73.929  1.00  0.00     0.000 HD 
ENDBRANCH  16  17
ENDBRANCH  14  16
ENDBRANCH  12  14
ENDBRANCH  10  12
ENDBRANCH   4  10
BRANCH   9  21
HETATM   21  C   UNL     1     -11.194  12.323  67.818  1.00  0.00    -0.276 C  
BRANCH  21  22
HETATM   22  C   UNL     1     -10.143  13.618  67.214  1.00  0.00    -0.239 C  
HETATM   23  CA  UNL     1      -9.437  13.999  65.472  1.00  0.00     0.151 C  
HETATM   24  C   UNL     1      -9.515  16.252  64.261  1.00  0.00     5.209 C  
HETATM   25  C   UNL     1      -9.853  14.751  68.684  1.00  0.00    -0.225 C  
HETATM   26  C   UNL     1      -9.424  13.006  63.840  1.00  0.00     1.453 C  
HETATM   27  N   UNL     1      -8.699  15.393  65.021  1.00  0.00     2.564 N  
HETATM   28  O   UNL     1     -10.467  16.085  63.510  1.00  0.00     2.182 OA 
HETATM   29  S   UNL     1      -8.727  16.649  68.250  1.00  0.00    -0.224 SA 
HETATM   30  C   UNL     1      -8.310  16.605  66.033  1.00  0.00    -0.145 C  
HETATM   31  O   UNL     1      -9.301  11.742  63.938  1.00  0.00    -0.067 OA 
HETATM   32  OXT UNL     1      -9.316  13.754  62.835  1.00  0.00     6.329 OA 
HETATM   33  CA  UNL     1      -9.322  17.465  65.178  1.00  0.00     2.043 C  
BRANCH  33  34
HETATM   34  N   UNL     1     -10.616  17.949  65.768  1.00  0.00    -0.292 N  
HETATM   35  C   UNL     1     -11.025  18.107  67.100  1.00  0.00    -0.031 C  
HETATM   36  H   UNL     1     -11.322  18.208  65.078  1.00  0.00     0.000 HD 
HETATM   37  O   UNL     1     -12.160  18.565  67.229  1.00  0.00     2.179 OA 
BRANCH  35  38
HETATM   38  C   UNL     1     -10.178  17.788  68.410  1.00  0.00    -0.384 C  
HETATM   39  C   UNL     1      -8.903  18.415  68.667  1.00  0.00    -0.283 C  
HETATM   40  C   UNL     1      -6.145  19.498  69.622  1.00  0.00    -0.282 C  
HETATM   41  N   UNL     1      -8.708  19.626  67.581  1.00  0.00    -0.313 NA 
HETATM   42  N   UNL     1      -5.230  20.115  70.428  1.00  0.00    -0.230 NA 
HETATM   43  H   UNL     1      -7.425  17.711  70.693  1.00  0.00     0.000 HD 
HETATM   44  S   UNL     1      -6.593  20.765  67.697  1.00  0.00    -0.350 SA 
HETATM   45  H1  UNL     1      -5.035  19.564  71.265  1.00  0.00     0.000 HD 
HETATM   46  H2  UNL     1      -4.796  21.014  70.220  1.00  0.00     0.000 HD 
HETATM   47  N   UNL     1      -7.443  18.363  69.909  1.00  0.00     0.651 NA 
BRANCH  38  48
HETATM   48  N   UNL     1     -10.587  17.096  69.417  1.00  0.00    -0.349 NA 
HETATM   49  H   UNL     1     -11.365  17.430  69.986  1.00  0.00     0.000 HD 
BRANCH  48  50
HETATM   50  O   UNL     1      -9.974  15.918  69.717  1.00  0.00    -0.267 OA 
HETATM   51  O   UNL     1     -11.881  14.732  72.457  1.00  0.00    -0.264 OA 
HETATM   52  C   UNL     1     -11.005  15.205  71.744  1.00  0.00     0.096 C  
HETATM   53  C   UNL     1     -10.379  13.628  69.998  1.00  0.00     1.235 C  
HETATM   54  C   UNL     1     -12.516  15.302  69.918  1.00  0.00    -0.275 C  
HETATM   55  C   UNL     1     -10.985  15.016  70.237  1.00  0.00    -0.209 C  
HETATM   56  O   UNL     1      -9.981  15.931  72.234  1.00  0.00     3.281 OA 
ENDBRANCH  48  50
ENDBRANCH  38  48
ENDBRANCH  35  38
ENDBRANCH  33  34
ENDBRANCH  21  22
ENDBRANCH   9  21
TORSDOF 11
ENDMDL
MODEL      180
REMARK 921   NORMALIZED FREE ENERGY PREDICTED BY IDOCK:   37.48 KCAL/MOL
REMARK 922        TOTAL FREE ENERGY PREDICTED BY IDOCK:   57.80 KCAL/MOL
REMARK 923 INTER-LIGAND FREE ENERGY PREDICTED BY IDOCK:   39.44 KCAL/MOL
REMARK 924 INTRA-LIGAND FREE ENERGY PREDICTED BY IDOCK:   18.36 KCAL/MOL
REMARK 927      BINDING AFFINITY PREDICTED BY RF-SCORE:    0.00 PKD
ROOT
HETATM    1  C   UNL     1      -9.713  16.176  70.770  1.00  0.00     1.855 C  
HETATM    2  N   UNL     1     -11.034  15.611  70.955  1.00  0.00    -0.305 NA 
HETATM    3  C   UNL     1     -11.283  14.309  71.356  1.00  0.00     0.935 A  
HETATM    4  C   UNL     1     -12.468  13.827  70.756  1.00  0.00    -0.370 A  
HETATM    5  N   UNL     1     -10.499  13.563  72.171  1.00  0.00     6.388 NA 
HETATM    6  C   UNL     1     -12.845  14.936  69.914  1.00  0.00    -0.000 A  
HETATM    7  H2  UNL     1      -9.647  13.999  72.521  1.00  0.00     0.000 HD 
HETATM    8  H1  UNL     1     -10.683  12.604  72.467  1.00  0.00     0.000 HD 
HETATM    9  N   UNL     1     -12.145  16.090  70.358  1.00  0.00    -0.269 NA 
ENDROOT
BRANCH   4  10
HETATM   10  N   UNL     1     -12.894  12.526  70.957  1.00  0.00    -0.223 N  
HETATM   11  H   UNL     1     -13.670  12.391  71.605  1.00  0.00     0.000 HD 
BRANCH  10  12
HETATM   12  C   UNL     1     -12.380  11.408  70.376  1.00  0.00    -0.319 C  
HETATM   13  O   UNL     1     -11.236  11.430  69.939  1.00  0.00    -0.235 OA 
BRANCH  12  14
HETATM   14  N   UNL     1     -13.269  10.395  70.184  1.00  0.00    -0.408 N  
HETATM   15  H   UNL     1     -13.177   9.773  69.381  1.00  0.00     0.000 HD 
BRANCH  14  16
HETATM   16  C   UNL     1     -14.350  10.208  71.138  1.00  0.00     1.272 C  
BRANCH  16  17
HETATM   17  C   UNL     1     -13.950   9.308  72.313  1.00  0.00    -0.369 C  
HETATM   18  H2  UNL     1     -13.563   7.679  71.105  1.00  0.00     0.000 HD 
HETATM   19  N   UNL     1     -14.087   7.905  71.951  1.00  0.00    -0.505 NA 
HETATM   20  H1  UNL     1     -13.820   7.306  72.732  1.00  0.00     0.000 HD 
ENDBRANCH  16  17
ENDBRANCH  14  16
ENDBRANCH  12  14
ENDBRANCH  10  12
ENDBRANCH   4  10
BRANCH   9  21
HETATM   21  C   UNL     1     -12.320  17.550  70.097  1.00  0.00     6.859 C  
BRANCH  21  22
HETATM   22  C   UNL     1     -11.499  18.281  68.705  1.00  0.00     1.888 C  
HETATM   23  CA  UNL     1      -9.771  17.990  67.927  1.00  0.00    -0.297 C  
HETATM   24  C   UNL     1      -9.265  17.586  65.451  1.00  0.00     1.217 C  
HETATM   25  C   UNL     1     -12.749  19.465  67.954  1.00  0.00     5.722 C  
HETATM   26  C   UNL     1      -8.248  16.990  68.506  1.00  0.00    -0.259 C  
HETATM   27  N   UNL     1      -9.265  18.555  66.473  1.00  0.00    -0.310 N  
HETATM   28  O   UNL     1      -9.151  16.368  65.429  1.00  0.00    -0.274 OA 
HETATM   29  S   UNL     1     -12.141  20.432  66.016  1.00  0.00     4.731 SA 
HETATM   30  C   UNL     1     -10.105  19.587  65.538  1.00  0.00     0.124 C  
HETATM   31  O   UNL     1      -8.016  16.972  69.759  1.00  0.00     0.496 OA 
HETATM   32  OXT UNL     1      -7.518  16.645  67.542  1.00  0.00    -0.142 OA 
HETATM   33  CA  UNL     1     -10.136  18.404  64.491  1.00  0.00     4.932 C  
BRANCH  33  34
HETATM   34  N   UNL     1     -11.424  17.708  64.150  1.00  0.00     2.794 N  
HETATM   35  C   UNL     1     -11.822  16.372  64.299  1.00  0.00     0.408 C  
HETATM   36  H   UNL     1     -12.133  18.315  63.738  1.00  0.00     0.000 HD 
HETATM   37  O   UNL     1     -12.978  16.147  63.939  1.00  0.00    -0.091 OA 
BRANCH  35  38
HETATM   38  C   UNL     1     -10.961  15.172  64.894  1.00  0.00    -0.419 C  
HETATM   39  C   UNL     1     -11.188  13.801  64.501  1.00  0.00    -0.373 C  
HETATM   40  C   UNL     1     -11.325  10.738  63.965  1.00  0.00     1.036 C  
HETATM   41  N   UNL     1     -12.202  13.806  63.213  1.00  0.00    -0.634 NA 
HETATM   42  N   UNL     1     -10.906   9.491  63.593  1.00  0.00     3.346 NA 
HETATM   43  H   UNL     1      -9.934  11.831  65.653  1.00  0.00     0.000 HD 
HETATM   44  S   UNL     1     -12.858  11.630  62.427  1.00  0.00     3.192 SA 
HETATM   45  H1  UNL     1     -10.240   9.103  64.261  1.00  0.00     0.000 HD 
HETATM   46  H2  UNL     1     -11.221   9.008  62.751  1.00  0.00     0.000 HD 
HETATM   47  N   UNL     1     -10.614  12.020  64.918  1.00  0.00    -0.279 NA 
BRANCH  38  48
HETATM   48  N   UNL     1      -9.911  15.295  65.630  1.00  0.00    -0.351 NA 
HETATM   49  H   UNL     1      -9.008  15.500  65.204  1.00  0.00     0.000 HD 
BRANCH  48  50
HETATM   50  O   UNL     1     -10.015  15.150  66.980  1.00  0.00    -0.237 OA 
HETATM   51  O   UNL     1     -11.132  11.805  67.313  1.00  0.00    -0.253 OA 
HETATM   52  C   UNL     1     -11.055  13.027  67.277  1.00  0.00    -0.273 C  
HETATM   53  C   UNL     1      -9.301  13.817  68.769  1.00  0.00     0.000 C  
HETATM   54  C   UNL     1      -8.923  12.880  66.248  1.00  0.00     0.069 C  
HETATM   55  C   UNL     1      -9.727  13.764  67.297  1.00  0.00    -0.242 C  
HETATM   56  O   UNL     1     -12.140  13.823  67.219  1.00  0.00    -0.389 OA 
ENDBRANCH  48  50
ENDBRANCH  38  48
ENDBRANCH  35  38
ENDBRANCH  33  34
ENDBRANCH  21  22
ENDBRANCH   9  21
TORSDOF 11
ENDMDL
MODEL      181
REMARK 921   NORMALIZED FREE ENERGY PREDICTED BY IDOCK:   37.81 KCAL/MOL
REMARK 922        TOTAL FREE ENERGY PREDICTED BY IDOCK:   58.35 KCAL/MOL
REMARK 923 INTER-LIGAND FREE ENERGY PREDICTED BY IDOCK:    8.18 KCAL/MOL
REMARK 924 INTRA-LIGAND FREE ENERGY PREDICTED BY IDOCK:   50.17 KCAL/MOL
REMARK 927      BINDING AFFINITY PREDICTED BY RF-SCORE:    0.00 PKD
ROOT
HETATM    1  C   UNL     1      -6.441  13.641  69.786  1.00  0.00    -0.060 C  
HETATM    2  N   UNL     1      -7.722  14.060  69.256  1.00  0.00     0.063 NA 
HETATM    3  C   UNL     1      -8.436  15.161  69.700  1.00  0.00    -0.064 A  
HETATM    4  C   UNL     1      -9.824  14.918  69.608  1.00  0.00     0.006 A  
HETATM    5  N   UNL     1      -7.906  16.305  70.198  1.00  0.00     1.017 NA 
HETATM    6  C   UNL     1      -9.856  13.554  69.142  1.00  0.00     0.332 A  
HETATM    7  H2  UNL     1      -6.889  16.360  70.251  1.00  0.00     0.000 HD 
HETATM    8  H1  UNL     1      -8.431  17.115  70.525  1.00  0.00     0.000 HD 
HETATM    9  N   UNL     1      -8.575  13.233  68.616  1.00  0.00    -0.045 NA 
ENDROOT
BRANCH   4  10
HETATM   10  N   UNL     1     -10.745  15.851  70.051  1.00  0.00    -0.322 N  
HETATM   11  H   UNL     1     -11.586  15.490  70.501  1.00  0.00     0.000 HD 
BRANCH  10  12
HETATM   12  C   UNL     1     -10.639  17.204  69.948  1.00  0.00     0.200 C  
HETATM   13  O   UNL     1     -11.450  17.917  70.526  1.00  0.00     2.435 OA 
BRANCH  12  14
HETATM   14  N   UNL     1      -9.713  17.645  69.052  1.00  0.00    -0.237 N  
HETATM   15  H   UNL     1      -9.193  16.982  68.478  1.00  0.00     0.000 HD 
BRANCH  14  16
HETATM   16  C   UNL     1      -9.474  19.073  68.924  1.00  0.00    -0.342 C  
BRANCH  16  17
HETATM   17  C   UNL     1      -9.687  19.827  70.243  1.00  0.00     0.845 C  
HETATM   18  H2  UNL     1      -9.237  18.182  71.407  1.00  0.00     0.000 HD 
HETATM   19  N   UNL     1      -9.964  18.893  71.324  1.00  0.00     2.441 NA 
HETATM   20  H1  UNL     1     -10.105  19.394  72.201  1.00  0.00     0.000 HD 
ENDBRANCH  16  17
ENDBRANCH  14  16
ENDBRANCH  12  14
ENDBRANCH  10  12
ENDBRANCH   4  10
BRANCH   9  21
HETATM   21  C   UNL     1      -8.079  12.122  67.750  1.00  0.00    -0.152 C  
BRANCH  21  22
HETATM   22  C   UNL     1      -8.483  10.450  68.180  1.00  0.00    -0.121 C  
HETATM   23  CA  UNL     1      -7.803   9.264  69.525  1.00  0.00    -0.086 C  
HETATM   24  C   UNL     1      -9.189   7.891  71.183  1.00  0.00    -0.147 C  
HETATM   25  C   UNL     1      -9.905   9.973  67.049  1.00  0.00    -0.238 C  
HETATM   26  C   UNL     1      -6.310   9.380  70.713  1.00  0.00    -0.081 C  
HETATM   27  N   UNL     1      -8.474   7.835  69.972  1.00  0.00    -0.133 N  
HETATM   28  O   UNL     1      -9.117   8.589  72.186  1.00  0.00    -0.217 OA 
HETATM   29  S   UNL     1     -10.845   7.969  67.449  1.00  0.00     0.069 SA 
HETATM   30  C   UNL     1      -9.734   7.129  69.224  1.00  0.00    -0.159 C  
HETATM   31  O   UNL     1      -5.263   9.948  70.263  1.00  0.00    -0.035 OA 
HETATM   32  OXT UNL     1      -6.470   8.673  71.740  1.00  0.00    -0.064 OA 
HETATM   33  CA  UNL     1     -10.488   7.325  70.598  1.00  0.00    -0.214 C  
BRANCH  33  34
HETATM   34  N   UNL     1     -11.637   8.285  70.719  1.00  0.00    -0.362 N  
HETATM   35  C   UNL     1     -12.218   9.157  69.787  1.00  0.00     0.963 C  
HETATM   36  H   UNL     1     -12.072   8.307  71.642  1.00  0.00     0.000 HD 
HETATM   37  O   UNL     1     -13.183   9.788  70.218  1.00  0.00     0.121 OA 
BRANCH  35  38
HETATM   38  C   UNL     1     -11.779   9.376  68.272  1.00  0.00     1.320 C  
HETATM   39  C   UNL     1     -11.088   8.354  67.521  1.00  0.00     0.422 C  
HETATM   40  C   UNL     1      -9.592   6.472  65.544  1.00  0.00     0.620 C  
HETATM   41  N   UNL     1     -11.140   6.966  68.391  1.00  0.00    -0.123 NA 
HETATM   42  N   UNL     1      -9.368   5.725  64.421  1.00  0.00     0.076 NA 
HETATM   43  H   UNL     1     -10.173   8.811  65.126  1.00  0.00     0.000 HD 
HETATM   44  S   UNL     1      -9.941   5.117  67.428  1.00  0.00    -0.179 SA 
HETATM   45  H1  UNL     1      -9.216   6.314  63.602  1.00  0.00     0.000 HD 
HETATM   46  H2  UNL     1      -9.354   4.706  64.405  1.00  0.00     0.000 HD 
HETATM   47  N   UNL     1     -10.241   8.071  65.825  1.00  0.00     0.862 NA 
BRANCH  38  48
HETATM   48  N   UNL     1     -12.118  10.373  67.530  1.00  0.00     0.504 NA 
HETATM   49  H   UNL     1     -12.960  10.908  67.743  1.00  0.00     0.000 HD 
BRANCH  48  50
HETATM   50  O   UNL     1     -11.344  10.709  66.460  1.00  0.00    -0.075 OA 
HETATM   51  O   UNL     1     -13.107  13.446  65.063  1.00  0.00    -0.734 OA 
HETATM   52  C   UNL     1     -12.620  12.345  65.288  1.00  0.00    -0.034 C  
HETATM   53  C   UNL     1     -10.199  12.502  65.482  1.00  0.00    -0.295 C  
HETATM   54  C   UNL     1     -11.978  13.050  67.459  1.00  0.00    -0.360 C  
HETATM   55  C   UNL     1     -11.470  12.140  66.258  1.00  0.00    -0.374 C  
HETATM   56  O   UNL     1     -13.061  11.219  64.692  1.00  0.00     1.137 OA 
ENDBRANCH  48  50
ENDBRANCH  38  48
ENDBRANCH  35  38
ENDBRANCH  33  34
ENDBRANCH  21  22
ENDBRANCH   9  21
TORSDOF 11
ENDMDL
MODEL      182
REMARK 921   NORMALIZED FREE ENERGY PREDICTED BY IDOCK:   38.28 KCAL/MOL
REMARK 922        TOTAL FREE ENERGY PREDICTED BY IDOCK:   59.11 KCAL/MOL
REMARK 923 INTER-LIGAND FREE ENERGY PREDICTED BY IDOCK:   38.97 KCAL/MOL
REMARK 924 INTRA-LIGAND FREE ENERGY PREDICTED BY IDOCK:   20.14 KCAL/MOL
REMARK 927      BINDING AFFINITY PREDICTED BY RF-SCORE:    0.00 PKD
ROOT
HETATM    1  C   UNL     1      -9.857  20.449  68.597  1.00  0.00     0.074 C  
HETATM    2  N   UNL     1      -9.801  19.132  67.996  1.00  0.00    -0.335 NA 
HETATM    3  C   UNL     1      -9.747  18.892  66.633  1.00  0.00    -0.347 A  
HETATM    4  C   UNL     1     -10.430  17.696  66.317  1.00  0.00    -0.292 A  
HETATM    5  N   UNL     1      -9.166  19.691  65.706  1.00  0.00    -0.345 NA 
HETATM    6  C   UNL     1     -10.950  17.303  67.603  1.00  0.00    -0.133 A  
HETATM    7  H2  UNL     1      -8.730  20.549  66.042  1.00  0.00     0.000 HD 
HETATM    8  H1  UNL     1      -9.126  19.514  64.703  1.00  0.00     0.000 HD 
HETATM    9  N   UNL     1     -10.235  18.011  68.607  1.00  0.00    -0.387 NA 
ENDROOT
BRANCH   4  10
HETATM   10  N   UNL     1     -10.566  17.275  65.006  1.00  0.00     0.060 N  
HETATM   11  H   UNL     1     -10.520  17.995  64.285  1.00  0.00     0.000 HD 
BRANCH  10  12
HETATM   12  C   UNL     1     -10.754  15.996  64.582  1.00  0.00    -0.042 C  
HETATM   13  O   UNL     1     -11.617  15.760  63.745  1.00  0.00    -0.346 OA 
BRANCH  12  14
HETATM   14  N   UNL     1     -10.056  15.050  65.270  1.00  0.00    -0.357 N  
HETATM   15  H   UNL     1     -10.176  14.061  65.052  1.00  0.00     0.000 HD 
BRANCH  14  16
HETATM   16  C   UNL     1      -9.139  15.467  66.318  1.00  0.00    -0.320 C  
BRANCH  16  17
HETATM   17  C   UNL     1      -9.547  14.943  67.700  1.00  0.00    -0.200 C  
HETATM   18  H2  UNL     1     -10.838  13.528  66.928  1.00  0.00     0.000 HD 
HETATM   19  N   UNL     1     -10.835  14.269  67.630  1.00  0.00    -0.265 NA 
HETATM   20  H1  UNL     1     -11.107  13.920  68.549  1.00  0.00     0.000 HD 
ENDBRANCH  16  17
ENDBRANCH  14  16
ENDBRANCH  12  14
ENDBRANCH  10  12
ENDBRANCH   4  10
BRANCH   9  21
HETATM   21  C   UNL     1     -10.106  17.830  70.084  1.00  0.00     1.155 C  
BRANCH  21  22
HETATM   22  C   UNL     1      -8.611  17.135  70.739  1.00  0.00     5.300 C  
HETATM   23  CA  UNL     1      -8.270  15.574  71.798  1.00  0.00     5.919 C  
HETATM   24  C   UNL     1      -6.515  13.771  71.329  1.00  0.00     0.839 C  
HETATM   25  C   UNL     1      -7.228  18.233  70.098  1.00  0.00     1.202 C  
HETATM   26  C   UNL     1      -9.427  14.354  72.708  1.00  0.00     8.291 C  
HETATM   27  N   UNL     1      -6.796  14.919  72.095  1.00  0.00     1.808 N  
HETATM   28  O   UNL     1      -7.202  12.903  70.807  1.00  0.00     1.844 OA 
HETATM   29  S   UNL     1      -5.137  17.537  70.547  1.00  0.00    -0.267 SA 
HETATM   30  C   UNL     1      -5.379  15.592  71.664  1.00  0.00     0.146 C  
HETATM   31  O   UNL     1     -10.478  14.845  73.235  1.00  0.00     2.244 OA 
HETATM   32  OXT UNL     1      -8.891  13.229  72.869  1.00  0.00    13.514 OA 
HETATM   33  CA  UNL     1      -5.198  14.310  70.758  1.00  0.00    -0.121 C  
BRANCH  33  34
HETATM   34  N   UNL     1      -5.223  14.414  69.260  1.00  0.00    -0.079 N  
HETATM   35  C   UNL     1      -6.055  13.815  68.303  1.00  0.00    -0.111 C  
HETATM   36  H   UNL     1      -4.507  15.028  68.869  1.00  0.00     0.000 HD 
HETATM   37  O   UNL     1      -5.813  14.151  67.143  1.00  0.00    -0.195 OA 
BRANCH  35  38
HETATM   38  C   UNL     1      -7.255  12.804  68.570  1.00  0.00    -0.114 C  
HETATM   39  C   UNL     1      -7.217  11.841  69.646  1.00  0.00     0.277 C  
HETATM   40  C   UNL     1      -7.567   9.623  71.802  1.00  0.00     1.173 C  
HETATM   41  N   UNL     1      -5.942  12.209  70.608  1.00  0.00    -0.285 NA 
HETATM   42  N   UNL     1      -8.123   8.943  72.849  1.00  0.00    -0.298 NA 
HETATM   43  H   UNL     1      -9.079  10.042  69.927  1.00  0.00     0.000 HD 
HETATM   44  S   UNL     1      -5.562  10.676  72.422  1.00  0.00     0.856 SA 
HETATM   45  H1  UNL     1      -8.994   8.486  72.581  1.00  0.00     0.000 HD 
HETATM   46  H2  UNL     1      -7.716   8.898  73.784  1.00  0.00     0.000 HD 
HETATM   47  N   UNL     1      -8.217  10.370  70.362  1.00  0.00     0.264 NA 
BRANCH  38  48
HETATM   48  N   UNL     1      -8.405  12.836  67.992  1.00  0.00    -0.163 NA 
HETATM   49  H   UNL     1      -8.716  13.682  67.515  1.00  0.00     0.000 HD 
BRANCH  48  50
HETATM   50  O   UNL     1      -9.204  11.733  68.021  1.00  0.00    -0.168 OA 
HETATM   51  O   UNL     1     -10.450  11.595  64.708  1.00  0.00    -0.265 OA 
HETATM   52  C   UNL     1     -10.321  11.746  65.917  1.00  0.00    -0.241 C  
HETATM   53  C   UNL     1      -9.578   9.677  66.963  1.00  0.00    -0.221 C  
HETATM   54  C   UNL     1      -7.973  11.481  65.719  1.00  0.00     0.359 C  
HETATM   55  C   UNL     1      -9.174  11.133  66.700  1.00  0.00    -0.175 C  
HETATM   56  O   UNL     1     -11.187  12.467  66.657  1.00  0.00    -0.281 OA 
ENDBRANCH  48  50
ENDBRANCH  38  48
ENDBRANCH  35  38
ENDBRANCH  33  34
ENDBRANCH  21  22
ENDBRANCH   9  21
TORSDOF 11
ENDMDL
MODEL      183
REMARK 921   NORMALIZED FREE ENERGY PREDICTED BY IDOCK:   43.60 KCAL/MOL
REMARK 922        TOTAL FREE ENERGY PREDICTED BY IDOCK:   67.85 KCAL/MOL
REMARK 923 INTER-LIGAND FREE ENERGY PREDICTED BY IDOCK:   17.01 KCAL/MOL
REMARK 924 INTRA-LIGAND FREE ENERGY PREDICTED BY IDOCK:   50.85 KCAL/MOL
REMARK 927      BINDING AFFINITY PREDICTED BY RF-SCORE:    0.00 PKD
ROOT
HETATM    1  C   UNL     1     -12.557   4.239  70.103  1.00  0.00    15.020 C  
HETATM    2  N   UNL     1     -11.214   4.624  70.486  1.00  0.00     1.590 NA 
HETATM    3  C   UNL     1     -10.417   3.922  71.374  1.00  0.00     0.371 A  
HETATM    4  C   UNL     1      -9.594   4.808  72.104  1.00  0.00    -0.153 A  
HETATM    5  N   UNL     1     -10.433   2.581  71.570  1.00  0.00     0.432 NA 
HETATM    6  C   UNL     1     -10.035   6.092  71.615  1.00  0.00    -0.179 A  
HETATM    7  H2  UNL     1     -11.093   2.039  71.012  1.00  0.00     0.000 HD 
HETATM    8  H1  UNL     1      -9.847   2.064  72.224  1.00  0.00     0.000 HD 
HETATM    9  N   UNL     1     -10.744   5.886  70.401  1.00  0.00    -0.282 NA 
ENDROOT
BRANCH   4  10
HETATM   10  N   UNL     1      -8.751   4.346  73.099  1.00  0.00    -0.107 N  
HETATM   11  H   UNL     1      -8.926   4.687  74.044  1.00  0.00     0.000 HD 
BRANCH  10  12
HETATM   12  C   UNL     1      -7.711   3.483  72.942  1.00  0.00    -0.061 C  
HETATM   13  O   UNL     1      -7.461   2.674  73.827  1.00  0.00    -0.047 OA 
BRANCH  12  14
HETATM   14  N   UNL     1      -6.923   3.717  71.856  1.00  0.00    -0.029 N  
HETATM   15  H   UNL     1      -7.106   3.240  70.973  1.00  0.00     0.000 HD 
BRANCH  14  16
HETATM   16  C   UNL     1      -5.819   4.656  71.969  1.00  0.00    -0.016 C  
BRANCH  16  17
HETATM   17  C   UNL     1      -6.236   5.983  72.615  1.00  0.00    -0.053 C  
HETATM   18  H2  UNL     1      -7.728   5.112  73.747  1.00  0.00     0.000 HD 
HETATM   19  N   UNL     1      -7.602   5.900  73.111  1.00  0.00    -0.098 NA 
HETATM   20  H1  UNL     1      -7.880   6.782  73.541  1.00  0.00     0.000 HD 
ENDBRANCH  16  17
ENDBRANCH  14  16
ENDBRANCH  12  14
ENDBRANCH  10  12
ENDBRANCH   4  10
BRANCH   9  21
HETATM   21  C   UNL     1     -11.173   6.804  69.304  1.00  0.00    -0.205 C  
BRANCH  21  22
HETATM   22  C   UNL     1      -9.940   7.708  68.406  1.00  0.00    -0.192 C  
HETATM   23  CA  UNL     1      -9.239   7.518  66.631  1.00  0.00    -0.162 C  
HETATM   24  C   UNL     1      -8.976   9.377  64.892  1.00  0.00    -0.209 C  
HETATM   25  C   UNL     1      -9.413   9.104  69.547  1.00  0.00    -0.170 C  
HETATM   26  C   UNL     1      -9.449   6.163  65.299  1.00  0.00     0.570 C  
HETATM   27  N   UNL     1      -8.292   8.607  65.851  1.00  0.00    -0.128 N  
HETATM   28  O   UNL     1      -9.968   9.194  64.199  1.00  0.00     1.160 OA 
HETATM   29  S   UNL     1      -7.999  10.612  68.662  1.00  0.00    -0.137 SA 
HETATM   30  C   UNL     1      -7.670   9.948  66.531  1.00  0.00    -0.107 C  
HETATM   31  O   UNL     1      -9.537   4.961  65.713  1.00  0.00    -0.161 OA 
HETATM   32  OXT UNL     1      -9.250   6.607  64.141  1.00  0.00     1.091 OA 
HETATM   33  CA  UNL     1      -8.551  10.729  65.477  1.00  0.00    -0.176 C  
BRANCH  33  34
HETATM   34  N   UNL     1      -9.724  11.559  65.915  1.00  0.00    -0.225 N  
HETATM   35  C   UNL     1      -9.863  12.494  66.950  1.00  0.00    -0.227 C  
HETATM   36  H   UNL     1     -10.570  11.416  65.362  1.00  0.00     0.000 HD 
HETATM   37  O   UNL     1     -10.973  13.022  67.009  1.00  0.00    -0.258 OA 
BRANCH  35  38
HETATM   38  C   UNL     1      -8.750  12.940  67.999  1.00  0.00    -0.191 C  
HETATM   39  C   UNL     1      -8.054  11.983  68.827  1.00  0.00     0.007 C  
HETATM   40  C   UNL     1      -6.327  10.305  70.799  1.00  0.00    -0.028 C  
HETATM   41  N   UNL     1      -8.407  10.483  68.271  1.00  0.00    -0.118 NA 
HETATM   42  N   UNL     1      -5.207   9.790  71.388  1.00  0.00    -0.066 NA 
HETATM   43  H   UNL     1      -6.409  12.746  70.696  1.00  0.00     0.000 HD 
HETATM   44  S   UNL     1      -7.476   8.677  69.557  1.00  0.00    -0.074 SA 
HETATM   45  H1  UNL     1      -4.707  10.497  71.928  1.00  0.00     0.000 HD 
HETATM   46  H2  UNL     1      -4.907   8.819  71.299  1.00  0.00     0.000 HD 
HETATM   47  N   UNL     1      -6.790  11.904  70.266  1.00  0.00     0.264 NA 
BRANCH  38  48
HETATM   48  N   UNL     1      -8.253  14.123  68.107  1.00  0.00    -0.139 NA 
HETATM   49  H   UNL     1      -7.988  14.486  69.022  1.00  0.00     0.000 HD 
BRANCH  48  50
HETATM   50  O   UNL     1      -8.083  14.887  66.992  1.00  0.00    -0.205 OA 
HETATM   51  O   UNL     1     -10.870  13.979  65.003  1.00  0.00    -0.346 OA 
HETATM   52  C   UNL     1      -9.747  14.110  65.474  1.00  0.00    -0.132 C  
HETATM   53  C   UNL     1      -9.157  16.466  65.636  1.00  0.00     0.123 C  
HETATM   54  C   UNL     1     -10.661  15.090  67.430  1.00  0.00    -0.271 C  
HETATM   55  C   UNL     1      -9.399  15.202  66.470  1.00  0.00    -0.280 C  
HETATM   56  O   UNL     1      -8.722  13.298  65.148  1.00  0.00     1.609 OA 
ENDBRANCH  48  50
ENDBRANCH  38  48
ENDBRANCH  35  38
ENDBRANCH  33  34
ENDBRANCH  21  22
ENDBRANCH   9  21
TORSDOF 11
ENDMDL
MODEL      184
REMARK 921   NORMALIZED FREE ENERGY PREDICTED BY IDOCK:   49.37 KCAL/MOL
REMARK 922        TOTAL FREE ENERGY PREDICTED BY IDOCK:   77.34 KCAL/MOL
REMARK 923 INTER-LIGAND FREE ENERGY PREDICTED BY IDOCK:   36.04 KCAL/MOL
REMARK 924 INTRA-LIGAND FREE ENERGY PREDICTED BY IDOCK:   41.30 KCAL/MOL
REMARK 927      BINDING AFFINITY PREDICTED BY RF-SCORE:    0.00 PKD
ROOT
HETATM    1  C   UNL     1     -13.981   8.298  69.299  1.00  0.00     8.867 C  
HETATM    2  N   UNL     1     -12.578   8.071  69.019  1.00  0.00     3.798 NA 
HETATM    3  C   UNL     1     -12.062   6.906  68.475  1.00  0.00     2.166 A  
HETATM    4  C   UNL     1     -10.770   6.653  68.988  1.00  0.00    -0.259 A  
HETATM    5  N   UNL     1     -12.699   6.084  67.607  1.00  0.00     6.093 NA 
HETATM    6  C   UNL     1     -10.611   7.730  69.933  1.00  0.00    -0.239 A  
HETATM    7  H2  UNL     1     -13.644   6.346  67.328  1.00  0.00     0.000 HD 
HETATM    8  H1  UNL     1     -12.320   5.226  67.206  1.00  0.00     0.000 HD 
HETATM    9  N   UNL     1     -11.574   8.731  69.634  1.00  0.00     0.303 NA 
ENDROOT
BRANCH   4  10
HETATM   10  N   UNL     1     -10.074   5.509  68.639  1.00  0.00    -0.169 N  
HETATM   11  H   UNL     1      -9.664   5.489  67.705  1.00  0.00     0.000 HD 
BRANCH  10  12
HETATM   12  C   UNL     1      -9.882   4.410  69.417  1.00  0.00    -0.168 C  
HETATM   13  O   UNL     1      -9.835   3.303  68.893  1.00  0.00     0.011 OA 
BRANCH  12  14
HETATM   14  N   UNL     1      -9.924   4.636  70.759  1.00  0.00    -0.218 N  
HETATM   15  H   UNL     1     -10.676   5.191  71.165  1.00  0.00     0.000 HD 
BRANCH  14  16
HETATM   16  C   UNL     1      -8.883   4.076  71.606  1.00  0.00    -0.108 C  
BRANCH  16  17
HETATM   17  C   UNL     1      -8.539   4.984  72.793  1.00  0.00    -0.119 C  
HETATM   18  H2  UNL     1      -7.296   6.195  71.674  1.00  0.00     0.000 HD 
HETATM   19  N   UNL     1      -7.283   5.680  72.555  1.00  0.00    -0.088 NA 
HETATM   20  H1  UNL     1      -7.053   6.284  73.344  1.00  0.00     0.000 HD 
ENDBRANCH  16  17
ENDBRANCH  14  16
ENDBRANCH  12  14
ENDBRANCH  10  12
ENDBRANCH   4  10
BRANCH   9  21
HETATM   21  C   UNL     1     -11.719  10.160  70.044  1.00  0.00    -0.223 C  
BRANCH  21  22
HETATM   22  C   UNL     1     -10.943  11.419  69.065  1.00  0.00    -0.288 C  
HETATM   23  CA  UNL     1     -11.398  13.251  68.723  1.00  0.00    -0.290 C  
HETATM   24  C   UNL     1      -9.834  15.267  68.914  1.00  0.00    -0.221 C  
HETATM   25  C   UNL     1      -9.372  10.635  68.397  1.00  0.00    -0.163 C  
HETATM   26  C   UNL     1     -12.952  14.290  69.121  1.00  0.00     1.161 C  
HETATM   27  N   UNL     1     -10.427  14.364  68.011  1.00  0.00    -0.235 N  
HETATM   28  O   UNL     1     -10.147  15.706  70.013  1.00  0.00    -0.293 OA 
HETATM   29  S   UNL     1      -7.994  12.011  67.271  1.00  0.00    -0.178 SA 
HETATM   30  C   UNL     1      -8.982  14.038  67.339  1.00  0.00    -0.206 C  
HETATM   31  O   UNL     1     -14.075  13.689  69.061  1.00  0.00     5.613 OA 
HETATM   32  OXT UNL     1     -12.694  15.518  69.182  1.00  0.00     0.120 OA 
HETATM   33  CA  UNL     1      -8.398  14.994  68.453  1.00  0.00    -0.154 C  
BRANCH  33  34
HETATM   34  N   UNL     1      -7.534  14.455  69.559  1.00  0.00    -0.356 N  
HETATM   35  C   UNL     1      -6.928  13.203  69.734  1.00  0.00     0.357 C  
HETATM   36  H   UNL     1      -7.359  15.117  70.315  1.00  0.00     0.000 HD 
HETATM   37  O   UNL     1      -6.251  13.109  70.758  1.00  0.00    -0.102 OA 
BRANCH  35  38
HETATM   38  C   UNL     1      -7.008  11.950  68.755  1.00  0.00    -0.104 C  
HETATM   39  C   UNL     1      -7.382  12.088  67.367  1.00  0.00    -0.150 C  
HETATM   40  C   UNL     1      -8.139  11.906  64.353  1.00  0.00     2.242 C  
HETATM   41  N   UNL     1      -7.390  13.686  67.003  1.00  0.00     0.132 NA 
HETATM   42  N   UNL     1      -8.002  11.633  63.021  1.00  0.00     0.126 NA 
HETATM   43  H   UNL     1      -7.734  10.008  65.840  1.00  0.00     0.000 HD 
HETATM   44  S   UNL     1      -8.111  14.216  64.770  1.00  0.00     9.990 SA 
HETATM   45  H1  UNL     1      -8.015  10.630  62.839  1.00  0.00     0.000 HD 
HETATM   46  H2  UNL     1      -7.901  12.345  62.298  1.00  0.00     0.000 HD 
HETATM   47  N   UNL     1      -7.757  11.027  65.815  1.00  0.00    -0.034 NA 
BRANCH  38  48
HETATM   48  N   UNL     1      -6.611  10.756  69.031  1.00  0.00    -0.053 NA 
HETATM   49  H   UNL     1      -5.627  10.576  69.229  1.00  0.00     0.000 HD 
BRANCH  48  50
HETATM   50  O   UNL     1      -7.513   9.736  69.057  1.00  0.00    -0.074 OA 
HETATM   51  O   UNL     1      -6.594   7.822  66.221  1.00  0.00    -0.048 OA 
HETATM   52  C   UNL     1      -7.159   8.571  67.008  1.00  0.00    -0.075 C  
HETATM   53  C   UNL     1      -7.680   7.400  69.078  1.00  0.00    -0.118 C  
HETATM   54  C   UNL     1      -5.279   8.502  68.452  1.00  0.00    -0.034 C  
HETATM   55  C   UNL     1      -6.866   8.563  68.499  1.00  0.00    -0.064 C  
HETATM   56  O   UNL     1      -8.091   9.465  66.622  1.00  0.00    -0.107 OA 
ENDBRANCH  48  50
ENDBRANCH  38  48
ENDBRANCH  35  38
ENDBRANCH  33  34
ENDBRANCH  21  22
ENDBRANCH   9  21
TORSDOF 11
ENDMDL
MODEL      185
REMARK 921   NORMALIZED FREE ENERGY PREDICTED BY IDOCK:   49.71 KCAL/MOL
REMARK 922        TOTAL FREE ENERGY PREDICTED BY IDOCK:   77.90 KCAL/MOL
REMARK 923 INTER-LIGAND FREE ENERGY PREDICTED BY IDOCK:   30.34 KCAL/MOL
REMARK 924 INTRA-LIGAND FREE ENERGY PREDICTED BY IDOCK:   47.56 KCAL/MOL
REMARK 927      BINDING AFFINITY PREDICTED BY RF-SCORE:    0.00 PKD
ROOT
HETATM    1  C   UNL     1     -11.883   3.405  68.603  1.00  0.00    14.838 C  
HETATM    2  N   UNL     1     -10.767   3.569  69.512  1.00  0.00     2.501 NA 
HETATM    3  C   UNL     1     -10.886   3.759  70.878  1.00  0.00     1.894 A  
HETATM    4  C   UNL     1      -9.847   4.591  71.353  1.00  0.00    -0.194 A  
HETATM    5  N   UNL     1     -11.871   3.267  71.668  1.00  0.00     4.182 NA 
HETATM    6  C   UNL     1      -9.157   4.927  70.131  1.00  0.00    -0.110 A  
HETATM    7  H2  UNL     1     -12.592   2.706  71.214  1.00  0.00     0.000 HD 
HETATM    8  H1  UNL     1     -11.959   3.408  72.674  1.00  0.00     0.000 HD 
HETATM    9  N   UNL     1      -9.546   3.997  69.130  1.00  0.00    -0.180 NA 
ENDROOT
BRANCH   4  10
HETATM   10  N   UNL     1      -9.788   4.976  72.680  1.00  0.00    -0.155 N  
HETATM   11  H   UNL     1      -9.429   4.288  73.343  1.00  0.00     0.000 HD 
BRANCH  10  12
HETATM   12  C   UNL     1     -10.161   6.181  73.190  1.00  0.00    -0.188 C  
HETATM   13  O   UNL     1     -10.863   6.219  74.193  1.00  0.00    -0.074 OA 
BRANCH  12  14
HETATM   14  N   UNL     1      -9.844   7.258  72.420  1.00  0.00    -0.153 N  
HETATM   15  H   UNL     1      -8.875   7.437  72.157  1.00  0.00     0.000 HD 
BRANCH  14  16
HETATM   16  C   UNL     1     -10.902   8.151  71.978  1.00  0.00    -0.284 C  
BRANCH  16  17
HETATM   17  C   UNL     1     -12.131   8.109  72.895  1.00  0.00     0.033 C  
HETATM   18  H2  UNL     1     -13.388   7.441  71.399  1.00  0.00     0.000 HD 
HETATM   19  N   UNL     1     -13.355   8.171  72.110  1.00  0.00    -0.494 NA 
HETATM   20  H1  UNL     1     -14.172   8.143  72.720  1.00  0.00     0.000 HD 
ENDBRANCH  16  17
ENDBRANCH  14  16
ENDBRANCH  12  14
ENDBRANCH  10  12
ENDBRANCH   4  10
BRANCH   9  21
HETATM   21  C   UNL     1      -8.981   3.645  67.793  1.00  0.00    -0.135 C  
BRANCH  21  22
HETATM   22  C   UNL     1      -7.681   4.644  67.117  1.00  0.00    -0.090 C  
HETATM   23  CA  UNL     1      -7.205   5.098  65.316  1.00  0.00    -0.067 C  
HETATM   24  C   UNL     1      -6.734   7.445  64.412  1.00  0.00    -0.047 C  
HETATM   25  C   UNL     1      -6.773   5.353  68.602  1.00  0.00    -0.053 C  
HETATM   26  C   UNL     1      -7.813   4.457  63.621  1.00  0.00    -0.080 C  
HETATM   27  N   UNL     1      -6.134   6.257  64.869  1.00  0.00    -0.029 N  
HETATM   28  O   UNL     1      -7.804   7.713  63.881  1.00  0.00    -0.124 OA 
HETATM   29  S   UNL     1      -5.171   6.863  68.141  1.00  0.00    -0.012 SA 
HETATM   30  C   UNL     1      -5.189   7.091  65.897  1.00  0.00    -0.023 C  
HETATM   31  O   UNL     1      -8.106   3.219  63.547  1.00  0.00    -0.082 OA 
HETATM   32  OXT UNL     1      -7.639   5.303  62.708  1.00  0.00    -0.056 OA 
HETATM   33  CA  UNL     1      -5.988   8.358  65.392  1.00  0.00    -0.045 C  
BRANCH  33  34
HETATM   34  N   UNL     1      -6.920   9.099  66.308  1.00  0.00    -0.085 N  
HETATM   35  C   UNL     1      -7.837   8.642  67.265  1.00  0.00    -0.097 C  
HETATM   36  H   UNL     1      -6.878  10.115  66.218  1.00  0.00     0.000 HD 
HETATM   37  O   UNL     1      -8.424   9.538  67.871  1.00  0.00    -0.118 OA 
BRANCH  35  38
HETATM   38  C   UNL     1      -8.155   7.129  67.647  1.00  0.00    -0.114 C  
HETATM   39  C   UNL     1      -9.120   6.343  66.913  1.00  0.00    -0.133 C  
HETATM   40  C   UNL     1     -11.096   4.299  65.645  1.00  0.00     0.718 C  
HETATM   41  N   UNL     1      -9.524   7.175  65.560  1.00  0.00     0.453 NA 
HETATM   42  N   UNL     1     -11.524   3.154  65.033  1.00  0.00     1.227 NA 
HETATM   43  H   UNL     1      -9.799   3.952  67.689  1.00  0.00     0.000 HD 
HETATM   44  S   UNL     1     -11.228   6.150  64.207  1.00  0.00     8.667 SA 
HETATM   45  H1  UNL     1     -11.467   2.350  65.658  1.00  0.00     0.000 HD 
HETATM   46  H2  UNL     1     -11.858   3.110  64.071  1.00  0.00     0.000 HD 
HETATM   47  N   UNL     1      -9.981   4.631  66.950  1.00  0.00    -0.212 NA 
BRANCH  38  48
HETATM   48  N   UNL     1      -7.506   6.418  68.502  1.00  0.00    -0.086 NA 
HETATM   49  H   UNL     1      -7.704   5.422  68.596  1.00  0.00     0.000 HD 
BRANCH  48  50
HETATM   50  O   UNL     1      -6.553   7.004  69.279  1.00  0.00    -0.042 OA 
HETATM   51  O   UNL     1      -8.304   9.722  70.726  1.00  0.00    -0.229 OA 
HETATM   52  C   UNL     1      -7.564   9.020  70.049  1.00  0.00    -0.072 C  
HETATM   53  C   UNL     1      -6.105   7.690  71.473  1.00  0.00    -0.035 C  
HETATM   54  C   UNL     1      -8.669   7.072  70.828  1.00  0.00    -0.148 C  
HETATM   55  C   UNL     1      -7.221   7.590  70.427  1.00  0.00    -0.064 C  
HETATM   56  O   UNL     1      -6.989   9.455  68.910  1.00  0.00    -0.062 OA 
ENDBRANCH  48  50
ENDBRANCH  38  48
ENDBRANCH  35  38
ENDBRANCH  33  34
ENDBRANCH  21  22
ENDBRANCH   9  21
TORSDOF 11
ENDMDL
MODEL      186
REMARK 921   NORMALIZED FREE ENERGY PREDICTED BY IDOCK:   57.83 KCAL/MOL
REMARK 922        TOTAL FREE ENERGY PREDICTED BY IDOCK:   91.24 KCAL/MOL
REMARK 923 INTER-LIGAND FREE ENERGY PREDICTED BY IDOCK:   67.03 KCAL/MOL
REMARK 924 INTRA-LIGAND FREE ENERGY PREDICTED BY IDOCK:   24.20 KCAL/MOL
REMARK 927      BINDING AFFINITY PREDICTED BY RF-SCORE:    0.00 PKD
ROOT
HETATM    1  C   UNL     1      -8.296  12.084  70.274  1.00  0.00     4.084 C  
HETATM    2  N   UNL     1      -8.028  11.132  71.332  1.00  0.00     5.541 NA 
HETATM    3  C   UNL     1      -7.407   9.907  71.150  1.00  0.00     0.616 A  
HETATM    4  C   UNL     1      -7.924   8.953  72.054  1.00  0.00     0.132 A  
HETATM    5  N   UNL     1      -6.466   9.622  70.217  1.00  0.00    -0.071 NA 
HETATM    6  C   UNL     1      -8.952   9.710  72.727  1.00  0.00     3.818 A  
HETATM    7  H2  UNL     1      -6.190  10.379  69.591  1.00  0.00     0.000 HD 
HETATM    8  H1  UNL     1      -6.009   8.721  70.082  1.00  0.00     0.000 HD 
HETATM    9  N   UNL     1      -8.710  11.092  72.495  1.00  0.00    12.819 NA 
ENDROOT
BRANCH   4  10
HETATM   10  N   UNL     1      -7.503   7.636  72.023  1.00  0.00    -0.069 N  
HETATM   11  H   UNL     1      -6.738   7.413  71.387  1.00  0.00     0.000 HD 
BRANCH  10  12
HETATM   12  C   UNL     1      -8.008   6.608  72.758  1.00  0.00    -0.101 C  
HETATM   13  O   UNL     1      -7.575   6.404  73.885  1.00  0.00    -0.086 OA 
BRANCH  12  14
HETATM   14  N   UNL     1      -8.856   5.779  72.087  1.00  0.00    -0.137 N  
HETATM   15  H   UNL     1      -9.206   6.036  71.165  1.00  0.00     0.000 HD 
BRANCH  14  16
HETATM   16  C   UNL     1      -9.256   4.524  72.702  1.00  0.00    -0.126 C  
BRANCH  16  17
HETATM   17  C   UNL     1     -10.746   4.220  72.505  1.00  0.00    -0.054 C  
HETATM   18  H2  UNL     1     -11.350   6.066  73.204  1.00  0.00     0.000 HD 
HETATM   19  N   UNL     1     -11.558   5.079  73.354  1.00  0.00    -0.479 NA 
HETATM   20  H1  UNL     1     -12.549   4.877  73.222  1.00  0.00     0.000 HD 
ENDBRANCH  16  17
ENDBRANCH  14  16
ENDBRANCH  12  14
ENDBRANCH  10  12
ENDBRANCH   4  10
BRANCH   9  21
HETATM   21  C   UNL     1      -9.224  12.337  73.139  1.00  0.00    25.516 C  
BRANCH  21  22
HETATM   22  C   UNL     1      -9.435  13.794  72.150  1.00  0.00    11.091 C  
HETATM   23  CA  UNL     1      -8.290  14.674  70.888  1.00  0.00     2.811 C  
HETATM   24  C   UNL     1      -8.925  15.427  68.527  1.00  0.00    -0.192 C  
HETATM   25  C   UNL     1     -11.188  14.379  72.490  1.00  0.00     1.514 C  
HETATM   26  C   UNL     1      -6.452  14.429  70.426  1.00  0.00    -0.100 C  
HETATM   27  N   UNL     1      -8.739  15.863  69.852  1.00  0.00     0.207 N  
HETATM   28  O   UNL     1      -8.465  14.513  67.855  1.00  0.00    -0.146 OA 
HETATM   29  S   UNL     1     -11.905  16.104  71.237  1.00  0.00    -0.315 SA 
HETATM   30  C   UNL     1     -10.194  16.590  69.851  1.00  0.00     0.016 C  
HETATM   31  O   UNL     1      -5.660  14.110  71.372  1.00  0.00    -0.191 OA 
HETATM   32  OXT UNL     1      -6.201  14.835  69.263  1.00  0.00    -0.101 OA 
HETATM   33  CA  UNL     1     -10.351  15.975  68.404  1.00  0.00    -0.251 C  
BRANCH  33  34
HETATM   34  N   UNL     1     -11.359  14.895  68.129  1.00  0.00    -0.299 N  
HETATM   35  C   UNL     1     -11.202  13.569  67.701  1.00  0.00    -0.279 C  
HETATM   36  H   UNL     1     -12.328  15.176  68.282  1.00  0.00     0.000 HD 
HETATM   37  O   UNL     1     -12.257  12.941  67.607  1.00  0.00    -0.268 OA 
BRANCH  35  38
HETATM   38  C   UNL     1      -9.837  12.822  67.364  1.00  0.00    -0.210 C  
HETATM   39  C   UNL     1      -9.576  12.258  66.060  1.00  0.00    -0.222 C  
HETATM   40  C   UNL     1      -8.593  10.899  63.438  1.00  0.00    -0.017 C  
HETATM   41  N   UNL     1     -10.743  12.788  65.039  1.00  0.00    -0.287 NA 
HETATM   42  N   UNL     1      -7.799  10.651  62.354  1.00  0.00    -0.199 NA 
HETATM   43  H   UNL     1      -7.443  10.839  65.595  1.00  0.00     0.000 HD 
HETATM   44  S   UNL     1     -10.627  11.890  62.810  1.00  0.00     0.828 SA 
HETATM   45  H1  UNL     1      -6.915  10.220  62.626  1.00  0.00     0.000 HD 
HETATM   46  H2  UNL     1      -8.057  10.869  61.392  1.00  0.00     0.000 HD 
HETATM   47  N   UNL     1      -8.274  11.203  65.130  1.00  0.00     0.152 NA 
BRANCH  38  48
HETATM   48  N   UNL     1      -8.798  12.780  68.124  1.00  0.00    -0.192 NA 
HETATM   49  H   UNL     1      -8.858  12.356  69.050  1.00  0.00     0.000 HD 
BRANCH  48  50
HETATM   50  O   UNL     1      -7.621  13.303  67.684  1.00  0.00    -0.141 OA 
HETATM   51  O   UNL     1      -5.305  10.728  68.428  1.00  0.00    -0.041 OA 
HETATM   52  C   UNL     1      -5.964  11.761  68.427  1.00  0.00    -0.049 C  
HETATM   53  C   UNL     1      -5.807  12.873  66.267  1.00  0.00     2.873 C  
HETATM   54  C   UNL     1      -7.477  10.816  66.864  1.00  0.00    -0.120 C  
HETATM   55  C   UNL     1      -6.791  12.202  67.232  1.00  0.00    -0.149 C  
HETATM   56  O   UNL     1      -6.010  12.596  69.483  1.00  0.00    -0.095 OA 
ENDBRANCH  48  50
ENDBRANCH  38  48
ENDBRANCH  35  38
ENDBRANCH  33  34
ENDBRANCH  21  22
ENDBRANCH   9  21
TORSDOF 11
ENDMDL
MODEL      187
REMARK 921   NORMALIZED FREE ENERGY PREDICTED BY IDOCK:   58.85 KCAL/MOL
REMARK 922        TOTAL FREE ENERGY PREDICTED BY IDOCK:   92.90 KCAL/MOL
REMARK 923 INTER-LIGAND FREE ENERGY PREDICTED BY IDOCK:   70.59 KCAL/MOL
REMARK 924 INTRA-LIGAND FREE ENERGY PREDICTED BY IDOCK:   22.31 KCAL/MOL
REMARK 927      BINDING AFFINITY PREDICTED BY RF-SCORE:    0.00 PKD
ROOT
HETATM    1  C   UNL     1      -8.716  12.835  68.940  1.00  0.00     0.335 C  
HETATM    2  N   UNL     1      -9.446  12.505  70.146  1.00  0.00     3.426 NA 
HETATM    3  C   UNL     1      -9.081  11.512  71.040  1.00  0.00     8.094 A  
HETATM    4  C   UNL     1     -10.229  10.922  71.616  1.00  0.00     5.875 A  
HETATM    5  N   UNL     1      -7.816  11.112  71.313  1.00  0.00     3.988 NA 
HETATM    6  C   UNL     1     -11.293  11.606  70.923  1.00  0.00     1.241 A  
HETATM    7  H2  UNL     1      -7.063  11.585  70.814  1.00  0.00     0.000 HD 
HETATM    8  H1  UNL     1      -7.547  10.381  71.971  1.00  0.00     0.000 HD 
HETATM    9  N   UNL     1     -10.754  12.780  70.330  1.00  0.00     1.414 NA 
ENDROOT
BRANCH   4  10
HETATM   10  N   UNL     1     -10.122   9.860  72.497  1.00  0.00     3.207 N  
HETATM   11  H   UNL     1     -10.197  10.078  73.490  1.00  0.00     0.000 HD 
BRANCH  10  12
HETATM   12  C   UNL     1      -9.925   8.554  72.170  1.00  0.00    -0.317 C  
HETATM   13  O   UNL     1     -10.499   7.681  72.809  1.00  0.00    -0.252 OA 
BRANCH  12  14
HETATM   14  N   UNL     1      -8.954   8.330  71.241  1.00  0.00    -0.148 N  
HETATM   15  H   UNL     1      -8.006   8.674  71.393  1.00  0.00     0.000 HD 
BRANCH  14  16
HETATM   16  C   UNL     1      -9.285   7.594  70.032  1.00  0.00    -0.151 C  
BRANCH  16  17
HETATM   17  C   UNL     1     -10.575   6.777  70.173  1.00  0.00    -0.218 C  
HETATM   18  H2  UNL     1     -11.709   8.139  69.112  1.00  0.00     0.000 HD 
HETATM   19  N   UNL     1     -11.741   7.631  69.997  1.00  0.00    -0.472 NA 
HETATM   20  H1  UNL     1     -12.599   7.088  70.090  1.00  0.00     0.000 HD 
ENDBRANCH  16  17
ENDBRANCH  14  16
ENDBRANCH  12  14
ENDBRANCH  10  12
ENDBRANCH   4  10
BRANCH   9  21
HETATM   21  C   UNL     1     -11.379  14.008  69.755  1.00  0.00    -0.179 C  
BRANCH  21  22
HETATM   22  C   UNL     1     -11.366  14.239  67.996  1.00  0.00    -0.318 C  
HETATM   23  CA  UNL     1      -9.941  14.320  66.716  1.00  0.00    -0.265 C  
HETATM   24  C   UNL     1      -9.795  13.018  64.518  1.00  0.00     0.009 C  
HETATM   25  C   UNL     1     -13.174  14.317  67.490  1.00  0.00     3.155 C  
HETATM   26  C   UNL     1      -8.041  14.413  66.905  1.00  0.00     0.054 C  
HETATM   27  N   UNL     1     -10.111  14.267  65.086  1.00  0.00    -0.365 N  
HETATM   28  O   UNL     1      -9.056  12.097  64.838  1.00  0.00     0.281 OA 
HETATM   29  S   UNL     1     -13.568  14.388  65.277  1.00  0.00     1.917 SA 
HETATM   30  C   UNL     1     -11.536  14.299  64.302  1.00  0.00    -0.242 C  
HETATM   31  O   UNL     1      -7.595  15.090  67.889  1.00  0.00    -0.117 OA 
HETATM   32  OXT UNL     1      -7.445  13.970  65.892  1.00  0.00     2.784 OA 
HETATM   33  CA  UNL     1     -11.136  12.857  63.793  1.00  0.00    -0.379 C  
BRANCH  33  34
HETATM   34  N   UNL     1     -11.891  11.641  64.248  1.00  0.00    -0.197 N  
HETATM   35  C   UNL     1     -11.454  10.355  64.596  1.00  0.00     2.383 C  
HETATM   36  H   UNL     1     -12.901  11.774  64.316  1.00  0.00     0.000 HD 
HETATM   37  O   UNL     1     -12.353   9.597  64.960  1.00  0.00     8.082 OA 
BRANCH  35  38
HETATM   38  C   UNL     1      -9.956   9.814  64.590  1.00  0.00     0.158 C  
HETATM   39  C   UNL     1      -9.597   8.554  65.197  1.00  0.00     0.705 C  
HETATM   40  C   UNL     1      -8.371   5.945  66.373  1.00  0.00    -0.114 C  
HETATM   41  N   UNL     1     -10.981   7.758  65.566  1.00  0.00     4.308 NA 
HETATM   42  N   UNL     1      -7.712   4.748  66.399  1.00  0.00    -0.091 NA 
HETATM   43  H   UNL     1      -7.113   7.794  65.385  1.00  0.00     0.000 HD 
HETATM   44  S   UNL     1     -10.677   5.669  66.718  1.00  0.00    -0.212 SA 
HETATM   45  H1  UNL     1      -6.710   4.868  66.249  1.00  0.00     0.000 HD 
HETATM   46  H2  UNL     1      -8.165   3.847  66.549  1.00  0.00     0.000 HD 
HETATM   47  N   UNL     1      -8.059   7.484  65.604  1.00  0.00    -0.121 NA 
BRANCH  38  48
HETATM   48  N   UNL     1      -8.975  10.331  63.935  1.00  0.00    -0.215 NA 
HETATM   49  H   UNL     1      -8.350   9.734  63.393  1.00  0.00     0.000 HD 
BRANCH  48  50
HETATM   50  O   UNL     1      -8.776  11.678  63.971  1.00  0.00     0.398 OA 
HETATM   51  O   UNL     1      -5.252  11.932  64.221  1.00  0.00     1.538 OA 
HETATM   52  C   UNL     1      -6.455  11.929  64.448  1.00  0.00     4.420 C  
HETATM   53  C   UNL     1      -7.619  13.417  62.912  1.00  0.00    13.198 C  
HETATM   54  C   UNL     1      -6.865  10.866  62.368  1.00  0.00    -0.039 C  
HETATM   55  C   UNL     1      -7.497  11.951  63.343  1.00  0.00     3.055 C  
HETATM   56  O   UNL     1      -6.960  11.910  65.697  1.00  0.00     0.981 OA 
ENDBRANCH  48  50
ENDBRANCH  38  48
ENDBRANCH  35  38
ENDBRANCH  33  34
ENDBRANCH  21  22
ENDBRANCH   9  21
TORSDOF 11
ENDMDL
MODEL      188
REMARK 921   NORMALIZED FREE ENERGY PREDICTED BY IDOCK:   61.76 KCAL/MOL
REMARK 922        TOTAL FREE ENERGY PREDICTED BY IDOCK:   97.69 KCAL/MOL
REMARK 923 INTER-LIGAND FREE ENERGY PREDICTED BY IDOCK:   49.15 KCAL/MOL
REMARK 924 INTRA-LIGAND FREE ENERGY PREDICTED BY IDOCK:   48.54 KCAL/MOL
REMARK 927      BINDING AFFINITY PREDICTED BY RF-SCORE:    0.00 PKD
ROOT
HETATM    1  C   UNL     1      -5.586  12.999  68.634  1.00  0.00    -0.069 C  
HETATM    2  N   UNL     1      -5.789  13.676  67.370  1.00  0.00    -0.343 NA 
HETATM    3  C   UNL     1      -6.185  14.997  67.240  1.00  0.00     0.289 A  
HETATM    4  C   UNL     1      -6.990  15.159  66.090  1.00  0.00     3.476 A  
HETATM    5  N   UNL     1      -5.895  16.004  68.099  1.00  0.00    -0.103 NA 
HETATM    6  C   UNL     1      -7.089  13.805  65.605  1.00  0.00     7.435 A  
HETATM    7  H2  UNL     1      -5.334  15.767  68.917  1.00  0.00     0.000 HD 
HETATM    8  H1  UNL     1      -6.187  16.976  68.004  1.00  0.00     0.000 HD 
HETATM    9  N   UNL     1      -6.057  13.038  66.212  1.00  0.00     2.099 NA 
ENDROOT
BRANCH   4  10
HETATM   10  N   UNL     1      -7.558  16.382  65.781  1.00  0.00     0.613 N  
HETATM   11  H   UNL     1      -7.018  17.001  65.176  1.00  0.00     0.000 HD 
BRANCH  10  12
HETATM   12  C   UNL     1      -8.767  16.843  66.205  1.00  0.00    -0.245 C  
HETATM   13  O   UNL     1      -9.545  17.326  65.392  1.00  0.00    -0.303 OA 
BRANCH  12  14
HETATM   14  N   UNL     1      -8.934  16.872  67.556  1.00  0.00    -0.205 N  
HETATM   15  H   UNL     1      -9.199  17.739  68.024  1.00  0.00     0.000 HD 
BRANCH  14  16
HETATM   16  C   UNL     1      -8.729  15.655  68.324  1.00  0.00    -0.174 C  
BRANCH  16  17
HETATM   17  C   UNL     1      -8.931  15.867  69.829  1.00  0.00     0.134 C  
HETATM   18  H2  UNL     1      -9.677  13.965  70.129  1.00  0.00     0.000 HD 
HETATM   19  N   UNL     1      -9.919  14.933  70.347  1.00  0.00    -0.270 NA 
HETATM   20  H1  UNL     1     -10.053  15.073  71.348  1.00  0.00     0.000 HD 
ENDBRANCH  16  17
ENDBRANCH  14  16
ENDBRANCH  12  14
ENDBRANCH  10  12
ENDBRANCH   4  10
BRANCH   9  21
HETATM   21  C   UNL     1      -5.470  11.699  65.907  1.00  0.00     0.531 C  
BRANCH  21  22
HETATM   22  C   UNL     1      -6.518  10.429  65.249  1.00  0.00    -0.105 C  
HETATM   23  CA  UNL     1      -7.290   8.858  66.033  1.00  0.00    -0.090 C  
HETATM   24  C   UNL     1      -9.743   8.142  65.904  1.00  0.00     0.145 C  
HETATM   25  C   UNL     1      -6.882  10.948  63.481  1.00  0.00     0.499 C  
HETATM   26  C   UNL     1      -7.019   7.990  67.714  1.00  0.00    -0.078 C  
HETATM   27  N   UNL     1      -8.461   7.927  65.362  1.00  0.00    -0.139 N  
HETATM   28  O   UNL     1     -10.159   8.525  66.989  1.00  0.00    -0.222 OA 
HETATM   29  S   UNL     1      -8.375   9.681  62.375  1.00  0.00    -0.166 SA 
HETATM   30  C   UNL     1      -9.035   8.107  63.851  1.00  0.00     0.874 C  
HETATM   31  O   UNL     1      -5.834   8.003  68.183  1.00  0.00    -0.038 OA 
HETATM   32  OXT UNL     1      -8.017   7.307  68.057  1.00  0.00    -0.116 OA 
HETATM   33  CA  UNL     1     -10.412   8.432  64.555  1.00  0.00     6.142 C  
BRANCH  33  34
HETATM   34  N   UNL     1     -11.004   9.811  64.494  1.00  0.00     1.582 N  
HETATM   35  C   UNL     1     -11.129  10.810  65.470  1.00  0.00     0.234 C  
HETATM   36  H   UNL     1     -11.383  10.065  63.581  1.00  0.00     0.000 HD 
HETATM   37  O   UNL     1     -11.647  11.851  65.063  1.00  0.00    -0.298 OA 
BRANCH  35  38
HETATM   38  C   UNL     1     -10.656  10.736  66.988  1.00  0.00    -0.260 C  
HETATM   39  C   UNL     1     -11.418  10.029  67.992  1.00  0.00     0.194 C  
HETATM   40  C   UNL     1     -12.719   8.654  70.463  1.00  0.00     0.564 C  
HETATM   41  N   UNL     1     -12.575   9.157  67.226  1.00  0.00     7.906 NA 
HETATM   42  N   UNL     1     -12.839   7.816  71.536  1.00  0.00    -0.346 NA 
HETATM   43  H   UNL     1     -10.757  10.112  70.509  1.00  0.00     0.000 HD 
HETATM   44  S   UNL     1     -14.084   7.974  68.678  1.00  0.00    18.313 SA 
HETATM   45  H1  UNL     1     -12.246   8.111  72.311  1.00  0.00     0.000 HD 
HETATM   46  H2  UNL     1     -13.447   6.998  71.558  1.00  0.00     0.000 HD 
HETATM   47  N   UNL     1     -11.445   9.700  69.880  1.00  0.00    -0.159 NA 
BRANCH  38  48
HETATM   48  N   UNL     1      -9.519  11.136  67.440  1.00  0.00    -0.164 NA 
HETATM   49  H   UNL     1      -8.968  10.531  68.048  1.00  0.00     0.000 HD 
BRANCH  48  50
HETATM   50  O   UNL     1      -9.056  12.371  67.099  1.00  0.00    -0.185 OA 
HETATM   51  O   UNL     1      -8.068  13.713  70.225  1.00  0.00     1.971 OA 
HETATM   52  C   UNL     1      -8.657  13.457  69.183  1.00  0.00     0.575 C  
HETATM   53  C   UNL     1      -7.184  13.769  67.269  1.00  0.00     0.016 C  
HETATM   54  C   UNL     1      -7.275  11.559  68.846  1.00  0.00    -0.117 C  
HETATM   55  C   UNL     1      -7.999  12.717  68.031  1.00  0.00    -0.155 C  
HETATM   56  O   UNL     1      -9.939  13.811  68.965  1.00  0.00    -0.094 OA 
ENDBRANCH  48  50
ENDBRANCH  38  48
ENDBRANCH  35  38
ENDBRANCH  33  34
ENDBRANCH  21  22
ENDBRANCH   9  21
TORSDOF 11
ENDMDL
MODEL      189
REMARK 921   NORMALIZED FREE ENERGY PREDICTED BY IDOCK:   86.87 KCAL/MOL
REMARK 922        TOTAL FREE ENERGY PREDICTED BY IDOCK:  138.95 KCAL/MOL
REMARK 923 INTER-LIGAND FREE ENERGY PREDICTED BY IDOCK:   22.53 KCAL/MOL
REMARK 924 INTRA-LIGAND FREE ENERGY PREDICTED BY IDOCK:  116.42 KCAL/MOL
REMARK 927      BINDING AFFINITY PREDICTED BY RF-SCORE:    0.00 PKD
ROOT
HETATM    1  C   UNL     1     -11.921   3.403  68.595  1.00  0.00    16.569 C  
HETATM    2  N   UNL     1     -10.786   3.546  69.484  1.00  0.00     3.141 NA 
HETATM    3  C   UNL     1     -10.879   3.725  70.854  1.00  0.00     1.894 A  
HETATM    4  C   UNL     1      -9.822   4.541  71.317  1.00  0.00    -0.190 A  
HETATM    5  N   UNL     1     -11.854   3.236  71.657  1.00  0.00     4.182 NA 
HETATM    6  C   UNL     1      -9.152   4.882  70.086  1.00  0.00    -0.110 A  
HETATM    7  H2  UNL     1     -12.589   2.686  71.212  1.00  0.00     0.000 HD 
HETATM    8  H1  UNL     1     -11.923   3.367  72.666  1.00  0.00     0.000 HD 
HETATM    9  N   UNL     1      -9.568   3.965  69.083  1.00  0.00    -0.177 NA 
ENDROOT
BRANCH   4  10
HETATM   10  N   UNL     1      -9.735   4.913  72.647  1.00  0.00    -0.148 N  
HETATM   11  H   UNL     1      -9.403   4.205  73.301  1.00  0.00     0.000 HD 
BRANCH  10  12
HETATM   12  C   UNL     1     -10.049   6.130  73.168  1.00  0.00    -0.188 C  
HETATM   13  O   UNL     1     -11.148   6.298  73.683  1.00  0.00    -0.098 OA 
BRANCH  12  14
HETATM   14  N   UNL     1      -9.148   7.118  72.915  1.00  0.00    -0.133 N  
HETATM   15  H   UNL     1      -8.601   7.525  73.674  1.00  0.00     0.000 HD 
BRANCH  14  16
HETATM   16  C   UNL     1      -8.973   7.587  71.550  1.00  0.00    -0.131 C  
BRANCH  16  17
HETATM   17  C   UNL     1      -9.384   6.538  70.509  1.00  0.00    -0.162 C  
HETATM   18  H2  UNL     1     -11.397   6.712  70.937  1.00  0.00     0.000 HD 
HETATM   19  N   UNL     1     -10.690   5.984  70.834  1.00  0.00    -0.253 NA 
HETATM   20  H1  UNL     1     -10.964   5.286  70.142  1.00  0.00     0.000 HD 
ENDBRANCH  16  17
ENDBRANCH  14  16
ENDBRANCH  12  14
ENDBRANCH  10  12
ENDBRANCH   4  10
BRANCH   9  21
HETATM   21  C   UNL     1      -9.032   3.621  67.733  1.00  0.00    -0.135 C  
BRANCH  21  22
HETATM   22  C   UNL     1      -7.753   4.629  67.031  1.00  0.00    -0.091 C  
HETATM   23  CA  UNL     1      -7.349   5.129  65.224  1.00  0.00    -0.068 C  
HETATM   24  C   UNL     1      -6.898   7.497  64.366  1.00  0.00    -0.054 C  
HETATM   25  C   UNL     1      -6.779   5.291  68.496  1.00  0.00    -0.054 C  
HETATM   26  C   UNL     1      -8.032   4.539  63.540  1.00  0.00    -0.088 C  
HETATM   27  N   UNL     1      -6.289   6.292  64.765  1.00  0.00    -0.033 N  
HETATM   28  O   UNL     1      -7.987   7.787  63.887  1.00  0.00    -0.135 OA 
HETATM   29  S   UNL     1      -5.186   6.803  68.010  1.00  0.00    -0.008 SA 
HETATM   30  C   UNL     1      -5.296   7.092  65.775  1.00  0.00    -0.027 C  
HETATM   31  O   UNL     1      -8.337   3.305  63.445  1.00  0.00    -0.088 OA 
HETATM   32  OXT UNL     1      -7.889   5.408  62.644  1.00  0.00    -0.071 OA 
HETATM   33  CA  UNL     1      -6.105   8.377  65.339  1.00  0.00    -0.045 C  
BRANCH  33  34
HETATM   34  N   UNL     1      -6.992   9.099  66.313  1.00  0.00    -0.085 N  
HETATM   35  C   UNL     1      -7.893   8.622  67.275  1.00  0.00    -0.097 C  
HETATM   36  H   UNL     1      -6.927  10.117  66.265  1.00  0.00     0.000 HD 
HETATM   37  O   UNL     1      -8.441   9.505  67.935  1.00  0.00    -0.118 OA 
BRANCH  35  38
HETATM   38  C   UNL     1      -8.238   7.102  67.599  1.00  0.00    -0.114 C  
HETATM   39  C   UNL     1      -7.588   6.008  66.914  1.00  0.00    -0.096 C  
HETATM   40  C   UNL     1      -6.471   3.367  65.706  1.00  0.00    -0.033 C  
HETATM   41  N   UNL     1      -6.334   6.624  66.058  1.00  0.00    -0.044 NA 
HETATM   42  N   UNL     1      -5.862   2.144  65.664  1.00  0.00    -0.017 NA 
HETATM   43  H   UNL     1      -8.327   3.539  67.288  1.00  0.00     0.000 HD 
HETATM   44  S   UNL     1      -5.147   5.027  64.705  1.00  0.00    -0.009 SA 
HETATM   45  H1  UNL     1      -6.437   1.422  66.098  1.00  0.00     0.000 HD 
HETATM   46  H2  UNL     1      -4.945   1.974  65.250  1.00  0.00     0.000 HD 
HETATM   47  N   UNL     1      -7.648   4.098  66.772  1.00  0.00    -0.087 NA 
BRANCH  38  48
HETATM   48  N   UNL     1      -8.976   6.691  68.572  1.00  0.00    -0.121 NA 
HETATM   49  H   UNL     1      -9.024   5.697  68.794  1.00  0.00     0.000 HD 
BRANCH  48  50
HETATM   50  O   UNL     1      -9.689   7.592  69.303  1.00  0.00    -0.162 OA 
HETATM   51  O   UNL     1     -10.673   9.961  66.859  1.00  0.00    -0.203 OA 
HETATM   52  C   UNL     1     -10.127   9.379  67.789  1.00  0.00    -0.198 C  
HETATM   53  C   UNL     1     -11.774   8.652  69.428  1.00  0.00     0.877 C  
HETATM   54  C   UNL     1     -11.145   7.339  67.135  1.00  0.00    -0.133 C  
HETATM   55  C   UNL     1     -10.718   8.141  68.440  1.00  0.00    -0.012 C  
HETATM   56  O   UNL     1      -8.956   9.788  68.316  1.00  0.00    -0.119 OA 
ENDBRANCH  48  50
ENDBRANCH  38  48
ENDBRANCH  35  38
ENDBRANCH  33  34
ENDBRANCH  21  22
ENDBRANCH   9  21
TORSDOF 11
ENDMDL
MODEL      190
REMARK 921   NORMALIZED FREE ENERGY PREDICTED BY IDOCK:   92.62 KCAL/MOL
REMARK 922        TOTAL FREE ENERGY PREDICTED BY IDOCK:  148.39 KCAL/MOL
REMARK 923 INTER-LIGAND FREE ENERGY PREDICTED BY IDOCK:   64.39 KCAL/MOL
REMARK 924 INTRA-LIGAND FREE ENERGY PREDICTED BY IDOCK:   84.00 KCAL/MOL
REMARK 927      BINDING AFFINITY PREDICTED BY RF-SCORE:    0.00 PKD
ROOT
HETATM    1  C   UNL     1     -12.745   4.193  70.028  1.00  0.00    17.680 C  
HETATM    2  N   UNL     1     -11.404   4.708  70.218  1.00  0.00     2.407 NA 
HETATM    3  C   UNL     1     -10.460   4.149  71.062  1.00  0.00     0.396 A  
HETATM    4  C   UNL     1      -9.636   5.155  71.615  1.00  0.00    -0.154 A  
HETATM    5  N   UNL     1     -10.344   2.834  71.369  1.00  0.00     0.343 NA 
HETATM    6  C   UNL     1     -10.232   6.353  71.077  1.00  0.00    -0.192 A  
HETATM    7  H2  UNL     1     -11.014   2.197  70.939  1.00  0.00     0.000 HD 
HETATM    8  H1  UNL     1      -9.648   2.422  71.991  1.00  0.00     0.000 HD 
HETATM    9  N   UNL     1     -11.051   5.986  69.974  1.00  0.00    -0.377 NA 
ENDROOT
BRANCH   4  10
HETATM   10  N   UNL     1      -8.653   4.848  72.539  1.00  0.00    -0.119 N  
HETATM   11  H   UNL     1      -8.742   5.272  73.463  1.00  0.00     0.000 HD 
BRANCH  10  12
HETATM   12  C   UNL     1      -7.579   4.037  72.338  1.00  0.00    -0.072 C  
HETATM   13  O   UNL     1      -7.615   2.881  72.742  1.00  0.00    -0.047 OA 
BRANCH  12  14
HETATM   14  N   UNL     1      -6.473   4.654  71.838  1.00  0.00    -0.022 N  
HETATM   15  H   UNL     1      -6.308   4.681  70.832  1.00  0.00     0.000 HD 
BRANCH  14  16
HETATM   16  C   UNL     1      -5.531   5.274  72.755  1.00  0.00    -0.017 C  
BRANCH  16  17
HETATM   17  C   UNL     1      -5.521   4.603  74.134  1.00  0.00    -0.013 C  
HETATM   18  H2  UNL     1      -6.090   2.764  73.387  1.00  0.00     0.000 HD 
HETATM   19  N   UNL     1      -6.359   3.413  74.127  1.00  0.00    -0.024 NA 
HETATM   20  H1  UNL     1      -6.353   2.966  75.043  1.00  0.00     0.000 HD 
ENDBRANCH  16  17
ENDBRANCH  14  16
ENDBRANCH  12  14
ENDBRANCH  10  12
ENDBRANCH   4  10
BRANCH   9  21
HETATM   21  C   UNL     1     -11.672   6.767  68.864  1.00  0.00     0.436 C  
BRANCH  21  22
HETATM   22  C   UNL     1     -10.622   7.534  67.657  1.00  0.00    -0.303 C  
HETATM   23  CA  UNL     1     -10.207   7.088  65.839  1.00  0.00     0.972 C  
HETATM   24  C   UNL     1     -10.274   8.673  63.831  1.00  0.00     5.226 C  
HETATM   25  C   UNL     1      -9.958   9.084  68.486  1.00  0.00    -0.193 C  
HETATM   26  C   UNL     1     -10.589   5.551  64.768  1.00  0.00     1.982 C  
HETATM   27  N   UNL     1      -9.426   8.054  64.769  1.00  0.00     1.197 N  
HETATM   28  O   UNL     1     -11.358   8.387  63.340  1.00  0.00    13.593 OA 
HETATM   29  S   UNL     1      -8.743  10.450  67.176  1.00  0.00    -0.129 SA 
HETATM   30  C   UNL     1      -8.740   9.482  65.138  1.00  0.00    -0.172 C  
HETATM   31  O   UNL     1     -10.579   4.423  65.359  1.00  0.00    -0.268 OA 
HETATM   32  OXT UNL     1     -10.589   5.822  63.541  1.00  0.00     3.368 OA 
HETATM   33  CA  UNL     1      -9.797  10.097  64.139  1.00  0.00    -0.156 C  
BRANCH  33  34
HETATM   34  N   UNL     1     -10.908  10.978  64.636  1.00  0.00    -0.251 N  
HETATM   35  C   UNL     1     -10.977  11.857  65.726  1.00  0.00    -0.311 C  
HETATM   36  H   UNL     1     -11.764  10.929  64.082  1.00  0.00     0.000 HD 
HETATM   37  O   UNL     1     -12.047  12.456  65.825  1.00  0.00    -0.561 OA 
BRANCH  35  38
HETATM   38  C   UNL     1      -9.831  12.161  66.790  1.00  0.00    -0.206 C  
HETATM   39  C   UNL     1      -9.962  11.790  68.180  1.00  0.00    -0.194 C  
HETATM   40  C   UNL     1      -9.811  11.195  71.231  1.00  0.00     6.339 C  
HETATM   41  N   UNL     1     -11.271  10.814  68.321  1.00  0.00    -0.276 NA 
HETATM   42  N   UNL     1      -9.337  10.680  72.406  1.00  0.00     8.176 NA 
HETATM   43  H   UNL     1      -8.188  12.498  69.949  1.00  0.00     0.000 HD 
HETATM   44  S   UNL     1     -11.804  10.147  70.569  1.00  0.00    -0.330 SA 
HETATM   45  H1  UNL     1      -8.471  11.135  72.694  1.00  0.00     0.000 HD 
HETATM   46  H2  UNL     1      -9.793   9.933  72.929  1.00  0.00     0.000 HD 
HETATM   47  N   UNL     1      -9.058  11.975  69.860  1.00  0.00     2.238 NA 
BRANCH  38  48
HETATM   48  N   UNL     1      -8.652  12.600  66.517  1.00  0.00    -0.421 NA 
HETATM   49  H   UNL     1      -8.224  13.317  67.103  1.00  0.00     0.000 HD 
BRANCH  48  50
HETATM   50  O   UNL     1      -7.979  12.101  65.443  1.00  0.00     1.262 OA 
HETATM   51  O   UNL     1     -10.578  10.692  63.492  1.00  0.00    -0.113 OA 
HETATM   52  C   UNL     1      -9.617  10.866  64.231  1.00  0.00    -0.272 C  
HETATM   53  C   UNL     1      -7.897  12.169  63.104  1.00  0.00     3.194 C  
HETATM   54  C   UNL     1     -10.093  13.188  64.334  1.00  0.00    -0.224 C  
HETATM   55  C   UNL     1      -8.862  12.183  64.295  1.00  0.00     1.185 C  
HETATM   56  O   UNL     1      -9.145   9.906  65.049  1.00  0.00    -0.184 OA 
ENDBRANCH  48  50
ENDBRANCH  38  48
ENDBRANCH  35  38
ENDBRANCH  33  34
ENDBRANCH  21  22
ENDBRANCH   9  21
TORSDOF 11
ENDMDL
MODEL      191
REMARK 921   NORMALIZED FREE ENERGY PREDICTED BY IDOCK:   95.14 KCAL/MOL
REMARK 922        TOTAL FREE ENERGY PREDICTED BY IDOCK:  152.54 KCAL/MOL
REMARK 923 INTER-LIGAND FREE ENERGY PREDICTED BY IDOCK:  104.77 KCAL/MOL
REMARK 924 INTRA-LIGAND FREE ENERGY PREDICTED BY IDOCK:   47.77 KCAL/MOL
REMARK 927      BINDING AFFINITY PREDICTED BY RF-SCORE:    0.00 PKD
ROOT
HETATM    1  C   UNL     1     -11.340  10.444  71.936  1.00  0.00     1.471 C  
HETATM    2  N   UNL     1     -10.256  11.255  72.452  1.00  0.00    10.879 NA 
HETATM    3  C   UNL     1     -10.369  12.593  72.793  1.00  0.00    16.611 A  
HETATM    4  C   UNL     1      -9.158  13.272  72.530  1.00  0.00    17.463 A  
HETATM    5  N   UNL     1     -11.480  13.202  73.272  1.00  0.00     4.844 NA 
HETATM    6  C   UNL     1      -8.358  12.229  71.936  1.00  0.00    17.037 A  
HETATM    7  H2  UNL     1     -12.311  12.622  73.392  1.00  0.00     0.000 HD 
HETATM    8  H1  UNL     1     -11.563  14.186  73.524  1.00  0.00     0.000 HD 
HETATM    9  N   UNL     1      -8.951  10.977  72.252  1.00  0.00    11.689 NA 
ENDROOT
BRANCH   4  10
HETATM   10  N   UNL     1      -9.044  14.636  72.733  1.00  0.00     6.355 N  
HETATM   11  H   UNL     1      -9.121  14.965  73.695  1.00  0.00     0.000 HD 
BRANCH  10  12
HETATM   12  C   UNL     1      -8.840  15.581  71.776  1.00  0.00     5.686 C  
HETATM   13  O   UNL     1      -7.727  15.703  71.278  1.00  0.00     2.670 OA 
BRANCH  12  14
HETATM   14  N   UNL     1      -9.881  16.435  71.574  1.00  0.00     3.686 N  
HETATM   15  H   UNL     1     -10.776  16.276  72.036  1.00  0.00     0.000 HD 
BRANCH  14  16
HETATM   16  C   UNL     1      -9.703  17.576  70.690  1.00  0.00     3.195 C  
BRANCH  16  17
HETATM   17  C   UNL     1      -9.471  17.161  69.232  1.00  0.00     0.025 C  
HETATM   18  H2  UNL     1     -10.116  15.224  69.543  1.00  0.00     0.000 HD 
HETATM   19  N   UNL     1      -9.323  15.717  69.131  1.00  0.00    -0.234 NA 
HETATM   20  H1  UNL     1      -9.169  15.441  68.161  1.00  0.00     0.000 HD 
ENDBRANCH  16  17
ENDBRANCH  14  16
ENDBRANCH  12  14
ENDBRANCH  10  12
ENDBRANCH   4  10
BRANCH   9  21
HETATM   21  C   UNL     1      -8.457   9.570  72.183  1.00  0.00     1.733 C  
BRANCH  21  22
HETATM   22  C   UNL     1      -9.635   8.245  72.123  1.00  0.00    -0.338 C  
HETATM   23  CA  UNL     1     -10.421   7.283  70.662  1.00  0.00    -0.214 C  
HETATM   24  C   UNL     1     -10.577   4.740  70.425  1.00  0.00     0.174 C  
HETATM   25  C   UNL     1      -9.985   7.806  73.916  1.00  0.00     0.158 C  
HETATM   26  C   UNL     1     -10.391   7.559  68.771  1.00  0.00    -0.200 C  
HETATM   27  N   UNL     1     -11.292   5.899  70.783  1.00  0.00    -0.219 N  
HETATM   28  O   UNL     1      -9.635   4.513  69.678  1.00  0.00    -0.163 OA 
HETATM   29  S   UNL     1     -11.287   6.001  74.246  1.00  0.00     2.418 SA 
HETATM   30  C   UNL     1     -11.759   5.217  72.184  1.00  0.00     0.257 C  
HETATM   31  O   UNL     1     -10.398   8.768  68.367  1.00  0.00    -0.202 OA 
HETATM   32  OXT UNL     1     -10.592   6.493  68.137  1.00  0.00    -0.198 OA 
HETATM   33  CA  UNL     1     -10.852   4.002  71.741  1.00  0.00     0.608 C  
BRANCH  33  34
HETATM   34  N   UNL     1      -9.590   3.669  72.485  1.00  0.00    -0.128 N  
HETATM   35  C   UNL     1      -8.354   4.327  72.555  1.00  0.00    -0.101 C  
HETATM   36  H   UNL     1      -9.642   2.812  73.037  1.00  0.00     0.000 HD 
HETATM   37  O   UNL     1      -7.535   3.786  73.298  1.00  0.00    -0.065 OA 
BRANCH  35  38
HETATM   38  C   UNL     1      -7.938   5.673  71.814  1.00  0.00    -0.114 C  
HETATM   39  C   UNL     1      -7.486   5.681  70.442  1.00  0.00    -0.080 C  
HETATM   40  C   UNL     1      -6.458   6.174  67.545  1.00  0.00    -0.046 C  
HETATM   41  N   UNL     1      -7.774   4.198  69.807  1.00  0.00    -0.053 NA 
HETATM   42  N   UNL     1      -6.425   6.679  66.275  1.00  0.00    -0.042 NA 
HETATM   43  H   UNL     1      -6.589   7.853  69.318  1.00  0.00     0.000 HD 
HETATM   44  S   UNL     1      -6.993   3.888  67.553  1.00  0.00    -0.056 SA 
HETATM   45  H1  UNL     1      -6.192   7.672  66.271  1.00  0.00     0.000 HD 
HETATM   46  H2  UNL     1      -6.610   6.130  65.436  1.00  0.00     0.000 HD 
HETATM   47  N   UNL     1      -6.774   6.870  69.117  1.00  0.00    -0.051 NA 
BRANCH  38  48
HETATM   48  N   UNL     1      -8.104   6.865  72.273  1.00  0.00    -0.094 NA 
HETATM   49  H   UNL     1      -9.029   7.176  72.569  1.00  0.00     0.000 HD 
BRANCH  48  50
HETATM   50  O   UNL     1      -7.037   7.707  72.362  1.00  0.00    -0.069 OA 
HETATM   51  O   UNL     1      -7.048   9.303  69.200  1.00  0.00    -0.060 OA 
HETATM   52  C   UNL     1      -6.789   8.595  70.165  1.00  0.00    -0.039 C  
HETATM   53  C   UNL     1      -6.418   9.956  72.150  1.00  0.00     0.890 C  
HETATM   54  C   UNL     1      -8.842   9.202  71.186  1.00  0.00    -0.233 C  
HETATM   55  C   UNL     1      -7.331   8.877  71.556  1.00  0.00    -0.052 C  
HETATM   56  O   UNL     1      -6.000   7.507  70.078  1.00  0.00    -0.024 OA 
ENDBRANCH  48  50
ENDBRANCH  38  48
ENDBRANCH  35  38
ENDBRANCH  33  34
ENDBRANCH  21  22
ENDBRANCH   9  21
TORSDOF 11
ENDMDL
MODEL      192
REMARK 921   NORMALIZED FREE ENERGY PREDICTED BY IDOCK:   97.88 KCAL/MOL
REMARK 922        TOTAL FREE ENERGY PREDICTED BY IDOCK:  157.04 KCAL/MOL
REMARK 923 INTER-LIGAND FREE ENERGY PREDICTED BY IDOCK:   53.17 KCAL/MOL
REMARK 924 INTRA-LIGAND FREE ENERGY PREDICTED BY IDOCK:  103.87 KCAL/MOL
REMARK 927      BINDING AFFINITY PREDICTED BY RF-SCORE:    0.00 PKD
ROOT
HETATM    1  C   UNL     1     -12.745   4.193  70.028  1.00  0.00    17.680 C  
HETATM    2  N   UNL     1     -11.404   4.708  70.218  1.00  0.00     2.407 NA 
HETATM    3  C   UNL     1     -10.460   4.149  71.062  1.00  0.00     0.396 A  
HETATM    4  C   UNL     1      -9.636   5.155  71.615  1.00  0.00    -0.154 A  
HETATM    5  N   UNL     1     -10.344   2.834  71.369  1.00  0.00     0.343 NA 
HETATM    6  C   UNL     1     -10.232   6.353  71.077  1.00  0.00    -0.192 A  
HETATM    7  H2  UNL     1     -11.014   2.197  70.939  1.00  0.00     0.000 HD 
HETATM    8  H1  UNL     1      -9.648   2.422  71.991  1.00  0.00     0.000 HD 
HETATM    9  N   UNL     1     -11.051   5.986  69.974  1.00  0.00    -0.377 NA 
ENDROOT
BRANCH   4  10
HETATM   10  N   UNL     1      -8.653   4.848  72.539  1.00  0.00    -0.119 N  
HETATM   11  H   UNL     1      -8.742   5.272  73.463  1.00  0.00     0.000 HD 
BRANCH  10  12
HETATM   12  C   UNL     1      -7.579   4.037  72.338  1.00  0.00    -0.072 C  
HETATM   13  O   UNL     1      -7.615   2.881  72.742  1.00  0.00    -0.047 OA 
BRANCH  12  14
HETATM   14  N   UNL     1      -6.473   4.654  71.838  1.00  0.00    -0.022 N  
HETATM   15  H   UNL     1      -6.308   4.681  70.832  1.00  0.00     0.000 HD 
BRANCH  14  16
HETATM   16  C   UNL     1      -5.531   5.274  72.755  1.00  0.00    -0.017 C  
BRANCH  16  17
HETATM   17  C   UNL     1      -5.521   4.603  74.134  1.00  0.00    -0.013 C  
HETATM   18  H2  UNL     1      -6.090   2.764  73.387  1.00  0.00     0.000 HD 
HETATM   19  N   UNL     1      -6.359   3.413  74.127  1.00  0.00    -0.024 NA 
HETATM   20  H1  UNL     1      -6.353   2.966  75.043  1.00  0.00     0.000 HD 
ENDBRANCH  16  17
ENDBRANCH  14  16
ENDBRANCH  12  14
ENDBRANCH  10  12
ENDBRANCH   4  10
BRANCH   9  21
HETATM   21  C   UNL     1     -11.672   6.767  68.864  1.00  0.00     0.436 C  
BRANCH  21  22
HETATM   22  C   UNL     1     -10.622   7.534  67.657  1.00  0.00    -0.303 C  
HETATM   23  CA  UNL     1     -10.952   8.873  66.325  1.00  0.00     1.259 C  
HETATM   24  C   UNL     1      -9.565  10.985  65.917  1.00  0.00    -0.218 C  
HETATM   25  C   UNL     1      -8.910   6.823  67.962  1.00  0.00    -0.119 C  
HETATM   26  C   UNL     1     -12.559   9.680  65.677  1.00  0.00    12.385 C  
HETATM   27  N   UNL     1      -9.807   9.674  65.466  1.00  0.00    -0.313 N  
HETATM   28  O   UNL     1     -10.237  11.826  66.500  1.00  0.00    -0.202 OA 
HETATM   29  S   UNL     1      -7.245   7.728  66.751  1.00  0.00    -0.090 SA 
HETATM   30  C   UNL     1      -8.216   9.334  65.500  1.00  0.00    -0.124 C  
HETATM   31  O   UNL     1     -13.588   8.932  65.605  1.00  0.00    19.309 OA 
HETATM   32  OXT UNL     1     -12.348  10.817  65.183  1.00  0.00     1.969 OA 
HETATM   33  CA  UNL     1      -8.055  10.789  66.095  1.00  0.00    -0.160 C  
BRANCH  33  34
HETATM   34  N   UNL     1      -7.614  10.998  67.516  1.00  0.00    -0.103 N  
HETATM   35  C   UNL     1      -6.781  10.238  68.349  1.00  0.00    -0.057 C  
HETATM   36  H   UNL     1      -7.985  11.843  67.951  1.00  0.00     0.000 HD 
HETATM   37  O   UNL     1      -6.602  10.725  69.465  1.00  0.00    -0.071 OA 
BRANCH  35  38
HETATM   38  C   UNL     1      -6.051   8.869  67.989  1.00  0.00    -0.051 C  
HETATM   39  C   UNL     1      -6.397   7.626  68.637  1.00  0.00    -0.036 C  
HETATM   40  C   UNL     1      -6.794   4.751  69.764  1.00  0.00    -0.051 C  
HETATM   41  N   UNL     1      -7.772   7.869  69.496  1.00  0.00    -0.102 NA 
HETATM   42  N   UNL     1      -7.065   3.411  69.766  1.00  0.00    -0.041 NA 
HETATM   43  H   UNL     1      -5.040   5.445  68.208  1.00  0.00     0.000 HD 
HETATM   44  S   UNL     1      -8.508   5.982  70.792  1.00  0.00    -0.131 SA 
HETATM   45  H1  UNL     1      -6.320   2.876  69.319  1.00  0.00     0.000 HD 
HETATM   46  H2  UNL     1      -7.907   2.998  70.165  1.00  0.00     0.000 HD 
HETATM   47  N   UNL     1      -5.843   5.793  68.731  1.00  0.00    -0.018 NA 
BRANCH  38  48
HETATM   48  N   UNL     1      -5.228   8.692  67.014  1.00  0.00    -0.035 NA 
HETATM   49  H   UNL     1      -4.386   8.133  67.150  1.00  0.00     0.000 HD 
BRANCH  48  50
HETATM   50  O   UNL     1      -5.490   9.254  65.802  1.00  0.00    -0.040 OA 
HETATM   51  O   UNL     1      -7.801  11.811  66.619  1.00  0.00    -0.132 OA 
HETATM   52  C   UNL     1      -7.270  10.782  66.220  1.00  0.00    -0.137 C  
HETATM   53  C   UNL     1      -5.477  11.297  64.656  1.00  0.00     0.842 C  
HETATM   54  C   UNL     1      -5.271  11.350  67.363  1.00  0.00    -0.054 C  
HETATM   55  C   UNL     1      -5.769  10.661  66.020  1.00  0.00    -0.122 C  
HETATM   56  O   UNL     1      -7.969   9.669  65.922  1.00  0.00    -0.109 OA 
ENDBRANCH  48  50
ENDBRANCH  38  48
ENDBRANCH  35  38
ENDBRANCH  33  34
ENDBRANCH  21  22
ENDBRANCH   9  21
TORSDOF 11
ENDMDL
MODEL      193
REMARK 921   NORMALIZED FREE ENERGY PREDICTED BY IDOCK:  100.19 KCAL/MOL
REMARK 922        TOTAL FREE ENERGY PREDICTED BY IDOCK:  160.83 KCAL/MOL
REMARK 923 INTER-LIGAND FREE ENERGY PREDICTED BY IDOCK:   98.94 KCAL/MOL
REMARK 924 INTRA-LIGAND FREE ENERGY PREDICTED BY IDOCK:   61.88 KCAL/MOL
REMARK 927      BINDING AFFINITY PREDICTED BY RF-SCORE:    0.00 PKD
ROOT
HETATM    1  C   UNL     1      -8.726  12.954  69.000  1.00  0.00     0.505 C  
HETATM    2  N   UNL     1      -9.166  12.761  70.366  1.00  0.00     4.879 NA 
HETATM    3  C   UNL     1      -8.584  11.880  71.263  1.00  0.00    11.600 A  
HETATM    4  C   UNL     1      -9.559  11.351  72.138  1.00  0.00    15.002 A  
HETATM    5  N   UNL     1      -7.277  11.524  71.295  1.00  0.00     2.962 NA 
HETATM    6  C   UNL     1     -10.770  11.943  71.623  1.00  0.00     7.210 A  
HETATM    7  H2  UNL     1      -6.666  11.941  70.593  1.00  0.00     0.000 HD 
HETATM    8  H1  UNL     1      -6.848  10.875  71.955  1.00  0.00     0.000 HD 
HETATM    9  N   UNL     1     -10.411  13.045  70.800  1.00  0.00     3.664 NA 
ENDROOT
BRANCH   4  10
HETATM   10  N   UNL     1      -9.229  10.400  73.086  1.00  0.00     9.376 N  
HETATM   11  H   UNL     1      -9.095  10.730  74.042  1.00  0.00     0.000 HD 
BRANCH  10  12
HETATM   12  C   UNL     1      -9.064   9.066  72.871  1.00  0.00     0.980 C  
HETATM   13  O   UNL     1      -8.347   8.689  71.952  1.00  0.00    -0.211 OA 
BRANCH  12  14
HETATM   14  N   UNL     1      -9.865   8.256  73.616  1.00  0.00     0.122 N  
HETATM   15  H   UNL     1      -9.776   8.235  74.632  1.00  0.00     0.000 HD 
BRANCH  14  16
HETATM   16  C   UNL     1     -10.850   7.421  72.948  1.00  0.00    -0.354 C  
BRANCH  16  17
HETATM   17  C   UNL     1     -11.166   7.905  71.527  1.00  0.00    -0.249 C  
HETATM   18  H2  UNL     1     -10.972   6.022  70.702  1.00  0.00     0.000 HD 
HETATM   19  N   UNL     1     -10.638   6.973  70.542  1.00  0.00    -0.219 NA 
HETATM   20  H1  UNL     1     -10.848   7.294  69.597  1.00  0.00     0.000 HD 
ENDBRANCH  16  17
ENDBRANCH  14  16
ENDBRANCH  12  14
ENDBRANCH  10  12
ENDBRANCH   4  10
BRANCH   9  21
HETATM   21  C   UNL     1     -11.186  14.194  70.244  1.00  0.00     0.061 C  
BRANCH  21  22
HETATM   22  C   UNL     1     -11.526  14.242  68.504  1.00  0.00    -0.329 C  
HETATM   23  CA  UNL     1     -10.383  14.183  66.964  1.00  0.00    -0.267 C  
HETATM   24  C   UNL     1     -10.657  12.660  64.926  1.00  0.00    -0.307 C  
HETATM   25  C   UNL     1     -13.398  14.276  68.362  1.00  0.00     3.867 C  
HETATM   26  C   UNL     1      -8.486  14.285  66.761  1.00  0.00    -0.020 C  
HETATM   27  N   UNL     1     -10.873  13.962  65.415  1.00  0.00    -0.306 N  
HETATM   28  O   UNL     1      -9.854  11.772  65.185  1.00  0.00    -0.243 OA 
HETATM   29  S   UNL     1     -14.225  14.120  66.275  1.00  0.00     7.944 SA 
HETATM   30  C   UNL     1     -12.425  13.920  64.930  1.00  0.00    -0.391 C  
HETATM   31  O   UNL     1      -7.864  15.057  67.562  1.00  0.00    -0.150 OA 
HETATM   32  OXT UNL     1      -8.096  13.736  65.700  1.00  0.00     2.333 OA 
HETATM   33  CA  UNL     1     -12.112  12.431  64.503  1.00  0.00    -0.417 C  
BRANCH  33  34
HETATM   34  N   UNL     1     -12.743  11.272  65.221  1.00  0.00     2.652 N  
HETATM   35  C   UNL     1     -12.178  10.155  65.853  1.00  0.00     6.083 C  
HETATM   36  H   UNL     1     -13.762  11.303  65.254  1.00  0.00     0.000 HD 
HETATM   37  O   UNL     1     -13.000   9.404  66.378  1.00  0.00    11.791 OA 
BRANCH  35  38
HETATM   38  C   UNL     1     -10.631   9.799  65.974  1.00  0.00     0.118 C  
HETATM   39  C   UNL     1      -9.603  10.805  65.844  1.00  0.00    -0.208 C  
HETATM   40  C   UNL     1      -7.076  12.610  65.625  1.00  0.00     4.171 C  
HETATM   41  N   UNL     1     -10.330  12.274  65.860  1.00  0.00    -0.246 NA 
HETATM   42  N   UNL     1      -5.909  13.216  65.997  1.00  0.00     2.984 NA 
HETATM   43  H   UNL     1      -7.077  10.172  65.812  1.00  0.00     0.000 HD 
HETATM   44  S   UNL     1      -8.852  14.142  65.524  1.00  0.00     1.906 SA 
HETATM   45  H1  UNL     1      -5.138  12.550  66.041  1.00  0.00     0.000 HD 
HETATM   46  H2  UNL     1      -5.821  14.210  66.206  1.00  0.00     0.000 HD 
HETATM   47  N   UNL     1      -7.696  10.981  65.769  1.00  0.00    -0.034 NA 
BRANCH  38  48
HETATM   48  N   UNL     1     -10.150   8.664  66.346  1.00  0.00    -0.375 NA 
HETATM   49  H   UNL     1      -9.292   8.626  66.896  1.00  0.00     0.000 HD 
BRANCH  48  50
HETATM   50  O   UNL     1     -10.794   7.514  66.001  1.00  0.00     1.226 OA 
HETATM   51  O   UNL     1      -9.222   5.101  68.064  1.00  0.00    -0.110 OA 
HETATM   52  C   UNL     1      -9.586   5.792  67.120  1.00  0.00    -0.127 C  
HETATM   53  C   UNL     1     -12.009   5.722  66.893  1.00  0.00     2.821 C  
HETATM   54  C   UNL     1     -10.631   7.311  68.611  1.00  0.00    -0.194 C  
HETATM   55  C   UNL     1     -10.830   6.661  67.174  1.00  0.00    -0.401 C  
HETATM   56  O   UNL     1      -8.917   5.839  65.951  1.00  0.00    -0.154 OA 
ENDBRANCH  48  50
ENDBRANCH  38  48
ENDBRANCH  35  38
ENDBRANCH  33  34
ENDBRANCH  21  22
ENDBRANCH   9  21
TORSDOF 11
ENDMDL
