MODEL        1
REMARK 921   NORMALIZED FREE ENERGY PREDICTED BY IDOCK:   -7.26 KCAL/MOL
REMARK 922        TOTAL FREE ENERGY PREDICTED BY IDOCK:  -13.32 KCAL/MOL
REMARK 923 INTER-LIGAND FREE ENERGY PREDICTED BY IDOCK:  -11.51 KCAL/MOL
REMARK 924 INTRA-LIGAND FREE ENERGY PREDICTED BY IDOCK:   -1.81 KCAL/MOL
REMARK 927      BINDING AFFINITY PREDICTED BY RF-SCORE:    0.00 PKD
ROOT
HETATM    1  C   UNL     1     -11.799  14.859  65.993  1.00  0.00    -0.114 C  
HETATM    2  S   UNL     1     -11.878  13.297  66.892  1.00  0.00    -0.383 SA 
HETATM    3  C   UNL     1     -12.213  14.018  68.510  1.00  0.00    -0.174 C  
HETATM    4  C   UNL     1     -11.629  15.389  68.830  1.00  0.00    -0.354 C  
HETATM    5  CA  UNL     1     -10.963  16.161  67.934  1.00  0.00    -0.318 C  
HETATM    6  CA  UNL     1     -10.866  14.913  64.737  1.00  0.00    -0.363 C  
HETATM    7  O   UNL     1      -9.100  16.663  65.350  1.00  0.00    -0.267 OA 
HETATM    8  C   UNL     1     -10.327  17.562  68.281  1.00  0.00    -0.379 C  
HETATM    9  N   UNL     1     -10.838  15.713  66.645  1.00  0.00    -0.299 N  
HETATM   10  C   UNL     1     -10.080  15.989  65.564  1.00  0.00    -0.304 C  
HETATM   11  O   UNL     1     -10.683  18.491  67.486  1.00  0.00    -0.427 OA 
HETATM   12  OXT UNL     1      -9.606  17.619  69.312  1.00  0.00    -0.103 OA 
ENDROOT
BRANCH   4  13
HETATM   13  S   UNL     1     -11.738  15.707  70.557  1.00  0.00    -0.401 SA 
BRANCH  13  14
HETATM   14  C   UNL     1     -12.427  14.249  71.223  1.00  0.00    -0.365 A  
HETATM   15  N   UNL     1     -11.925  13.037  71.115  1.00  0.00     0.147 NA 
HETATM   16  C   UNL     1     -12.800  12.124  71.680  1.00  0.00    -0.285 A  
HETATM   17  S   UNL     1     -13.842  14.373  72.201  1.00  0.00    -0.522 SA 
HETATM   18  C   UNL     1     -13.874  12.673  72.353  1.00  0.00    -0.169 A  
BRANCH  16  19
HETATM   19  C   UNL     1     -12.581  10.692  71.560  1.00  0.00    -0.517 A  
HETATM   20  C   UNL     1     -13.420   9.768  72.182  1.00  0.00    -0.491 A  
HETATM   21  C   UNL     1     -13.154   8.411  72.061  1.00  0.00    -0.352 A  
HETATM   22  C   UNL     1     -11.801   6.536  71.267  1.00  0.00    -0.329 C  
HETATM   23  N   UNL     1     -12.095   7.975  71.346  1.00  0.00    -0.300 NA 
HETATM   24  C   UNL     1     -11.510  10.216  70.806  1.00  0.00    -0.442 A  
HETATM   25  C   UNL     1     -11.287   8.852  70.706  1.00  0.00    -0.278 A  
ENDBRANCH  16  19
ENDBRANCH  13  14
ENDBRANCH   4  13
BRANCH   6  26
HETATM   26  N   UNL     1     -10.067  13.699  64.372  1.00  0.00    -0.661 N  
HETATM   27  H   UNL     1      -9.092  13.634  64.665  1.00  0.00     0.000 HD 
HETATM   28  C   UNL     1     -10.627  12.666  63.647  1.00  0.00    -0.342 C  
HETATM   29  O   UNL     1     -11.738  12.732  63.135  1.00  0.00    -0.472 OA 
BRANCH  28  30
HETATM   30  C   UNL     1      -9.791  11.390  63.499  1.00  0.00    -0.375 C  
BRANCH  30  31
HETATM   31  C   UNL     1      -9.640  10.510  64.667  1.00  0.00    -0.292 A  
HETATM   32  S   UNL     1      -9.398   8.516  66.030  1.00  0.00    -0.166 SA 
HETATM   33  N   UNL     1      -9.519  11.031  65.978  1.00  0.00    -0.199 NA 
HETATM   34  N   UNL     1      -9.567   9.179  64.521  1.00  0.00     0.377 NA 
HETATM   35  C   UNL     1      -9.394  10.038  66.829  1.00  0.00    -0.160 A  
BRANCH  35  36
HETATM   36  N   UNL     1      -9.252  10.144  68.174  1.00  0.00    -0.134 NA 
HETATM   37  H   UNL     1     -10.017   9.934  68.816  1.00  0.00     0.000 HD 
HETATM   38  P   UNL     1      -7.793  10.624  68.702  1.00  0.00    -0.138 P  
HETATM   39  O   UNL     1      -7.791  10.095  70.216  1.00  0.00    -0.173 OA 
HETATM   40  O   UNL     1      -6.692   9.651  68.070  1.00  0.00    -0.061 OA 
HETATM   41  O   UNL     1      -7.425  12.068  68.620  1.00  0.00    -0.113 OA 
ENDBRANCH  35  36
ENDBRANCH  30  31
BRANCH  30  42
HETATM   42  N   UNL     1      -9.184  11.009  62.408  1.00  0.00    -0.496 NA 
HETATM   43  H   UNL     1      -9.650  10.497  61.659  1.00  0.00     0.000 HD 
BRANCH  42  44
HETATM   44  O   UNL     1      -7.829  11.371  62.361  1.00  0.00    -0.042 OA 
BRANCH  44  45
HETATM   45  C   UNL     1      -7.044  10.176  62.330  1.00  0.00    -0.130 C  
HETATM   46  C   UNL     1      -6.064  10.199  63.489  1.00  0.00    -0.141 C  
ENDBRANCH  44  45
ENDBRANCH  42  44
ENDBRANCH  30  42
ENDBRANCH  28  30
ENDBRANCH   6  26
TORSDOF 10
ENDMDL
MODEL        2
REMARK 921   NORMALIZED FREE ENERGY PREDICTED BY IDOCK:   -6.97 KCAL/MOL
REMARK 922        TOTAL FREE ENERGY PREDICTED BY IDOCK:  -12.86 KCAL/MOL
REMARK 923 INTER-LIGAND FREE ENERGY PREDICTED BY IDOCK:  -10.47 KCAL/MOL
REMARK 924 INTRA-LIGAND FREE ENERGY PREDICTED BY IDOCK:   -2.38 KCAL/MOL
REMARK 927      BINDING AFFINITY PREDICTED BY RF-SCORE:    0.00 PKD
ROOT
HETATM    1  C   UNL     1      -9.729  12.933  67.302  1.00  0.00    -0.220 C  
HETATM    2  S   UNL     1      -8.919  11.897  68.535  1.00  0.00    -0.059 SA 
HETATM    3  C   UNL     1      -7.725  11.149  67.411  1.00  0.00    -0.120 C  
HETATM    4  C   UNL     1      -8.131  10.935  65.957  1.00  0.00    -0.142 C  
HETATM    5  CA  UNL     1      -9.298  11.373  65.419  1.00  0.00    -0.186 C  
HETATM    6  CA  UNL     1     -11.244  13.259  67.527  1.00  0.00    -0.281 C  
HETATM    7  O   UNL     1     -12.415  12.191  65.517  1.00  0.00    -0.517 OA 
HETATM    8  C   UNL     1      -9.730  11.114  63.925  1.00  0.00    -0.286 C  
HETATM    9  N   UNL     1     -10.154  12.095  66.209  1.00  0.00    -0.220 N  
HETATM   10  C   UNL     1     -11.451  12.469  66.189  1.00  0.00    -0.377 C  
HETATM   11  O   UNL     1     -10.068  12.174  63.305  1.00  0.00    -0.414 OA 
HETATM   12  OXT UNL     1      -9.639   9.931  63.503  1.00  0.00    -0.212 OA 
ENDROOT
BRANCH   4  13
HETATM   13  S   UNL     1      -6.995   9.851  65.163  1.00  0.00    -0.134 SA 
BRANCH  13  14
HETATM   14  C   UNL     1      -7.621   8.255  65.486  1.00  0.00    -0.087 A  
HETATM   15  N   UNL     1      -8.077   7.822  66.643  1.00  0.00    -0.109 NA 
HETATM   16  C   UNL     1      -8.390   6.476  66.540  1.00  0.00    -0.116 A  
HETATM   17  S   UNL     1      -7.766   7.141  64.177  1.00  0.00    -0.115 SA 
HETATM   18  C   UNL     1      -8.322   5.950  65.266  1.00  0.00    -0.146 A  
BRANCH  16  19
HETATM   19  C   UNL     1      -8.762   5.695  67.708  1.00  0.00    -0.107 A  
HETATM   20  C   UNL     1     -10.058   5.721  68.223  1.00  0.00    -0.208 A  
HETATM   21  C   UNL     1     -10.358   4.979  69.357  1.00  0.00    -0.144 A  
HETATM   22  C   UNL     1      -9.737   3.489  71.193  1.00  0.00    -0.167 C  
HETATM   23  N   UNL     1      -9.413   4.231  69.966  1.00  0.00    -0.165 NA 
HETATM   24  C   UNL     1      -7.811   4.896  68.339  1.00  0.00    -0.082 A  
HETATM   25  C   UNL     1      -8.157   4.166  69.464  1.00  0.00    -0.059 A  
ENDBRANCH  16  19
ENDBRANCH  13  14
ENDBRANCH   4  13
BRANCH   6  26
HETATM   26  N   UNL     1     -11.945  12.672  68.715  1.00  0.00    -0.289 N  
HETATM   27  H   UNL     1     -12.294  11.715  68.667  1.00  0.00     0.000 HD 
HETATM   28  C   UNL     1     -12.126  13.404  69.871  1.00  0.00    -0.322 C  
HETATM   29  O   UNL     1     -11.870  14.599  69.956  1.00  0.00    -0.272 OA 
BRANCH  28  30
HETATM   30  C   UNL     1     -12.672  12.650  71.089  1.00  0.00    -0.254 C  
BRANCH  30  31
HETATM   31  C   UNL     1     -12.485  11.193  71.157  1.00  0.00    -0.393 A  
HETATM   32  S   UNL     1     -12.912   8.834  71.528  1.00  0.00    -0.296 SA 
HETATM   33  N   UNL     1     -11.286  10.579  70.722  1.00  0.00    -0.228 NA 
HETATM   34  N   UNL     1     -13.468  10.392  71.592  1.00  0.00    -0.290 NA 
HETATM   35  C   UNL     1     -11.381   9.279  70.886  1.00  0.00    -0.308 A  
BRANCH  35  36
HETATM   36  N   UNL     1     -10.433   8.358  70.581  1.00  0.00    -0.197 NA 
HETATM   37  H   UNL     1     -10.237   8.083  69.619  1.00  0.00     0.000 HD 
HETATM   38  P   UNL     1      -9.630   7.718  71.840  1.00  0.00    -0.187 P  
HETATM   39  O   UNL     1      -8.290   7.176  71.144  1.00  0.00    -0.112 OA 
HETATM   40  O   UNL     1      -9.024   8.920  72.704  1.00  0.00    -0.337 OA 
HETATM   41  O   UNL     1     -10.288   6.665  72.669  1.00  0.00    -0.186 OA 
ENDBRANCH  35  36
ENDBRANCH  30  31
BRANCH  30  42
HETATM   42  N   UNL     1     -13.307  13.197  72.091  1.00  0.00    -0.513 NA 
HETATM   43  H   UNL     1     -13.169  12.913  73.061  1.00  0.00     0.000 HD 
BRANCH  42  44
HETATM   44  O   UNL     1     -14.194  14.213  71.708  1.00  0.00    -0.436 OA 
BRANCH  44  45
HETATM   45  C   UNL     1     -13.970  15.348  72.550  1.00  0.00    -0.543 C  
HETATM   46  C   UNL     1     -12.822  15.044  73.494  1.00  0.00    -0.636 C  
ENDBRANCH  44  45
ENDBRANCH  42  44
ENDBRANCH  30  42
ENDBRANCH  28  30
ENDBRANCH   6  26
TORSDOF 10
ENDMDL
MODEL        3
REMARK 921   NORMALIZED FREE ENERGY PREDICTED BY IDOCK:   -6.80 KCAL/MOL
REMARK 922        TOTAL FREE ENERGY PREDICTED BY IDOCK:  -12.58 KCAL/MOL
REMARK 923 INTER-LIGAND FREE ENERGY PREDICTED BY IDOCK:  -12.39 KCAL/MOL
REMARK 924 INTRA-LIGAND FREE ENERGY PREDICTED BY IDOCK:   -0.18 KCAL/MOL
REMARK 927      BINDING AFFINITY PREDICTED BY RF-SCORE:    0.00 PKD
ROOT
HETATM    1  C   UNL     1      -7.530   9.689  67.251  1.00  0.00    -0.088 C  
HETATM    2  S   UNL     1      -7.978  10.696  68.678  1.00  0.00    -0.137 SA 
HETATM    3  C   UNL     1      -8.583   9.336  69.696  1.00  0.00    -0.150 C  
HETATM    4  C   UNL     1      -9.231   8.142  69.003  1.00  0.00    -0.148 C  
HETATM    5  CA  UNL     1      -9.284   7.980  67.656  1.00  0.00    -0.133 C  
HETATM    6  CA  UNL     1      -7.615  10.370  65.843  1.00  0.00    -0.146 C  
HETATM    7  O   UNL     1      -9.405   9.021  64.607  1.00  0.00    -0.001 OA 
HETATM    8  C   UNL     1      -9.990   6.763  66.944  1.00  0.00    -0.191 C  
HETATM    9  N   UNL     1      -8.681   8.917  66.858  1.00  0.00    -0.118 N  
HETATM   10  C   UNL     1      -8.714   9.289  65.561  1.00  0.00    -0.175 C  
HETATM   11  O   UNL     1      -9.244   6.167  66.101  1.00  0.00    -0.161 OA 
HETATM   12  OXT UNL     1     -11.160   6.485  67.319  1.00  0.00    -0.378 OA 
ENDROOT
BRANCH   4  13
HETATM   13  S   UNL     1     -10.090   7.152  70.177  1.00  0.00    -0.190 SA 
BRANCH  13  14
HETATM   14  C   UNL     1     -11.242   8.243  70.903  1.00  0.00    -0.265 A  
HETATM   15  N   UNL     1     -11.435   9.501  70.565  1.00  0.00    -0.271 NA 
HETATM   16  C   UNL     1     -12.353  10.074  71.430  1.00  0.00    -0.415 A  
HETATM   17  S   UNL     1     -12.312   7.634  72.111  1.00  0.00    -0.199 SA 
HETATM   18  C   UNL     1     -12.964   9.200  72.307  1.00  0.00    -0.420 A  
BRANCH  16  19
HETATM   19  C   UNL     1     -12.637  11.499  71.396  1.00  0.00    -0.419 A  
HETATM   20  C   UNL     1     -12.047  12.341  70.453  1.00  0.00    -0.385 A  
HETATM   21  C   UNL     1     -12.328  13.700  70.478  1.00  0.00    -0.355 A  
HETATM   22  C   UNL     1     -13.417  15.664  71.442  1.00  0.00    -0.391 C  
HETATM   23  N   UNL     1     -13.168  14.216  71.401  1.00  0.00    -0.345 NA 
HETATM   24  C   UNL     1     -13.519  12.052  72.322  1.00  0.00    -0.239 A  
HETATM   25  C   UNL     1     -13.777  13.413  72.305  1.00  0.00    -0.607 A  
ENDBRANCH  16  19
ENDBRANCH  13  14
ENDBRANCH   4  13
BRANCH   6  26
HETATM   26  N   UNL     1      -8.093  11.788  65.749  1.00  0.00    -0.182 N  
HETATM   27  H   UNL     1      -7.433  12.523  65.494  1.00  0.00     0.000 HD 
HETATM   28  C   UNL     1      -9.410  12.116  66.000  1.00  0.00    -0.170 C  
HETATM   29  O   UNL     1     -10.225  11.321  66.452  1.00  0.00    -0.216 OA 
BRANCH  28  30
HETATM   30  C   UNL     1      -9.839  13.553  65.683  1.00  0.00    -0.167 C  
BRANCH  30  31
HETATM   31  C   UNL     1      -9.708  14.574  66.733  1.00  0.00    -0.260 A  
HETATM   32  S   UNL     1      -9.174  15.650  68.842  1.00  0.00    -0.243 SA 
HETATM   33  N   UNL     1     -10.105  15.915  66.517  1.00  0.00    -0.270 NA 
HETATM   34  N   UNL     1      -9.162  14.273  67.921  1.00  0.00    -0.187 NA 
HETATM   35  C   UNL     1      -9.880  16.614  67.606  1.00  0.00    -0.256 A  
BRANCH  35  36
HETATM   36  N   UNL     1     -10.129  17.936  67.780  1.00  0.00    -0.330 NA 
HETATM   37  H   UNL     1     -10.451  18.312  68.672  1.00  0.00     0.000 HD 
HETATM   38  P   UNL     1      -9.885  18.885  66.485  1.00  0.00    -0.400 P  
HETATM   39  O   UNL     1      -9.699  20.330  67.155  1.00  0.00    -0.400 OA 
HETATM   40  O   UNL     1      -8.395  18.633  65.959  1.00  0.00    -0.475 OA 
HETATM   41  O   UNL     1     -10.902  18.908  65.392  1.00  0.00    -0.553 OA 
ENDBRANCH  35  36
ENDBRANCH  30  31
BRANCH  30  42
HETATM   42  N   UNL     1     -10.324  13.960  64.541  1.00  0.00    -0.652 NA 
HETATM   43  H   UNL     1      -9.740  14.201  63.740  1.00  0.00     0.000 HD 
BRANCH  42  44
HETATM   44  O   UNL     1     -11.725  14.032  64.518  1.00  0.00    -0.381 OA 
BRANCH  44  45
HETATM   45  C   UNL     1     -12.192  13.368  63.341  1.00  0.00    -0.349 C  
HETATM   46  C   UNL     1     -12.113  11.868  63.556  1.00  0.00    -0.575 C  
ENDBRANCH  44  45
ENDBRANCH  42  44
ENDBRANCH  30  42
ENDBRANCH  28  30
ENDBRANCH   6  26
TORSDOF 10
ENDMDL
MODEL        4
REMARK 921   NORMALIZED FREE ENERGY PREDICTED BY IDOCK:   -6.78 KCAL/MOL
REMARK 922        TOTAL FREE ENERGY PREDICTED BY IDOCK:  -12.54 KCAL/MOL
REMARK 923 INTER-LIGAND FREE ENERGY PREDICTED BY IDOCK:  -10.95 KCAL/MOL
REMARK 924 INTRA-LIGAND FREE ENERGY PREDICTED BY IDOCK:   -1.60 KCAL/MOL
REMARK 927      BINDING AFFINITY PREDICTED BY RF-SCORE:    0.00 PKD
ROOT
HETATM    1  C   UNL     1     -10.778   9.254  68.646  1.00  0.00    -0.143 C  
HETATM    2  S   UNL     1      -9.282   9.883  67.858  1.00  0.00    -0.130 SA 
HETATM    3  C   UNL     1      -8.353   8.340  67.940  1.00  0.00    -0.128 C  
HETATM    4  C   UNL     1      -8.611   7.397  69.110  1.00  0.00    -0.136 C  
HETATM    5  CA  UNL     1      -9.580   7.588  70.042  1.00  0.00    -0.164 C  
HETATM    6  CA  UNL     1     -11.636  10.276  69.466  1.00  0.00    -0.168 C  
HETATM    7  O   UNL     1     -11.549   9.379  71.862  1.00  0.00    -0.378 OA 
HETATM    8  C   UNL     1      -9.817   6.630  71.273  1.00  0.00    -0.177 C  
HETATM    9  N   UNL     1     -10.415   8.666  69.910  1.00  0.00    -0.214 N  
HETATM   10  C   UNL     1     -11.276   9.359  70.685  1.00  0.00    -0.284 C  
HETATM   11  O   UNL     1     -11.022   6.233  71.380  1.00  0.00    -0.253 OA 
HETATM   12  OXT UNL     1      -8.805   6.324  71.958  1.00  0.00    -0.138 OA 
ENDROOT
BRANCH   4  13
HETATM   13  S   UNL     1      -7.341   6.184  69.204  1.00  0.00    -0.086 SA 
BRANCH  13  14
HETATM   14  C   UNL     1      -7.285   5.490  67.604  1.00  0.00    -0.075 A  
HETATM   15  N   UNL     1      -8.316   5.033  66.923  1.00  0.00    -0.107 NA 
HETATM   16  C   UNL     1      -7.871   4.466  65.740  1.00  0.00    -0.094 A  
HETATM   17  S   UNL     1      -5.782   5.470  66.760  1.00  0.00    -0.018 SA 
HETATM   18  C   UNL     1      -6.530   4.647  65.465  1.00  0.00    -0.040 A  
BRANCH  16  19
HETATM   19  C   UNL     1      -8.773   3.736  64.865  1.00  0.00    -0.115 A  
HETATM   20  C   UNL     1      -9.441   4.364  63.814  1.00  0.00    -0.072 A  
HETATM   21  C   UNL     1     -10.314   3.631  63.022  1.00  0.00    -0.199 A  
HETATM   22  C   UNL     1     -11.486   1.567  62.436  1.00  0.00    -0.239 C  
HETATM   23  N   UNL     1     -10.522   2.317  63.255  1.00  0.00    -0.160 NA 
HETATM   24  C   UNL     1      -8.985   2.374  65.068  1.00  0.00    -0.126 A  
HETATM   25  C   UNL     1      -9.859   1.680  64.248  1.00  0.00    -0.040 A  
ENDBRANCH  16  19
ENDBRANCH  13  14
ENDBRANCH   4  13
BRANCH   6  26
HETATM   26  N   UNL     1     -11.161  11.692  69.587  1.00  0.00    -0.457 N  
HETATM   27  H   UNL     1     -10.266  11.957  69.175  1.00  0.00     0.000 HD 
HETATM   28  C   UNL     1     -11.911  12.644  70.246  1.00  0.00    -0.284 C  
HETATM   29  O   UNL     1     -12.918  12.376  70.891  1.00  0.00    -0.140 OA 
BRANCH  28  30
HETATM   30  C   UNL     1     -11.436  14.098  70.140  1.00  0.00    -0.163 C  
BRANCH  30  31
HETATM   31  C   UNL     1     -11.182  14.659  68.805  1.00  0.00    -0.267 A  
HETATM   32  S   UNL     1     -10.740  16.245  67.022  1.00  0.00    -0.172 SA 
HETATM   33  N   UNL     1     -11.072  13.832  67.662  1.00  0.00    -0.267 NA 
HETATM   34  N   UNL     1     -11.002  15.977  68.636  1.00  0.00    -0.303 NA 
HETATM   35  C   UNL     1     -10.843  14.579  66.607  1.00  0.00    -0.311 A  
BRANCH  35  36
HETATM   36  N   UNL     1     -10.676  14.145  65.333  1.00  0.00    -0.322 NA 
HETATM   37  H   UNL     1      -9.753  13.946  64.946  1.00  0.00     0.000 HD 
HETATM   38  P   UNL     1     -12.032  13.961  64.459  1.00  0.00    -0.437 P  
HETATM   39  O   UNL     1     -11.560  12.943  63.313  1.00  0.00    -0.488 OA 
HETATM   40  O   UNL     1     -13.025  13.011  65.277  1.00  0.00    -0.697 OA 
HETATM   41  O   UNL     1     -12.703  15.166  63.886  1.00  0.00    -0.759 OA 
ENDBRANCH  35  36
ENDBRANCH  30  31
BRANCH  30  42
HETATM   42  N   UNL     1     -11.226  14.897  71.152  1.00  0.00    -0.543 NA 
HETATM   43  H   UNL     1     -10.319  14.990  71.611  1.00  0.00     0.000 HD 
BRANCH  42  44
HETATM   44  O   UNL     1     -12.363  15.616  71.546  1.00  0.00    -0.361 OA 
BRANCH  44  45
HETATM   45  C   UNL     1     -12.072  16.277  72.781  1.00  0.00    -0.540 C  
HETATM   46  C   UNL     1     -12.593  15.431  73.929  1.00  0.00    -0.750 C  
ENDBRANCH  44  45
ENDBRANCH  42  44
ENDBRANCH  30  42
ENDBRANCH  28  30
ENDBRANCH   6  26
TORSDOF 10
ENDMDL
MODEL        5
REMARK 921   NORMALIZED FREE ENERGY PREDICTED BY IDOCK:   -6.74 KCAL/MOL
REMARK 922        TOTAL FREE ENERGY PREDICTED BY IDOCK:  -12.49 KCAL/MOL
REMARK 923 INTER-LIGAND FREE ENERGY PREDICTED BY IDOCK:  -11.14 KCAL/MOL
REMARK 924 INTRA-LIGAND FREE ENERGY PREDICTED BY IDOCK:   -1.34 KCAL/MOL
REMARK 927      BINDING AFFINITY PREDICTED BY RF-SCORE:    0.00 PKD
ROOT
HETATM    1  C   UNL     1     -11.401  10.439  69.272  1.00  0.00    -0.235 C  
HETATM    2  S   UNL     1      -9.649  10.781  69.017  1.00  0.00    -0.143 SA 
HETATM    3  C   UNL     1      -9.061   9.136  69.464  1.00  0.00    -0.155 C  
HETATM    4  C   UNL     1      -9.839   8.345  70.509  1.00  0.00    -0.184 C  
HETATM    5  CA  UNL     1     -11.016   8.750  71.050  1.00  0.00    -0.268 C  
HETATM    6  CA  UNL     1     -12.304  11.639  69.715  1.00  0.00    -0.133 C  
HETATM    7  O   UNL     1     -13.158  10.953  72.029  1.00  0.00    -0.491 OA 
HETATM    8  C   UNL     1     -11.797   7.948  72.160  1.00  0.00    -0.334 C  
HETATM    9  N   UNL     1     -11.575   9.919  70.605  1.00  0.00    -0.311 N  
HETATM   10  C   UNL     1     -12.520  10.791  71.016  1.00  0.00    -0.420 C  
HETATM   11  O   UNL     1     -13.017   7.734  71.867  1.00  0.00    -0.314 OA 
HETATM   12  OXT UNL     1     -11.131   7.564  73.159  1.00  0.00    -0.383 OA 
ENDROOT
BRANCH   4  13
HETATM   13  S   UNL     1      -8.884   6.978  71.071  1.00  0.00    -0.146 SA 
BRANCH  13  14
HETATM   14  C   UNL     1      -8.225   6.282  69.613  1.00  0.00    -0.124 A  
HETATM   15  N   UNL     1      -8.919   5.754  68.627  1.00  0.00    -0.113 NA 
HETATM   16  C   UNL     1      -8.051   5.211  67.693  1.00  0.00    -0.099 A  
HETATM   17  S   UNL     1      -6.522   6.357  69.355  1.00  0.00    -0.041 SA 
HETATM   18  C   UNL     1      -6.713   5.480  67.903  1.00  0.00    -0.055 A  
BRANCH  16  19
HETATM   19  C   UNL     1      -8.540   4.419  66.577  1.00  0.00    -0.112 A  
HETATM   20  C   UNL     1      -8.706   3.038  66.677  1.00  0.00    -0.135 A  
HETATM   21  C   UNL     1      -9.150   2.320  65.574  1.00  0.00    -0.096 A  
HETATM   22  C   UNL     1      -9.851   2.162  63.238  1.00  0.00    -0.110 C  
HETATM   23  N   UNL     1      -9.427   2.943  64.409  1.00  0.00    -0.143 NA 
HETATM   24  C   UNL     1      -8.857   5.042  65.371  1.00  0.00    -0.152 A  
HETATM   25  C   UNL     1      -9.305   4.287  64.299  1.00  0.00    -0.150 A  
ENDBRANCH  16  19
ENDBRANCH  13  14
ENDBRANCH   4  13
BRANCH   6  26
HETATM   26  N   UNL     1     -11.673  12.980  69.940  1.00  0.00    -0.480 N  
HETATM   27  H   UNL     1     -10.678  13.103  69.753  1.00  0.00     0.000 HD 
HETATM   28  C   UNL     1     -12.414  14.052  70.395  1.00  0.00    -0.350 C  
HETATM   29  O   UNL     1     -13.573  13.950  70.781  1.00  0.00    -0.036 OA 
BRANCH  28  30
HETATM   30  C   UNL     1     -11.724  15.420  70.400  1.00  0.00    -0.319 C  
BRANCH  30  31
HETATM   31  C   UNL     1     -10.654  15.671  69.423  1.00  0.00    -0.253 A  
HETATM   32  S   UNL     1      -8.906  15.303  67.780  1.00  0.00    -0.176 SA 
HETATM   33  N   UNL     1     -10.270  16.986  69.065  1.00  0.00    -0.307 NA 
HETATM   34  N   UNL     1     -10.037  14.655  68.802  1.00  0.00    -0.232 NA 
HETATM   35  C   UNL     1      -9.303  16.928  68.178  1.00  0.00    -0.240 A  
BRANCH  35  36
HETATM   36  N   UNL     1      -8.679  17.983  67.598  1.00  0.00    -0.245 NA 
HETATM   37  H   UNL     1      -7.684  18.164  67.734  1.00  0.00     0.000 HD 
HETATM   38  P   UNL     1      -9.609  18.942  66.673  1.00  0.00    -0.363 P  
HETATM   39  O   UNL     1      -8.524  19.663  65.737  1.00  0.00    -0.401 OA 
HETATM   40  O   UNL     1     -10.342  18.025  65.588  1.00  0.00    -0.611 OA 
HETATM   41  O   UNL     1     -10.519  19.929  67.327  1.00  0.00    -0.432 OA 
ENDBRANCH  35  36
ENDBRANCH  30  31
BRANCH  30  42
HETATM   42  N   UNL     1     -12.003  16.402  71.215  1.00  0.00    -0.585 NA 
HETATM   43  H   UNL     1     -12.595  17.191  70.956  1.00  0.00     0.000 HD 
BRANCH  42  44
HETATM   44  O   UNL     1     -11.412  16.269  72.480  1.00  0.00    -0.300 OA 
BRANCH  44  45
HETATM   45  C   UNL     1     -12.398  16.568  73.471  1.00  0.00    -0.388 C  
HETATM   46  C   UNL     1     -12.597  15.349  74.354  1.00  0.00    -0.579 C  
ENDBRANCH  44  45
ENDBRANCH  42  44
ENDBRANCH  30  42
ENDBRANCH  28  30
ENDBRANCH   6  26
TORSDOF 10
ENDMDL
MODEL        6
REMARK 921   NORMALIZED FREE ENERGY PREDICTED BY IDOCK:   -6.55 KCAL/MOL
REMARK 922        TOTAL FREE ENERGY PREDICTED BY IDOCK:  -12.19 KCAL/MOL
REMARK 923 INTER-LIGAND FREE ENERGY PREDICTED BY IDOCK:   -9.93 KCAL/MOL
REMARK 924 INTRA-LIGAND FREE ENERGY PREDICTED BY IDOCK:   -2.26 KCAL/MOL
REMARK 927      BINDING AFFINITY PREDICTED BY RF-SCORE:    0.00 PKD
ROOT
HETATM    1  C   UNL     1     -11.778  13.442  68.437  1.00  0.00    -0.355 C  
HETATM    2  S   UNL     1     -10.865  11.897  68.615  1.00  0.00    -0.245 SA 
HETATM    3  C   UNL     1     -11.994  11.136  69.796  1.00  0.00    -0.357 C  
HETATM    4  C   UNL     1     -12.741  12.037  70.774  1.00  0.00    -0.143 C  
HETATM    5  CA  UNL     1     -12.698  13.394  70.743  1.00  0.00    -0.228 C  
HETATM    6  CA  UNL     1     -10.947  14.728  68.108  1.00  0.00    -0.268 C  
HETATM    7  O   UNL     1     -11.318  16.244  70.137  1.00  0.00    -0.349 OA 
HETATM    8  C   UNL     1     -13.440  14.321  71.780  1.00  0.00    -0.381 C  
HETATM    9  N   UNL     1     -11.981  14.006  69.748  1.00  0.00    -0.315 N  
HETATM   10  C   UNL     1     -11.466  15.228  69.501  1.00  0.00    -0.305 C  
HETATM   11  O   UNL     1     -14.170  15.210  71.234  1.00  0.00    -0.462 OA 
HETATM   12  OXT UNL     1     -13.281  14.050  73.000  1.00  0.00    -0.588 OA 
ENDROOT
BRANCH   4  13
HETATM   13  S   UNL     1     -13.453  11.076  72.063  1.00  0.00     0.022 SA 
BRANCH  13  14
HETATM   14  C   UNL     1     -12.756   9.489  71.857  1.00  0.00    -0.411 A  
HETATM   15  N   UNL     1     -11.484   9.180  71.995  1.00  0.00    -0.344 NA 
HETATM   16  C   UNL     1     -11.293   7.851  71.651  1.00  0.00    -0.258 A  
HETATM   17  S   UNL     1     -13.805   8.159  71.537  1.00  0.00    -0.297 SA 
HETATM   18  C   UNL     1     -12.447   7.131  71.415  1.00  0.00    -0.388 A  
BRANCH  16  19
HETATM   19  C   UNL     1      -9.961   7.279  71.553  1.00  0.00    -0.191 A  
HETATM   20  C   UNL     1      -9.223   6.944  72.688  1.00  0.00    -0.151 A  
HETATM   21  C   UNL     1      -7.943   6.426  72.544  1.00  0.00    -0.102 A  
HETATM   22  C   UNL     1      -6.032   5.733  71.186  1.00  0.00    -0.029 C  
HETATM   23  N   UNL     1      -7.406   6.238  71.319  1.00  0.00    -0.079 NA 
HETATM   24  C   UNL     1      -9.395   7.052  70.300  1.00  0.00    -0.159 A  
HETATM   25  C   UNL     1      -8.117   6.525  70.203  1.00  0.00    -0.121 A  
ENDBRANCH  16  19
ENDBRANCH  13  14
ENDBRANCH   4  13
BRANCH   6  26
HETATM   26  N   UNL     1      -9.456  14.621  67.997  1.00  0.00    -0.202 N  
HETATM   27  H   UNL     1      -9.004  13.724  68.171  1.00  0.00     0.000 HD 
HETATM   28  C   UNL     1      -8.684  15.716  67.663  1.00  0.00    -0.175 C  
HETATM   29  O   UNL     1      -9.132  16.853  67.584  1.00  0.00    -0.220 OA 
BRANCH  28  30
HETATM   30  C   UNL     1      -7.200  15.457  67.381  1.00  0.00    -0.209 C  
BRANCH  30  31
HETATM   31  C   UNL     1      -6.590  14.225  67.902  1.00  0.00    -0.165 A  
HETATM   32  S   UNL     1      -5.158  12.277  68.110  1.00  0.00    -0.067 SA 
HETATM   33  N   UNL     1      -6.990  13.666  69.140  1.00  0.00    -0.099 NA 
HETATM   34  N   UNL     1      -5.598  13.614  67.238  1.00  0.00    -0.280 NA 
HETATM   35  C   UNL     1      -6.290  12.578  69.369  1.00  0.00    -0.114 A  
BRANCH  35  36
HETATM   36  N   UNL     1      -6.388  11.772  70.455  1.00  0.00    -0.523 NA 
HETATM   37  H   UNL     1      -6.332  12.137  71.406  1.00  0.00     0.000 HD 
HETATM   38  P   UNL     1      -6.602  10.190  70.153  1.00  0.00    -0.143 P  
HETATM   39  O   UNL     1      -7.236   9.665  71.529  1.00  0.00    -0.294 OA 
HETATM   40  O   UNL     1      -7.870  10.036  69.190  1.00  0.00    -0.093 OA 
HETATM   41  O   UNL     1      -5.434   9.362  69.730  1.00  0.00    -0.033 OA 
ENDBRANCH  35  36
ENDBRANCH  30  31
BRANCH  30  42
HETATM   42  N   UNL     1      -6.411  16.252  66.709  1.00  0.00    -0.282 NA 
HETATM   43  H   UNL     1      -6.369  16.266  65.690  1.00  0.00     0.000 HD 
BRANCH  42  44
HETATM   44  O   UNL     1      -5.629  17.086  67.521  1.00  0.00    -0.122 OA 
BRANCH  44  45
HETATM   45  C   UNL     1      -5.868  18.443  67.136  1.00  0.00    -0.149 C  
HETATM   46  C   UNL     1      -5.992  18.513  65.625  1.00  0.00    -0.260 C  
ENDBRANCH  44  45
ENDBRANCH  42  44
ENDBRANCH  30  42
ENDBRANCH  28  30
ENDBRANCH   6  26
TORSDOF 10
ENDMDL
MODEL        7
REMARK 921   NORMALIZED FREE ENERGY PREDICTED BY IDOCK:   -6.50 KCAL/MOL
REMARK 922        TOTAL FREE ENERGY PREDICTED BY IDOCK:  -12.11 KCAL/MOL
REMARK 923 INTER-LIGAND FREE ENERGY PREDICTED BY IDOCK:  -11.40 KCAL/MOL
REMARK 924 INTRA-LIGAND FREE ENERGY PREDICTED BY IDOCK:   -0.70 KCAL/MOL
REMARK 927      BINDING AFFINITY PREDICTED BY RF-SCORE:    0.00 PKD
ROOT
HETATM    1  C   UNL     1      -6.778   9.121  68.249  1.00  0.00    -0.060 C  
HETATM    2  S   UNL     1      -7.064   9.773  69.906  1.00  0.00    -0.126 SA 
HETATM    3  C   UNL     1      -8.129   8.429  70.464  1.00  0.00    -0.107 C  
HETATM    4  C   UNL     1      -9.015   7.729  69.440  1.00  0.00    -0.142 C  
HETATM    5  CA  UNL     1      -8.975   7.976  68.105  1.00  0.00    -0.135 C  
HETATM    6  CA  UNL     1      -6.524  10.163  67.107  1.00  0.00    -0.068 C  
HETATM    7  O   UNL     1      -8.489   9.817  65.503  1.00  0.00    -0.132 OA 
HETATM    8  C   UNL     1      -9.921   7.278  67.054  1.00  0.00    -0.224 C  
HETATM    9  N   UNL     1      -8.055   8.873  67.630  1.00  0.00    -0.106 N  
HETATM   10  C   UNL     1      -7.850   9.586  66.502  1.00  0.00    -0.101 C  
HETATM   11  O   UNL     1      -9.293   6.747  66.081  1.00  0.00    -0.144 OA 
HETATM   12  OXT UNL     1     -11.153   7.270  67.315  1.00  0.00    -0.258 OA 
ENDROOT
BRANCH   4  13
HETATM   13  S   UNL     1     -10.232   6.755  70.254  1.00  0.00    -0.198 SA 
BRANCH  13  14
HETATM   14  C   UNL     1     -11.442   7.907  70.758  1.00  0.00    -0.263 A  
HETATM   15  N   UNL     1     -11.427   9.201  70.515  1.00  0.00    -0.255 NA 
HETATM   16  C   UNL     1     -12.496   9.803  71.159  1.00  0.00    -0.350 A  
HETATM   17  S   UNL     1     -12.851   7.328  71.566  1.00  0.00    -0.377 SA 
HETATM   18  C   UNL     1     -13.397   8.936  71.745  1.00  0.00    -0.386 A  
BRANCH  16  19
HETATM   19  C   UNL     1     -12.637  11.249  71.200  1.00  0.00    -0.501 A  
HETATM   20  C   UNL     1     -13.384  11.883  72.192  1.00  0.00    -0.361 A  
HETATM   21  C   UNL     1     -13.512  13.266  72.173  1.00  0.00    -0.562 A  
HETATM   22  C   UNL     1     -13.105  15.461  71.178  1.00  0.00    -0.498 C  
HETATM   23  N   UNL     1     -12.920  14.003  71.209  1.00  0.00    -0.339 NA 
HETATM   24  C   UNL     1     -12.014  12.033  70.231  1.00  0.00    -0.398 A  
HETATM   25  C   UNL     1     -12.163  13.410  70.256  1.00  0.00    -0.335 A  
ENDBRANCH  16  19
ENDBRANCH  13  14
ENDBRANCH   4  13
BRANCH   6  26
HETATM   26  N   UNL     1      -6.570  11.625  67.434  1.00  0.00    -0.093 N  
HETATM   27  H   UNL     1      -5.701  12.157  67.472  1.00  0.00     0.000 HD 
HETATM   28  C   UNL     1      -7.767  12.265  67.683  1.00  0.00    -0.144 C  
HETATM   29  O   UNL     1      -8.833  11.672  67.801  1.00  0.00    -0.149 OA 
BRANCH  28  30
HETATM   30  C   UNL     1      -7.724  13.792  67.808  1.00  0.00    -0.168 C  
BRANCH  30  31
HETATM   31  C   UNL     1      -8.726  14.585  67.080  1.00  0.00    -0.219 A  
HETATM   32  S   UNL     1     -10.161  16.424  66.411  1.00  0.00    -0.326 SA 
HETATM   33  N   UNL     1      -9.397  14.070  65.945  1.00  0.00    -0.065 NA 
HETATM   34  N   UNL     1      -9.003  15.845  67.444  1.00  0.00    -0.189 NA 
HETATM   35  C   UNL     1     -10.230  14.976  65.486  1.00  0.00    -0.378 A  
BRANCH  35  36
HETATM   36  N   UNL     1     -11.045  14.849  64.410  1.00  0.00    -0.645 NA 
HETATM   37  H   UNL     1     -10.896  15.383  63.553  1.00  0.00     0.000 HD 
HETATM   38  P   UNL     1     -12.273  13.798  64.565  1.00  0.00    -0.351 P  
HETATM   39  O   UNL     1     -12.633  13.472  63.036  1.00  0.00    -0.716 OA 
HETATM   40  O   UNL     1     -11.665  12.387  65.010  1.00  0.00    -0.346 OA 
HETATM   41  O   UNL     1     -13.482  14.195  65.346  1.00  0.00    -0.648 OA 
ENDBRANCH  35  36
ENDBRANCH  30  31
BRANCH  30  42
HETATM   42  N   UNL     1      -6.857  14.466  68.514  1.00  0.00    -0.091 NA 
HETATM   43  H   UNL     1      -6.602  15.433  68.310  1.00  0.00     0.000 HD 
BRANCH  42  44
HETATM   44  O   UNL     1      -6.309  13.736  69.579  1.00  0.00    -0.110 OA 
BRANCH  44  45
HETATM   45  C   UNL     1      -6.014  14.645  70.643  1.00  0.00    -0.164 C  
HETATM   46  C   UNL     1      -5.872  16.044  70.073  1.00  0.00    -0.173 C  
ENDBRANCH  44  45
ENDBRANCH  42  44
ENDBRANCH  30  42
ENDBRANCH  28  30
ENDBRANCH   6  26
TORSDOF 10
ENDMDL
MODEL        8
REMARK 921   NORMALIZED FREE ENERGY PREDICTED BY IDOCK:   -6.49 KCAL/MOL
REMARK 922        TOTAL FREE ENERGY PREDICTED BY IDOCK:  -12.09 KCAL/MOL
REMARK 923 INTER-LIGAND FREE ENERGY PREDICTED BY IDOCK:  -10.47 KCAL/MOL
REMARK 924 INTRA-LIGAND FREE ENERGY PREDICTED BY IDOCK:   -1.63 KCAL/MOL
REMARK 927      BINDING AFFINITY PREDICTED BY RF-SCORE:    0.00 PKD
ROOT
HETATM    1  C   UNL     1      -8.687  11.341  67.293  1.00  0.00    -0.145 C  
HETATM    2  S   UNL     1     -10.012  11.142  66.086  1.00  0.00    -0.239 SA 
HETATM    3  C   UNL     1      -9.706   9.399  65.744  1.00  0.00    -0.284 C  
HETATM    4  C   UNL     1      -8.274   8.881  65.832  1.00  0.00    -0.119 C  
HETATM    5  CA  UNL     1      -7.222   9.623  66.263  1.00  0.00    -0.094 C  
HETATM    6  CA  UNL     1      -8.030  12.758  67.403  1.00  0.00    -0.179 C  
HETATM    7  O   UNL     1      -5.594  12.369  66.716  1.00  0.00    -0.319 OA 
HETATM    8  C   UNL     1      -5.737   9.095  66.315  1.00  0.00    -0.053 C  
HETATM    9  N   UNL     1      -7.453  10.903  66.692  1.00  0.00    -0.133 N  
HETATM   10  C   UNL     1      -6.731  12.020  66.927  1.00  0.00    -0.040 C  
HETATM   11  O   UNL     1      -5.182   9.255  67.450  1.00  0.00    -0.036 OA 
HETATM   12  OXT UNL     1      -5.296   8.534  65.277  1.00  0.00    -0.035 OA 
ENDROOT
BRANCH   4  13
HETATM   13  S   UNL     1      -8.155   7.294  65.083  1.00  0.00    -0.111 SA 
BRANCH  13  14
HETATM   14  C   UNL     1      -8.893   6.213  66.237  1.00  0.00    -0.146 A  
HETATM   15  N   UNL     1      -9.188   6.501  67.487  1.00  0.00    -0.114 NA 
HETATM   16  C   UNL     1      -9.664   5.366  68.122  1.00  0.00    -0.137 A  
HETATM   17  S   UNL     1      -9.387   4.648  65.708  1.00  0.00    -0.168 SA 
HETATM   18  C   UNL     1      -9.878   4.276  67.301  1.00  0.00    -0.146 A  
BRANCH  16  19
HETATM   19  C   UNL     1      -9.915   5.348  69.553  1.00  0.00    -0.289 A  
HETATM   20  C   UNL     1     -10.241   6.509  70.254  1.00  0.00    -0.227 A  
HETATM   21  C   UNL     1     -10.445   6.446  71.626  1.00  0.00    -0.217 A  
HETATM   22  C   UNL     1     -10.508   5.235  73.748  1.00  0.00    -0.266 C  
HETATM   23  N   UNL     1     -10.335   5.275  72.289  1.00  0.00    -0.206 NA 
HETATM   24  C   UNL     1      -9.833   4.147  70.256  1.00  0.00    -0.239 A  
HETATM   25  C   UNL     1     -10.053   4.130  71.624  1.00  0.00    -0.128 A  
ENDBRANCH  16  19
ENDBRANCH  13  14
ENDBRANCH   4  13
BRANCH   6  26
HETATM   26  N   UNL     1      -8.499  13.850  66.489  1.00  0.00    -0.385 N  
HETATM   27  H   UNL     1      -8.258  13.811  65.499  1.00  0.00     0.000 HD 
HETATM   28  C   UNL     1      -9.249  14.906  66.963  1.00  0.00    -0.234 C  
HETATM   29  O   UNL     1      -9.453  15.102  68.155  1.00  0.00    -0.196 OA 
BRANCH  28  30
HETATM   30  C   UNL     1      -9.845  15.858  65.919  1.00  0.00    -0.351 C  
BRANCH  30  31
HETATM   31  C   UNL     1      -9.733  17.307  66.144  1.00  0.00    -0.224 A  
HETATM   32  S   UNL     1     -10.291  19.593  66.738  1.00  0.00    -0.511 SA 
HETATM   33  N   UNL     1      -8.515  17.998  65.935  1.00  0.00    -0.506 NA 
HETATM   34  N   UNL     1     -10.776  18.015  66.602  1.00  0.00    -0.227 NA 
HETATM   35  C   UNL     1      -8.686  19.271  66.211  1.00  0.00    -0.321 A  
BRANCH  35  36
HETATM   36  N   UNL     1      -7.747  20.245  66.131  1.00  0.00    -0.493 NA 
HETATM   37  H   UNL     1      -7.931  21.137  65.671  1.00  0.00     0.000 HD 
HETATM   38  P   UNL     1      -6.310  19.908  66.810  1.00  0.00    -0.188 P  
HETATM   39  O   UNL     1      -5.700  21.372  67.052  1.00  0.00    -0.270 OA 
HETATM   40  O   UNL     1      -6.570  19.466  68.325  1.00  0.00    -0.238 OA 
HETATM   41  O   UNL     1      -5.351  19.020  66.090  1.00  0.00    -0.150 OA 
ENDBRANCH  35  36
ENDBRANCH  30  31
BRANCH  30  42
HETATM   42  N   UNL     1     -10.460  15.489  64.828  1.00  0.00    -0.599 NA 
HETATM   43  H   UNL     1     -10.765  16.147  64.110  1.00  0.00     0.000 HD 
BRANCH  42  44
HETATM   44  O   UNL     1     -10.659  14.104  64.735  1.00  0.00    -0.407 OA 
BRANCH  44  45
HETATM   45  C   UNL     1     -12.030  13.868  64.403  1.00  0.00    -0.450 C  
HETATM   46  C   UNL     1     -12.114  12.681  63.462  1.00  0.00    -0.648 C  
ENDBRANCH  44  45
ENDBRANCH  42  44
ENDBRANCH  30  42
ENDBRANCH  28  30
ENDBRANCH   6  26
TORSDOF 10
ENDMDL
MODEL        9
REMARK 921   NORMALIZED FREE ENERGY PREDICTED BY IDOCK:   -6.42 KCAL/MOL
REMARK 922        TOTAL FREE ENERGY PREDICTED BY IDOCK:  -11.99 KCAL/MOL
REMARK 923 INTER-LIGAND FREE ENERGY PREDICTED BY IDOCK:  -10.19 KCAL/MOL
REMARK 924 INTRA-LIGAND FREE ENERGY PREDICTED BY IDOCK:   -1.80 KCAL/MOL
REMARK 927      BINDING AFFINITY PREDICTED BY RF-SCORE:    0.00 PKD
ROOT
HETATM    1  C   UNL     1     -10.303   7.246  66.839  1.00  0.00    -0.288 C  
HETATM    2  S   UNL     1     -10.743   8.520  68.038  1.00  0.00     0.021 SA 
HETATM    3  C   UNL     1     -10.646   9.909  66.893  1.00  0.00    -0.178 C  
HETATM    4  C   UNL     1      -9.640   9.841  65.750  1.00  0.00    -0.254 C  
HETATM    5  CA  UNL     1      -8.884   8.750  65.466  1.00  0.00    -0.188 C  
HETATM    6  CA  UNL     1      -9.556   5.983  67.383  1.00  0.00    -0.112 C  
HETATM    7  O   UNL     1      -7.282   6.051  66.207  1.00  0.00    -0.073 OA 
HETATM    8  C   UNL     1      -7.816   8.698  64.307  1.00  0.00    -0.140 C  
HETATM    9  N   UNL     1      -9.057   7.617  66.216  1.00  0.00    -0.169 N  
HETATM   10  C   UNL     1      -8.387   6.471  66.459  1.00  0.00    -0.116 C  
HETATM   11  O   UNL     1      -7.966   7.705  63.524  1.00  0.00    -0.133 OA 
HETATM   12  OXT UNL     1      -6.992   9.649  64.248  1.00  0.00    -0.105 OA 
ENDROOT
BRANCH   4  13
HETATM   13  S   UNL     1      -9.438  11.430  65.023  1.00  0.00    -0.139 SA 
BRANCH  13  14
HETATM   14  C   UNL     1     -10.611  12.432  65.838  1.00  0.00    -0.258 A  
HETATM   15  N   UNL     1     -10.469  12.976  67.029  1.00  0.00    -0.246 NA 
HETATM   16  C   UNL     1     -11.646  13.613  67.387  1.00  0.00    -0.356 A  
HETATM   17  S   UNL     1     -12.062  12.852  65.007  1.00  0.00    -0.461 SA 
HETATM   18  C   UNL     1     -12.605  13.683  66.396  1.00  0.00    -0.235 A  
BRANCH  16  19
HETATM   19  C   UNL     1     -11.833  14.164  68.719  1.00  0.00    -0.384 A  
HETATM   20  C   UNL     1     -11.732  15.532  68.967  1.00  0.00    -0.392 A  
HETATM   21  C   UNL     1     -11.891  16.007  70.261  1.00  0.00    -0.254 A  
HETATM   22  C   UNL     1     -12.265  15.677  72.654  1.00  0.00    -0.439 C  
HETATM   23  N   UNL     1     -12.146  15.161  71.283  1.00  0.00    -0.312 NA 
HETATM   24  C   UNL     1     -12.122  13.314  69.785  1.00  0.00    -0.355 A  
HETATM   25  C   UNL     1     -12.281  13.833  71.060  1.00  0.00    -0.319 A  
ENDBRANCH  16  19
ENDBRANCH  13  14
ENDBRANCH   4  13
BRANCH   6  26
HETATM   26  N   UNL     1      -9.213   5.911  68.841  1.00  0.00    -0.119 N  
HETATM   27  H   UNL     1      -8.889   6.751  69.320  1.00  0.00     0.000 HD 
HETATM   28  C   UNL     1      -9.327   4.730  69.545  1.00  0.00    -0.133 C  
HETATM   29  O   UNL     1      -9.565   3.652  69.013  1.00  0.00    -0.171 OA 
BRANCH  28  30
HETATM   30  C   UNL     1      -9.146   4.809  71.065  1.00  0.00    -0.132 C  
BRANCH  30  31
HETATM   31  C   UNL     1      -9.595   6.023  71.764  1.00  0.00    -0.151 A  
HETATM   32  S   UNL     1      -9.569   8.177  72.881  1.00  0.00    -0.254 SA 
HETATM   33  N   UNL     1     -10.965   6.261  72.030  1.00  0.00    -0.244 NA 
HETATM   34  N   UNL     1      -8.719   6.968  72.132  1.00  0.00    -0.126 NA 
HETATM   35  C   UNL     1     -11.091   7.409  72.657  1.00  0.00    -0.331 A  
BRANCH  35  36
HETATM   36  N   UNL     1     -12.250   7.975  73.074  1.00  0.00    -0.645 NA 
HETATM   37  H   UNL     1     -12.473   8.084  74.064  1.00  0.00     0.000 HD 
HETATM   38  P   UNL     1     -13.264   8.470  71.905  1.00  0.00    -0.379 P  
HETATM   39  O   UNL     1     -14.168   9.547  72.677  1.00  0.00    -0.344 OA 
HETATM   40  O   UNL     1     -12.454   9.443  70.926  1.00  0.00    -0.264 OA 
HETATM   41  O   UNL     1     -14.096   7.463  71.184  1.00  0.00    -0.345 OA 
ENDBRANCH  35  36
ENDBRANCH  30  31
BRANCH  30  42
HETATM   42  N   UNL     1      -8.614   3.878  71.810  1.00  0.00    -0.093 NA 
HETATM   43  H   UNL     1      -7.697   3.472  71.625  1.00  0.00     0.000 HD 
BRANCH  42  44
HETATM   44  O   UNL     1      -9.421   3.489  72.889  1.00  0.00    -0.107 OA 
BRANCH  44  45
HETATM   45  C   UNL     1     -10.278   2.430  72.452  1.00  0.00    -0.149 C  
HETATM   46  C   UNL     1     -11.306   2.149  73.532  1.00  0.00    -0.317 C  
ENDBRANCH  44  45
ENDBRANCH  42  44
ENDBRANCH  30  42
ENDBRANCH  28  30
ENDBRANCH   6  26
TORSDOF 10
ENDMDL
MODEL       10
REMARK 921   NORMALIZED FREE ENERGY PREDICTED BY IDOCK:   -6.39 KCAL/MOL
REMARK 922        TOTAL FREE ENERGY PREDICTED BY IDOCK:  -11.93 KCAL/MOL
REMARK 923 INTER-LIGAND FREE ENERGY PREDICTED BY IDOCK:   -9.68 KCAL/MOL
REMARK 924 INTRA-LIGAND FREE ENERGY PREDICTED BY IDOCK:   -2.25 KCAL/MOL
REMARK 927      BINDING AFFINITY PREDICTED BY RF-SCORE:    0.00 PKD
ROOT
HETATM    1  C   UNL     1      -9.594  13.453  66.654  1.00  0.00    -0.270 C  
HETATM    2  S   UNL     1      -8.600  12.870  68.041  1.00  0.00    -0.193 SA 
HETATM    3  C   UNL     1      -7.427  11.918  67.056  1.00  0.00    -0.126 C  
HETATM    4  C   UNL     1      -7.918  11.271  65.766  1.00  0.00     0.149 C  
HETATM    5  CA  UNL     1      -9.158  11.457  65.245  1.00  0.00    -0.074 C  
HETATM    6  CA  UNL     1     -11.112  13.723  66.927  1.00  0.00    -0.302 C  
HETATM    7  O   UNL     1     -12.323  12.048  65.417  1.00  0.00    -0.457 OA 
HETATM    8  C   UNL     1      -9.674  10.754  63.931  1.00  0.00    -0.313 C  
HETATM    9  N   UNL     1     -10.017  12.311  65.883  1.00  0.00    -0.251 N  
HETATM   10  C   UNL     1     -11.342  12.572  65.887  1.00  0.00    -0.340 C  
HETATM   11  O   UNL     1     -10.155  11.567  63.077  1.00  0.00    -0.346 OA 
HETATM   12  OXT UNL     1      -9.502   9.509  63.847  1.00  0.00    -0.070 OA 
ENDROOT
BRANCH   4  13
HETATM   13  S   UNL     1      -6.746  10.089  65.196  1.00  0.00    -0.131 SA 
BRANCH  13  14
HETATM   14  C   UNL     1      -6.451   9.070  66.581  1.00  0.00    -0.067 A  
HETATM   15  N   UNL     1      -7.075   7.945  66.861  1.00  0.00    -0.076 NA 
HETATM   16  C   UNL     1      -6.645   7.473  68.091  1.00  0.00    -0.050 A  
HETATM   17  S   UNL     1      -5.168   9.485  67.656  1.00  0.00    -0.036 SA 
HETATM   18  C   UNL     1      -5.584   8.159  68.648  1.00  0.00    -0.036 A  
BRANCH  16  19
HETATM   19  C   UNL     1      -7.282   6.333  68.728  1.00  0.00    -0.084 A  
HETATM   20  C   UNL     1      -7.562   6.320  70.094  1.00  0.00    -0.096 A  
HETATM   21  C   UNL     1      -8.146   5.196  70.662  1.00  0.00    -0.106 A  
HETATM   22  C   UNL     1      -9.026   2.919  70.535  1.00  0.00    -0.102 C  
HETATM   23  N   UNL     1      -8.450   4.118  69.909  1.00  0.00    -0.060 NA 
HETATM   24  C   UNL     1      -7.629   5.218  67.967  1.00  0.00    -0.080 A  
HETATM   25  C   UNL     1      -8.218   4.122  68.575  1.00  0.00    -0.083 A  
ENDBRANCH  16  19
ENDBRANCH  13  14
ENDBRANCH   4  13
BRANCH   6  26
HETATM   26  N   UNL     1     -11.664  13.451  68.294  1.00  0.00    -0.336 N  
HETATM   27  H   UNL     1     -12.039  12.527  68.507  1.00  0.00     0.000 HD 
HETATM   28  C   UNL     1     -11.674  14.428  69.268  1.00  0.00    -0.317 C  
HETATM   29  O   UNL     1     -11.381  15.597  69.049  1.00  0.00    -0.283 OA 
BRANCH  28  30
HETATM   30  C   UNL     1     -12.073  13.992  70.683  1.00  0.00    -0.354 C  
BRANCH  30  31
HETATM   31  C   UNL     1     -12.342  12.568  70.930  1.00  0.00    -0.255 A  
HETATM   32  S   UNL     1     -13.367  10.530  71.759  1.00  0.00    -0.281 SA 
HETATM   33  N   UNL     1     -11.572  11.550  70.317  1.00  0.00    -0.274 NA 
HETATM   34  N   UNL     1     -13.362  12.186  71.712  1.00  0.00    -0.349 NA 
HETATM   35  C   UNL     1     -12.021  10.377  70.700  1.00  0.00    -0.351 A  
BRANCH  35  36
HETATM   36  N   UNL     1     -11.538   9.168  70.321  1.00  0.00    -0.449 NA 
HETATM   37  H   UNL     1     -11.889   8.297  70.720  1.00  0.00     0.000 HD 
HETATM   38  P   UNL     1     -10.368   9.187  69.195  1.00  0.00    -0.205 P  
HETATM   39  O   UNL     1     -10.456   7.704  68.591  1.00  0.00    -0.201 OA 
HETATM   40  O   UNL     1     -10.901  10.025  67.941  1.00  0.00    -0.253 OA 
HETATM   41  O   UNL     1      -8.974   9.541  69.594  1.00  0.00    -0.159 OA 
ENDBRANCH  35  36
ENDBRANCH  30  31
BRANCH  30  42
HETATM   42  N   UNL     1     -12.202  14.790  71.709  1.00  0.00    -0.338 NA 
HETATM   43  H   UNL     1     -11.559  14.789  72.501  1.00  0.00     0.000 HD 
BRANCH  42  44
HETATM   44  O   UNL     1     -13.307  15.649  71.618  1.00  0.00    -0.485 OA 
BRANCH  44  45
HETATM   45  C   UNL     1     -13.808  15.878  72.938  1.00  0.00    -0.457 C  
HETATM   46  C   UNL     1     -12.691  15.645  73.938  1.00  0.00    -0.737 C  
ENDBRANCH  44  45
ENDBRANCH  42  44
ENDBRANCH  30  42
ENDBRANCH  28  30
ENDBRANCH   6  26
TORSDOF 10
ENDMDL
MODEL       11
REMARK 921   NORMALIZED FREE ENERGY PREDICTED BY IDOCK:   -6.39 KCAL/MOL
REMARK 922        TOTAL FREE ENERGY PREDICTED BY IDOCK:  -11.93 KCAL/MOL
REMARK 923 INTER-LIGAND FREE ENERGY PREDICTED BY IDOCK:  -10.51 KCAL/MOL
REMARK 924 INTRA-LIGAND FREE ENERGY PREDICTED BY IDOCK:   -1.42 KCAL/MOL
REMARK 927      BINDING AFFINITY PREDICTED BY RF-SCORE:    0.00 PKD
ROOT
HETATM    1  C   UNL     1     -10.558   8.877  71.092  1.00  0.00    -0.265 C  
HETATM    2  S   UNL     1     -11.450   7.540  70.275  1.00  0.00    -0.084 SA 
HETATM    3  C   UNL     1     -11.585   6.478  71.726  1.00  0.00    -0.312 C  
HETATM    4  C   UNL     1     -10.469   6.520  72.764  1.00  0.00    -0.215 C  
HETATM    5  CA  UNL     1      -9.427   7.390  72.727  1.00  0.00    -0.160 C  
HETATM    6  CA  UNL     1      -9.576   9.722  70.212  1.00  0.00    -0.208 C  
HETATM    7  O   UNL     1      -7.277   9.287  71.252  1.00  0.00    -0.254 OA 
HETATM    8  C   UNL     1      -8.254   7.403  73.781  1.00  0.00    -0.145 C  
HETATM    9  N   UNL     1      -9.387   8.324  71.725  1.00  0.00    -0.181 N  
HETATM   10  C   UNL     1      -8.475   9.149  71.169  1.00  0.00    -0.113 C  
HETATM   11  O   UNL     1      -8.049   8.550  74.296  1.00  0.00    -0.337 OA 
HETATM   12  OXT UNL     1      -7.705   6.298  74.035  1.00  0.00    -0.093 OA 
ENDROOT
BRANCH   4  13
HETATM   13  S   UNL     1     -10.603   5.147  73.856  1.00  0.00    -0.290 SA 
BRANCH  13  14
HETATM   14  C   UNL     1     -10.177   3.769  72.874  1.00  0.00    -0.162 A  
HETATM   15  N   UNL     1      -9.433   3.794  71.788  1.00  0.00    -0.135 NA 
HETATM   16  C   UNL     1      -9.401   2.529  71.223  1.00  0.00    -0.135 A  
HETATM   17  S   UNL     1     -10.674   2.200  73.388  1.00  0.00    -0.168 SA 
HETATM   18  C   UNL     1      -9.985   1.531  71.977  1.00  0.00    -0.140 A  
BRANCH  16  19
HETATM   19  C   UNL     1      -8.787   2.296  69.927  1.00  0.00    -0.138 A  
HETATM   20  C   UNL     1      -9.500   1.729  68.871  1.00  0.00    -0.188 A  
HETATM   21  C   UNL     1      -8.863   1.500  67.659  1.00  0.00    -0.113 A  
HETATM   22  C   UNL     1      -6.891   1.530  66.215  1.00  0.00    -0.041 C  
HETATM   23  N   UNL     1      -7.563   1.822  67.489  1.00  0.00    -0.058 NA 
HETATM   24  C   UNL     1      -7.454   2.644  69.718  1.00  0.00    -0.044 A  
HETATM   25  C   UNL     1      -6.861   2.405  68.490  1.00  0.00    -0.040 A  
ENDBRANCH  16  19
ENDBRANCH  13  14
ENDBRANCH   4  13
BRANCH   6  26
HETATM   26  N   UNL     1      -9.400   9.359  68.768  1.00  0.00    -0.145 N  
HETATM   27  H   UNL     1      -8.602   8.789  68.489  1.00  0.00     0.000 HD 
HETATM   28  C   UNL     1     -10.297   9.785  67.809  1.00  0.00    -0.225 C  
HETATM   29  O   UNL     1     -11.192  10.590  68.039  1.00  0.00    -0.289 OA 
BRANCH  28  30
HETATM   30  C   UNL     1     -10.140   9.197  66.402  1.00  0.00    -0.274 C  
BRANCH  30  31
HETATM   31  C   UNL     1     -10.028  10.121  65.264  1.00  0.00    -0.311 A  
HETATM   32  S   UNL     1      -9.406  11.056  63.113  1.00  0.00    -0.347 SA 
HETATM   33  N   UNL     1     -10.714  11.359  65.243  1.00  0.00    -0.283 NA 
HETATM   34  N   UNL     1      -9.303   9.796  64.183  1.00  0.00    -0.239 NA 
HETATM   35  C   UNL     1     -10.447  11.983  64.119  1.00  0.00    -0.353 A  
BRANCH  35  36
HETATM   36  N   UNL     1     -10.923  13.194  63.738  1.00  0.00    -0.561 NA 
HETATM   37  H   UNL     1     -10.590  13.666  62.897  1.00  0.00     0.000 HD 
HETATM   38  P   UNL     1     -12.056  13.850  64.700  1.00  0.00    -0.427 P  
HETATM   39  O   UNL     1     -12.772  14.894  63.715  1.00  0.00    -0.754 OA 
HETATM   40  O   UNL     1     -13.235  12.785  64.876  1.00  0.00    -0.808 OA 
HETATM   41  O   UNL     1     -11.643  14.494  65.982  1.00  0.00    -0.356 OA 
ENDBRANCH  35  36
ENDBRANCH  30  31
BRANCH  30  42
HETATM   42  N   UNL     1     -10.100   7.923  66.118  1.00  0.00    -0.432 NA 
HETATM   43  H   UNL     1      -9.577   7.543  65.329  1.00  0.00     0.000 HD 
BRANCH  42  44
HETATM   44  O   UNL     1     -10.843   7.126  67.001  1.00  0.00    -0.351 OA 
BRANCH  44  45
HETATM   45  C   UNL     1     -10.110   5.923  67.247  1.00  0.00    -0.174 C  
HETATM   46  C   UNL     1      -9.082   5.736  66.147  1.00  0.00    -0.161 C  
ENDBRANCH  44  45
ENDBRANCH  42  44
ENDBRANCH  30  42
ENDBRANCH  28  30
ENDBRANCH   6  26
TORSDOF 10
ENDMDL
MODEL       12
REMARK 921   NORMALIZED FREE ENERGY PREDICTED BY IDOCK:   -6.38 KCAL/MOL
REMARK 922        TOTAL FREE ENERGY PREDICTED BY IDOCK:  -11.92 KCAL/MOL
REMARK 923 INTER-LIGAND FREE ENERGY PREDICTED BY IDOCK:   -9.90 KCAL/MOL
REMARK 924 INTRA-LIGAND FREE ENERGY PREDICTED BY IDOCK:   -2.02 KCAL/MOL
REMARK 927      BINDING AFFINITY PREDICTED BY RF-SCORE:    0.00 PKD
ROOT
HETATM    1  C   UNL     1      -9.776   9.579  70.920  1.00  0.00    -0.172 C  
HETATM    2  S   UNL     1      -8.810   8.440  69.910  1.00  0.00    -0.139 SA 
HETATM    3  C   UNL     1      -8.454   9.607  68.583  1.00  0.00    -0.119 C  
HETATM    4  C   UNL     1      -9.486  10.683  68.264  1.00  0.00    -0.159 C  
HETATM    5  CA  UNL     1     -10.614  10.894  68.989  1.00  0.00    -0.216 C  
HETATM    6  CA  UNL     1     -10.906   8.961  71.811  1.00  0.00    -0.365 C  
HETATM    7  O   UNL     1     -13.060   9.992  70.887  1.00  0.00    -0.366 OA 
HETATM    8  C   UNL     1     -11.698  11.982  68.631  1.00  0.00    -0.326 C  
HETATM    9  N   UNL     1     -10.829  10.131  70.106  1.00  0.00    -0.294 N  
HETATM   10  C   UNL     1     -11.864   9.820  70.915  1.00  0.00    -0.336 C  
HETATM   11  O   UNL     1     -11.985  12.750  69.606  1.00  0.00    -0.314 OA 
HETATM   12  OXT UNL     1     -12.105  12.010  67.439  1.00  0.00    -0.566 OA 
ENDROOT
BRANCH   4  13
HETATM   13  S   UNL     1      -9.123  11.432  66.714  1.00  0.00    -0.181 SA 
BRANCH  13  14
HETATM   14  C   UNL     1      -8.480  13.000  67.130  1.00  0.00    -0.174 A  
HETATM   15  N   UNL     1      -9.159  14.127  67.174  1.00  0.00    -0.221 NA 
HETATM   16  C   UNL     1      -8.294  15.175  67.439  1.00  0.00    -0.186 A  
HETATM   17  S   UNL     1      -6.834  13.114  67.629  1.00  0.00    -0.151 SA 
HETATM   18  C   UNL     1      -7.000  14.808  67.755  1.00  0.00    -0.174 A  
BRANCH  16  19
HETATM   19  C   UNL     1      -8.741  16.558  67.385  1.00  0.00    -0.195 A  
HETATM   20  C   UNL     1      -9.688  16.984  66.454  1.00  0.00    -0.310 A  
HETATM   21  C   UNL     1     -10.062  18.321  66.423  1.00  0.00    -0.396 A  
HETATM   22  C   UNL     1      -9.898  20.631  67.206  1.00  0.00    -0.388 C  
HETATM   23  N   UNL     1      -9.525  19.211  67.284  1.00  0.00    -0.307 NA 
HETATM   24  C   UNL     1      -8.219  17.490  68.280  1.00  0.00    -0.263 A  
HETATM   25  C   UNL     1      -8.629  18.812  68.218  1.00  0.00    -0.327 A  
ENDBRANCH  16  19
ENDBRANCH  13  14
ENDBRANCH   4  13
BRANCH   6  26
HETATM   26  N   UNL     1     -11.151   7.484  71.752  1.00  0.00    -0.237 N  
HETATM   27  H   UNL     1     -11.710   7.099  70.990  1.00  0.00     0.000 HD 
HETATM   28  C   UNL     1     -10.636   6.634  72.710  1.00  0.00    -0.232 C  
HETATM   29  O   UNL     1     -10.084   7.030  73.730  1.00  0.00    -0.288 OA 
BRANCH  28  30
HETATM   30  C   UNL     1     -10.775   5.130  72.450  1.00  0.00    -0.216 C  
BRANCH  30  31
HETATM   31  C   UNL     1     -10.261   4.586  71.184  1.00  0.00    -0.092 A  
HETATM   32  S   UNL     1      -9.176   3.121  69.581  1.00  0.00    -0.152 SA 
HETATM   33  N   UNL     1     -10.489   5.239  69.949  1.00  0.00    -0.307 NA 
HETATM   34  N   UNL     1      -9.595   3.422  71.155  1.00  0.00    -0.158 NA 
HETATM   35  C   UNL     1      -9.931   4.546  68.983  1.00  0.00    -0.081 A  
BRANCH  35  36
HETATM   36  N   UNL     1      -9.939   4.854  67.662  1.00  0.00    -0.159 NA 
HETATM   37  H   UNL     1     -10.805   5.038  67.156  1.00  0.00     0.000 HD 
HETATM   38  P   UNL     1      -8.488   4.912  66.934  1.00  0.00    -0.103 P  
HETATM   39  O   UNL     1      -8.792   5.822  65.649  1.00  0.00    -0.153 OA 
HETATM   40  O   UNL     1      -7.556   5.912  67.764  1.00  0.00    -0.087 OA 
HETATM   41  O   UNL     1      -7.806   3.638  66.561  1.00  0.00    -0.087 OA 
ENDBRANCH  35  36
ENDBRANCH  30  31
BRANCH  30  42
HETATM   42  N   UNL     1     -11.324   4.272  73.266  1.00  0.00    -0.246 NA 
HETATM   43  H   UNL     1     -12.255   3.880  73.121  1.00  0.00     0.000 HD 
BRANCH  42  44
HETATM   44  O   UNL     1     -10.514   3.939  74.362  1.00  0.00    -0.198 OA 
BRANCH  44  45
HETATM   45  C   UNL     1     -10.429   2.514  74.442  1.00  0.00    -0.154 C  
HETATM   46  C   UNL     1     -11.596   1.905  73.687  1.00  0.00    -0.308 C  
ENDBRANCH  44  45
ENDBRANCH  42  44
ENDBRANCH  30  42
ENDBRANCH  28  30
ENDBRANCH   6  26
TORSDOF 10
ENDMDL
MODEL       13
REMARK 921   NORMALIZED FREE ENERGY PREDICTED BY IDOCK:   -6.33 KCAL/MOL
REMARK 922        TOTAL FREE ENERGY PREDICTED BY IDOCK:  -11.85 KCAL/MOL
REMARK 923 INTER-LIGAND FREE ENERGY PREDICTED BY IDOCK:   -9.92 KCAL/MOL
REMARK 924 INTRA-LIGAND FREE ENERGY PREDICTED BY IDOCK:   -1.93 KCAL/MOL
REMARK 927      BINDING AFFINITY PREDICTED BY RF-SCORE:    0.00 PKD
ROOT
HETATM    1  C   UNL     1     -11.107   6.905  71.991  1.00  0.00    -0.245 C  
HETATM    2  S   UNL     1     -11.440   6.682  70.233  1.00  0.00    -0.388 SA 
HETATM    3  C   UNL     1     -10.575   5.109  70.067  1.00  0.00    -0.149 C  
HETATM    4  C   UNL     1      -9.358   4.852  70.950  1.00  0.00    -0.152 C  
HETATM    5  CA  UNL     1      -8.946   5.685  71.939  1.00  0.00    -0.139 C  
HETATM    6  CA  UNL     1     -10.997   8.377  72.515  1.00  0.00    -0.318 C  
HETATM    7  O   UNL     1      -8.585   8.560  73.354  1.00  0.00    -0.350 OA 
HETATM    8  C   UNL     1      -7.664   5.434  72.822  1.00  0.00    -0.098 C  
HETATM    9  N   UNL     1      -9.684   6.809  72.201  1.00  0.00    -0.150 N  
HETATM   10  C   UNL     1      -9.519   7.979  72.853  1.00  0.00    -0.277 C  
HETATM   11  O   UNL     1      -7.893   5.493  74.074  1.00  0.00    -0.100 OA 
HETATM   12  OXT UNL     1      -6.599   5.152  72.212  1.00  0.00    -0.044 OA 
ENDROOT
BRANCH   4  13
HETATM   13  S   UNL     1      -8.454   3.467  70.349  1.00  0.00    -0.058 SA 
BRANCH  13  14
HETATM   14  C   UNL     1      -8.555   3.604  68.613  1.00  0.00    -0.091 A  
HETATM   15  N   UNL     1      -8.130   4.620  67.891  1.00  0.00    -0.092 NA 
HETATM   16  C   UNL     1      -8.474   4.418  66.564  1.00  0.00    -0.112 A  
HETATM   17  S   UNL     1      -9.173   2.271  67.711  1.00  0.00    -0.163 SA 
HETATM   18  C   UNL     1      -9.010   3.179  66.275  1.00  0.00    -0.150 A  
BRANCH  16  19
HETATM   19  C   UNL     1      -8.274   5.455  65.565  1.00  0.00    -0.127 A  
HETATM   20  C   UNL     1      -8.362   6.809  65.887  1.00  0.00    -0.137 A  
HETATM   21  C   UNL     1      -8.190   7.762  64.892  1.00  0.00    -0.107 A  
HETATM   22  C   UNL     1      -7.804   8.415  62.569  1.00  0.00    -0.140 C  
HETATM   23  N   UNL     1      -7.936   7.394  63.618  1.00  0.00    -0.110 NA 
HETATM   24  C   UNL     1      -7.986   5.101  64.248  1.00  0.00    -0.108 A  
HETATM   25  C   UNL     1      -7.814   6.086  63.289  1.00  0.00    -0.104 A  
ENDBRANCH  16  19
ENDBRANCH  13  14
ENDBRANCH   4  13
BRANCH   6  26
HETATM   26  N   UNL     1     -11.133   9.508  71.540  1.00  0.00    -0.370 N  
HETATM   27  H   UNL     1     -10.294   9.947  71.163  1.00  0.00     0.000 HD 
HETATM   28  C   UNL     1     -12.374   9.964  71.144  1.00  0.00    -0.370 C  
HETATM   29  O   UNL     1     -13.422   9.591  71.658  1.00  0.00    -0.377 OA 
BRANCH  28  30
HETATM   30  C   UNL     1     -12.405  10.983  69.999  1.00  0.00    -0.305 C  
BRANCH  30  31
HETATM   31  C   UNL     1     -12.510  12.411  70.333  1.00  0.00    -0.136 A  
HETATM   32  S   UNL     1     -12.905  14.463  71.568  1.00  0.00    -0.362 SA 
HETATM   33  N   UNL     1     -12.150  13.418  69.404  1.00  0.00    -0.299 NA 
HETATM   34  N   UNL     1     -12.909  12.806  71.550  1.00  0.00    -0.328 NA 
HETATM   35  C   UNL     1     -12.334  14.598  69.952  1.00  0.00    -0.294 A  
BRANCH  35  36
HETATM   36  N   UNL     1     -12.097  15.800  69.371  1.00  0.00    -0.485 NA 
HETATM   37  H   UNL     1     -12.772  16.564  69.416  1.00  0.00     0.000 HD 
HETATM   38  P   UNL     1     -10.676  15.953  68.601  1.00  0.00    -0.313 P  
HETATM   39  O   UNL     1     -10.480  17.545  68.566  1.00  0.00    -0.362 OA 
HETATM   40  O   UNL     1      -9.512  15.555  69.623  1.00  0.00    -0.273 OA 
HETATM   41  O   UNL     1     -10.508  15.345  67.247  1.00  0.00    -0.270 OA 
ENDBRANCH  35  36
ENDBRANCH  30  31
BRANCH  30  42
HETATM   42  N   UNL     1     -12.349  10.690  68.728  1.00  0.00    -0.784 NA 
HETATM   43  H   UNL     1     -13.052  10.995  68.054  1.00  0.00     0.000 HD 
BRANCH  42  44
HETATM   44  O   UNL     1     -11.233   9.917  68.376  1.00  0.00    -0.188 OA 
BRANCH  44  45
HETATM   45  C   UNL     1     -10.230  10.789  67.846  1.00  0.00    -0.176 C  
HETATM   46  C   UNL     1     -10.599  11.156  66.421  1.00  0.00    -0.315 C  
ENDBRANCH  44  45
ENDBRANCH  42  44
ENDBRANCH  30  42
ENDBRANCH  28  30
ENDBRANCH   6  26
TORSDOF 10
ENDMDL
MODEL       14
REMARK 921   NORMALIZED FREE ENERGY PREDICTED BY IDOCK:   -6.18 KCAL/MOL
REMARK 922        TOTAL FREE ENERGY PREDICTED BY IDOCK:  -11.59 KCAL/MOL
REMARK 923 INTER-LIGAND FREE ENERGY PREDICTED BY IDOCK:   -9.62 KCAL/MOL
REMARK 924 INTRA-LIGAND FREE ENERGY PREDICTED BY IDOCK:   -1.98 KCAL/MOL
REMARK 927      BINDING AFFINITY PREDICTED BY RF-SCORE:    0.00 PKD
ROOT
HETATM    1  C   UNL     1      -8.558   7.524  68.168  1.00  0.00    -0.123 C  
HETATM    2  S   UNL     1     -10.302   7.834  67.831  1.00  0.00    -0.207 SA 
HETATM    3  C   UNL     1     -10.051   8.680  66.258  1.00  0.00    -0.145 C  
HETATM    4  C   UNL     1      -8.779   9.498  66.067  1.00  0.00    -0.147 C  
HETATM    5  CA  UNL     1      -7.761   9.544  66.965  1.00  0.00    -0.091 C  
HETATM    6  CA  UNL     1      -8.122   7.462  69.670  1.00  0.00    -0.128 C  
HETATM    7  O   UNL     1      -6.492   9.420  69.927  1.00  0.00    -0.041 OA 
HETATM    8  C   UNL     1      -6.466  10.424  66.782  1.00  0.00    -0.076 C  
HETATM    9  N   UNL     1      -7.849   8.777  68.097  1.00  0.00    -0.101 N  
HETATM   10  C   UNL     1      -7.255   8.717  69.308  1.00  0.00    -0.063 C  
HETATM   11  O   UNL     1      -5.384   9.766  66.917  1.00  0.00    -0.041 OA 
HETATM   12  OXT UNL     1      -6.638  11.632  66.470  1.00  0.00    -0.087 OA 
ENDROOT
BRANCH   4  13
HETATM   13  S   UNL     1      -8.931  10.537  64.655  1.00  0.00    -0.214 SA 
BRANCH  13  14
HETATM   14  C   UNL     1      -9.926  11.863  65.198  1.00  0.00    -0.247 A  
HETATM   15  N   UNL     1      -9.493  13.032  65.621  1.00  0.00     0.004 NA 
HETATM   16  C   UNL     1     -10.566  13.788  66.066  1.00  0.00    -0.290 A  
HETATM   17  S   UNL     1     -11.641  11.708  65.098  1.00  0.00     0.054 SA 
HETATM   18  C   UNL     1     -11.812  13.245  65.821  1.00  0.00    -0.387 A  
BRANCH  16  19
HETATM   19  C   UNL     1     -10.368  15.061  66.738  1.00  0.00    -0.270 A  
HETATM   20  C   UNL     1     -11.255  15.521  67.711  1.00  0.00    -0.302 A  
HETATM   21  C   UNL     1     -11.038  16.756  68.306  1.00  0.00    -0.259 A  
HETATM   22  C   UNL     1      -9.790  18.842  68.563  1.00  0.00    -0.399 C  
HETATM   23  N   UNL     1      -9.978  17.516  67.957  1.00  0.00    -0.294 NA 
HETATM   24  C   UNL     1      -9.267  15.852  66.414  1.00  0.00    -0.344 A  
HETATM   25  C   UNL     1      -9.086  17.074  67.039  1.00  0.00    -0.221 A  
ENDBRANCH  16  19
ENDBRANCH  13  14
ENDBRANCH   4  13
BRANCH   6  26
HETATM   26  N   UNL     1      -9.149   7.697  70.736  1.00  0.00    -0.152 N  
HETATM   27  H   UNL     1      -9.602   8.609  70.801  1.00  0.00     0.000 HD 
HETATM   28  C   UNL     1      -9.492   6.704  71.630  1.00  0.00    -0.159 C  
HETATM   29  O   UNL     1      -8.893   5.639  71.712  1.00  0.00    -0.135 OA 
BRANCH  28  30
HETATM   30  C   UNL     1     -10.690   6.980  72.547  1.00  0.00    -0.242 C  
BRANCH  30  31
HETATM   31  C   UNL     1     -11.686   7.973  72.121  1.00  0.00    -0.344 A  
HETATM   32  S   UNL     1     -13.810   9.016  71.580  1.00  0.00    -0.317 SA 
HETATM   33  N   UNL     1     -11.314   9.291  71.764  1.00  0.00    -0.385 NA 
HETATM   34  N   UNL     1     -12.993   7.673  72.102  1.00  0.00    -0.170 NA 
HETATM   35  C   UNL     1     -12.388   9.970  71.429  1.00  0.00    -0.415 A  
BRANCH  35  36
HETATM   36  N   UNL     1     -12.430  11.265  71.032  1.00  0.00    -0.402 NA 
HETATM   37  H   UNL     1     -12.890  11.987  71.588  1.00  0.00     0.000 HD 
HETATM   38  P   UNL     1     -11.707  11.602  69.617  1.00  0.00    -0.344 P  
HETATM   39  O   UNL     1     -11.436  13.178  69.743  1.00  0.00    -0.236 OA 
HETATM   40  O   UNL     1     -10.204  11.058  69.687  1.00  0.00    -0.083 OA 
HETATM   41  O   UNL     1     -12.401  11.260  68.341  1.00  0.00    -0.545 OA 
ENDBRANCH  35  36
ENDBRANCH  30  31
BRANCH  30  42
HETATM   42  N   UNL     1     -10.905   6.403  73.699  1.00  0.00    -0.454 NA 
HETATM   43  H   UNL     1     -10.752   6.869  74.593  1.00  0.00     0.000 HD 
BRANCH  42  44
HETATM   44  O   UNL     1     -11.369   5.084  73.590  1.00  0.00    -0.286 OA 
BRANCH  44  45
HETATM   45  C   UNL     1     -10.430   4.222  74.238  1.00  0.00    -0.253 C  
HETATM   46  C   UNL     1     -10.711   2.788  73.829  1.00  0.00    -0.275 C  
ENDBRANCH  44  45
ENDBRANCH  42  44
ENDBRANCH  30  42
ENDBRANCH  28  30
ENDBRANCH   6  26
TORSDOF 10
ENDMDL
MODEL       15
REMARK 921   NORMALIZED FREE ENERGY PREDICTED BY IDOCK:   -6.15 KCAL/MOL
REMARK 922        TOTAL FREE ENERGY PREDICTED BY IDOCK:  -11.55 KCAL/MOL
REMARK 923 INTER-LIGAND FREE ENERGY PREDICTED BY IDOCK:   -9.60 KCAL/MOL
REMARK 924 INTRA-LIGAND FREE ENERGY PREDICTED BY IDOCK:   -1.94 KCAL/MOL
REMARK 927      BINDING AFFINITY PREDICTED BY RF-SCORE:    0.00 PKD
ROOT
HETATM    1  C   UNL     1     -11.926  14.087  68.339  1.00  0.00    -0.343 C  
HETATM    2  S   UNL     1     -10.590  12.930  67.982  1.00  0.00    -0.233 SA 
HETATM    3  C   UNL     1     -11.276  11.545  68.910  1.00  0.00    -0.247 C  
HETATM    4  C   UNL     1     -12.109  11.843  70.152  1.00  0.00    -0.302 C  
HETATM    5  CA  UNL     1     -12.465  13.092  70.548  1.00  0.00    -0.248 C  
HETATM    6  CA  UNL     1     -11.556  15.608  68.396  1.00  0.00    -0.350 C  
HETATM    7  O   UNL     1     -12.065  16.281  70.813  1.00  0.00    -0.213 OA 
HETATM    8  C   UNL     1     -13.292  13.398  71.855  1.00  0.00    -0.451 C  
HETATM    9  N   UNL     1     -12.100  14.158  69.767  1.00  0.00    -0.336 N  
HETATM   10  C   UNL     1     -11.999  15.498  69.896  1.00  0.00    -0.362 C  
HETATM   11  O   UNL     1     -14.316  14.126  71.647  1.00  0.00    -0.398 OA 
HETATM   12  OXT UNL     1     -12.896  12.854  72.920  1.00  0.00     0.054 OA 
ENDROOT
BRANCH   4  13
HETATM   13  S   UNL     1     -12.328  10.379  71.103  1.00  0.00    -0.424 SA 
BRANCH  13  14
HETATM   14  C   UNL     1     -11.090   9.296  70.520  1.00  0.00    -0.265 A  
HETATM   15  N   UNL     1     -11.147   8.577  69.418  1.00  0.00     0.007 NA 
HETATM   16  C   UNL     1     -10.029   7.763  69.341  1.00  0.00    -0.188 A  
HETATM   17  S   UNL     1      -9.601   9.199  71.383  1.00  0.00    -0.172 SA 
HETATM   18  C   UNL     1      -9.063   7.995  70.300  1.00  0.00    -0.148 A  
BRANCH  16  19
HETATM   19  C   UNL     1      -9.905   6.744  68.312  1.00  0.00    -0.144 A  
HETATM   20  C   UNL     1     -10.884   6.567  67.335  1.00  0.00    -0.449 A  
HETATM   21  C   UNL     1     -10.734   5.562  66.389  1.00  0.00    -0.194 A  
HETATM   22  C   UNL     1      -9.531   3.667  65.421  1.00  0.00    -0.160 C  
HETATM   23  N   UNL     1      -9.651   4.757  66.402  1.00  0.00    -0.159 NA 
HETATM   24  C   UNL     1      -8.784   5.917  68.288  1.00  0.00    -0.112 A  
HETATM   25  C   UNL     1      -8.672   4.932  67.320  1.00  0.00    -0.103 A  
ENDBRANCH  16  19
ENDBRANCH  13  14
ENDBRANCH   4  13
BRANCH   6  26
HETATM   26  N   UNL     1     -10.128  16.017  68.194  1.00  0.00    -0.231 N  
HETATM   27  H   UNL     1      -9.482  15.985  68.983  1.00  0.00     0.000 HD 
HETATM   28  C   UNL     1      -9.671  16.435  66.961  1.00  0.00    -0.248 C  
HETATM   29  O   UNL     1     -10.411  16.640  66.006  1.00  0.00    -0.327 OA 
BRANCH  28  30
HETATM   30  C   UNL     1      -8.159  16.638  66.813  1.00  0.00    -0.246 C  
BRANCH  30  31
HETATM   31  C   UNL     1      -7.258  15.836  67.654  1.00  0.00    -0.166 A  
HETATM   32  S   UNL     1      -5.894  15.113  69.527  1.00  0.00    -0.112 SA 
HETATM   33  N   UNL     1      -6.774  14.575  67.230  1.00  0.00    -0.237 NA 
HETATM   34  N   UNL     1      -6.900  16.257  68.876  1.00  0.00    -0.153 NA 
HETATM   35  C   UNL     1      -5.997  14.073  68.162  1.00  0.00    -0.126 A  
BRANCH  35  36
HETATM   36  N   UNL     1      -5.354  12.880  68.118  1.00  0.00    -0.077 NA 
HETATM   37  H   UNL     1      -4.336  12.815  68.116  1.00  0.00     0.000 HD 
HETATM   38  P   UNL     1      -6.300  11.560  68.068  1.00  0.00    -0.056 P  
HETATM   39  O   UNL     1      -5.310  10.414  68.596  1.00  0.00    -0.039 OA 
HETATM   40  O   UNL     1      -7.318  11.633  69.299  1.00  0.00    -0.077 OA 
HETATM   41  O   UNL     1      -6.954  11.177  66.781  1.00  0.00    -0.120 OA 
ENDBRANCH  35  36
ENDBRANCH  30  31
BRANCH  30  42
HETATM   42  N   UNL     1      -7.588  17.480  65.995  1.00  0.00    -0.482 NA 
HETATM   43  H   UNL     1      -7.377  17.256  65.022  1.00  0.00     0.000 HD 
BRANCH  42  44
HETATM   44  O   UNL     1      -7.294  18.721  66.579  1.00  0.00    -0.218 OA 
BRANCH  44  45
HETATM   45  C   UNL     1      -8.396  19.601  66.346  1.00  0.00    -0.353 C  
HETATM   46  C   UNL     1      -8.881  20.148  67.676  1.00  0.00    -0.396 C  
ENDBRANCH  44  45
ENDBRANCH  42  44
ENDBRANCH  30  42
ENDBRANCH  28  30
ENDBRANCH   6  26
TORSDOF 10
ENDMDL
MODEL       16
REMARK 921   NORMALIZED FREE ENERGY PREDICTED BY IDOCK:   -6.12 KCAL/MOL
REMARK 922        TOTAL FREE ENERGY PREDICTED BY IDOCK:  -11.50 KCAL/MOL
REMARK 923 INTER-LIGAND FREE ENERGY PREDICTED BY IDOCK:  -10.04 KCAL/MOL
REMARK 924 INTRA-LIGAND FREE ENERGY PREDICTED BY IDOCK:   -1.46 KCAL/MOL
REMARK 927      BINDING AFFINITY PREDICTED BY RF-SCORE:    0.00 PKD
ROOT
HETATM    1  C   UNL     1     -10.784   9.561  66.881  1.00  0.00    -0.114 C  
HETATM    2  S   UNL     1     -11.150  10.578  68.324  1.00  0.00    -0.280 SA 
HETATM    3  C   UNL     1     -12.019  11.881  67.431  1.00  0.00    -0.017 C  
HETATM    4  C   UNL     1     -11.589  12.194  66.002  1.00  0.00    -0.358 C  
HETATM    5  CA  UNL     1     -10.664  11.480  65.311  1.00  0.00    -0.279 C  
HETATM    6  CA  UNL     1      -9.480   8.695  66.931  1.00  0.00    -0.180 C  
HETATM    7  O   UNL     1      -8.040   9.627  65.030  1.00  0.00    -0.116 OA 
HETATM    8  C   UNL     1     -10.194  11.833  63.848  1.00  0.00    -0.373 C  
HETATM    9  N   UNL     1     -10.107  10.378  65.906  1.00  0.00    -0.260 N  
HETATM   10  C   UNL     1      -9.029   9.587  65.723  1.00  0.00    -0.179 C  
HETATM   11  O   UNL     1     -10.267  10.850  63.042  1.00  0.00    -0.292 OA 
HETATM   12  OXT UNL     1      -9.866  13.029  63.629  1.00  0.00    -0.084 OA 
ENDROOT
BRANCH   4  13
HETATM   13  S   UNL     1     -12.279  13.728  65.483  1.00  0.00    -0.472 SA 
BRANCH  13  14
HETATM   14  C   UNL     1     -11.353  14.932  66.341  1.00  0.00    -0.308 A  
HETATM   15  N   UNL     1     -10.562  15.832  65.796  1.00  0.00    -0.341 NA 
HETATM   16  C   UNL     1      -9.917  16.544  66.795  1.00  0.00    -0.276 A  
HETATM   17  S   UNL     1     -11.534  15.053  68.052  1.00  0.00    -0.343 SA 
HETATM   18  C   UNL     1     -10.352  16.284  68.080  1.00  0.00    -0.279 A  
BRANCH  16  19
HETATM   19  C   UNL     1      -8.861  17.494  66.486  1.00  0.00    -0.291 A  
HETATM   20  C   UNL     1      -9.102  18.866  66.440  1.00  0.00    -0.317 A  
HETATM   21  C   UNL     1      -8.067  19.732  66.113  1.00  0.00    -0.342 A  
HETATM   22  C   UNL     1      -5.758  20.189  65.453  1.00  0.00    -0.181 C  
HETATM   23  N   UNL     1      -6.830  19.262  65.843  1.00  0.00    -0.250 NA 
HETATM   24  C   UNL     1      -7.570  17.035  66.229  1.00  0.00    -0.340 A  
HETATM   25  C   UNL     1      -6.566  17.936  65.915  1.00  0.00    -0.269 A  
ENDBRANCH  16  19
ENDBRANCH  13  14
ENDBRANCH   4  13
BRANCH   6  26
HETATM   26  N   UNL     1      -8.596   8.781  68.138  1.00  0.00    -0.133 N  
HETATM   27  H   UNL     1      -8.181   9.678  68.391  1.00  0.00     0.000 HD 
HETATM   28  C   UNL     1      -8.333   7.670  68.913  1.00  0.00    -0.129 C  
HETATM   29  O   UNL     1      -8.670   6.536  68.595  1.00  0.00    -0.123 OA 
BRANCH  28  30
HETATM   30  C   UNL     1      -7.585   7.904  70.230  1.00  0.00    -0.086 C  
BRANCH  30  31
HETATM   31  C   UNL     1      -8.339   7.828  71.489  1.00  0.00    -0.109 A  
HETATM   32  S   UNL     1      -8.857   7.692  73.856  1.00  0.00    -0.258 SA 
HETATM   33  N   UNL     1      -9.754   7.875  71.510  1.00  0.00    -0.159 NA 
HETATM   34  N   UNL     1      -7.705   7.758  72.669  1.00  0.00    -0.097 NA 
HETATM   35  C   UNL     1     -10.172   7.794  72.753  1.00  0.00    -0.299 A  
BRANCH  35  36
HETATM   36  N   UNL     1     -11.462   7.808  73.171  1.00  0.00    -0.605 NA 
HETATM   37  H   UNL     1     -11.726   7.530  74.116  1.00  0.00     0.000 HD 
HETATM   38  P   UNL     1     -12.560   8.295  72.078  1.00  0.00    -0.335 P  
HETATM   39  O   UNL     1     -13.789   8.738  73.009  1.00  0.00    -0.225 OA 
HETATM   40  O   UNL     1     -12.108   9.725  71.522  1.00  0.00    -0.363 OA 
HETATM   41  O   UNL     1     -12.992   7.352  71.005  1.00  0.00    -0.269 OA 
ENDBRANCH  35  36
ENDBRANCH  30  31
BRANCH  30  42
HETATM   42  N   UNL     1      -6.312   8.175  70.335  1.00  0.00    -0.036 NA 
HETATM   43  H   UNL     1      -5.650   7.569  70.820  1.00  0.00     0.000 HD 
BRANCH  42  44
HETATM   44  O   UNL     1      -5.939   9.378  69.718  1.00  0.00    -0.035 OA 
BRANCH  44  45
HETATM   45  C   UNL     1      -5.777  10.374  70.732  1.00  0.00    -0.099 C  
HETATM   46  C   UNL     1      -5.693  11.739  70.075  1.00  0.00    -0.135 C  
ENDBRANCH  44  45
ENDBRANCH  42  44
ENDBRANCH  30  42
ENDBRANCH  28  30
ENDBRANCH   6  26
TORSDOF 10
ENDMDL
MODEL       17
REMARK 921   NORMALIZED FREE ENERGY PREDICTED BY IDOCK:   -6.09 KCAL/MOL
REMARK 922        TOTAL FREE ENERGY PREDICTED BY IDOCK:  -11.45 KCAL/MOL
REMARK 923 INTER-LIGAND FREE ENERGY PREDICTED BY IDOCK:   -8.91 KCAL/MOL
REMARK 924 INTRA-LIGAND FREE ENERGY PREDICTED BY IDOCK:   -2.54 KCAL/MOL
REMARK 927      BINDING AFFINITY PREDICTED BY RF-SCORE:    0.00 PKD
ROOT
HETATM    1  C   UNL     1      -8.017  10.613  65.514  1.00  0.00    -0.116 C  
HETATM    2  S   UNL     1      -9.819  10.576  65.586  1.00  0.00    -0.270 SA 
HETATM    3  C   UNL     1     -10.043  12.354  65.783  1.00  0.00    -0.253 C  
HETATM    4  C   UNL     1      -8.974  13.144  66.530  1.00  0.00    -0.059 C  
HETATM    5  CA  UNL     1      -7.801  12.616  66.964  1.00  0.00    -0.038 C  
HETATM    6  CA  UNL     1      -7.256   9.353  66.048  1.00  0.00    -0.092 C  
HETATM    7  O   UNL     1      -5.905  10.237  68.034  1.00  0.00    -0.041 OA 
HETATM    8  C   UNL     1      -6.716  13.427  67.771  1.00  0.00    -0.160 C  
HETATM    9  N   UNL     1      -7.527  11.304  66.680  1.00  0.00    -0.146 N  
HETATM   10  C   UNL     1      -6.678  10.347  67.113  1.00  0.00    -0.078 C  
HETATM   11  O   UNL     1      -5.549  13.350  67.268  1.00  0.00    -0.354 OA 
HETATM   12  OXT UNL     1      -7.123  14.092  68.761  1.00  0.00    -0.096 OA 
ENDROOT
BRANCH   4  13
HETATM   13  S   UNL     1      -9.580  14.743  66.947  1.00  0.00    -0.252 SA 
BRANCH  13  14
HETATM   14  C   UNL     1     -10.641  14.464  68.304  1.00  0.00    -0.243 A  
HETATM   15  N   UNL     1     -10.844  13.309  68.902  1.00  0.00    -0.235 NA 
HETATM   16  C   UNL     1     -11.828  13.456  69.867  1.00  0.00    -0.315 A  
HETATM   17  S   UNL     1     -11.441  15.812  69.021  1.00  0.00    -0.403 SA 
HETATM   18  C   UNL     1     -12.237  14.755  70.098  1.00  0.00    -0.337 A  
BRANCH  16  19
HETATM   19  C   UNL     1     -12.372  12.309  70.573  1.00  0.00    -0.349 A  
HETATM   20  C   UNL     1     -12.068  11.003  70.192  1.00  0.00    -0.438 A  
HETATM   21  C   UNL     1     -12.635   9.939  70.881  1.00  0.00    -0.302 A  
HETATM   22  C   UNL     1     -14.101   9.016  72.606  1.00  0.00    -0.258 C  
HETATM   23  N   UNL     1     -13.474  10.154  71.917  1.00  0.00    -0.365 NA 
HETATM   24  C   UNL     1     -13.220  12.505  71.662  1.00  0.00    -0.381 A  
HETATM   25  C   UNL     1     -13.756  11.413  72.326  1.00  0.00     0.287 A  
ENDBRANCH  16  19
ENDBRANCH  13  14
ENDBRANCH   4  13
BRANCH   6  26
HETATM   26  N   UNL     1      -8.046   8.214  66.619  1.00  0.00    -0.101 N  
HETATM   27  H   UNL     1      -8.183   8.156  67.628  1.00  0.00     0.000 HD 
HETATM   28  C   UNL     1      -8.591   7.242  65.804  1.00  0.00    -0.131 C  
HETATM   29  O   UNL     1      -8.350   7.159  64.606  1.00  0.00    -0.071 OA 
BRANCH  28  30
HETATM   30  C   UNL     1      -9.544   6.239  66.464  1.00  0.00    -0.146 C  
BRANCH  30  31
HETATM   31  C   UNL     1      -9.834   6.384  67.898  1.00  0.00    -0.123 A  
HETATM   32  S   UNL     1     -11.036   6.480  70.004  1.00  0.00    -0.395 SA 
HETATM   33  N   UNL     1      -8.805   6.607  68.844  1.00  0.00    -0.131 NA 
HETATM   34  N   UNL     1     -11.086   6.264  68.363  1.00  0.00    -0.329 NA 
HETATM   35  C   UNL     1      -9.331   6.695  70.045  1.00  0.00    -0.158 A  
BRANCH  35  36
HETATM   36  N   UNL     1      -8.660   6.903  71.204  1.00  0.00    -0.131 NA 
HETATM   37  H   UNL     1      -7.910   6.285  71.513  1.00  0.00     0.000 HD 
HETATM   38  P   UNL     1      -9.123   8.195  72.074  1.00  0.00    -0.224 P  
HETATM   39  O   UNL     1      -7.832   8.468  72.986  1.00  0.00    -0.336 OA 
HETATM   40  O   UNL     1      -9.064   9.480  71.124  1.00  0.00    -0.239 OA 
HETATM   41  O   UNL     1     -10.370   8.118  72.891  1.00  0.00    -0.318 OA 
ENDBRANCH  35  36
ENDBRANCH  30  31
BRANCH  30  42
HETATM   42  N   UNL     1     -10.130   5.243  65.855  1.00  0.00    -0.377 NA 
HETATM   43  H   UNL     1     -10.698   5.359  65.015  1.00  0.00     0.000 HD 
BRANCH  42  44
HETATM   44  O   UNL     1      -9.903   4.000  66.463  1.00  0.00    -0.212 OA 
BRANCH  44  45
HETATM   45  C   UNL     1      -8.726   3.425  65.888  1.00  0.00    -0.124 C  
HETATM   46  C   UNL     1      -7.987   2.640  66.956  1.00  0.00    -0.075 C  
ENDBRANCH  44  45
ENDBRANCH  42  44
ENDBRANCH  30  42
ENDBRANCH  28  30
ENDBRANCH   6  26
TORSDOF 10
ENDMDL
MODEL       18
REMARK 921   NORMALIZED FREE ENERGY PREDICTED BY IDOCK:   -6.00 KCAL/MOL
REMARK 922        TOTAL FREE ENERGY PREDICTED BY IDOCK:  -11.32 KCAL/MOL
REMARK 923 INTER-LIGAND FREE ENERGY PREDICTED BY IDOCK:   -9.21 KCAL/MOL
REMARK 924 INTRA-LIGAND FREE ENERGY PREDICTED BY IDOCK:   -2.12 KCAL/MOL
REMARK 927      BINDING AFFINITY PREDICTED BY RF-SCORE:    0.00 PKD
ROOT
HETATM    1  C   UNL     1     -10.689   9.670  66.659  1.00  0.00    -0.032 C  
HETATM    2  S   UNL     1     -10.845  10.392  68.304  1.00  0.00    -0.271 SA 
HETATM    3  C   UNL     1     -11.839  11.810  67.803  1.00  0.00    -0.196 C  
HETATM    4  C   UNL     1     -11.623  12.395  66.412  1.00  0.00    -0.384 C  
HETATM    5  CA  UNL     1     -10.806  11.849  65.475  1.00  0.00    -0.295 C  
HETATM    6  CA  UNL     1      -9.389   8.850  66.360  1.00  0.00    -0.204 C  
HETATM    7  O   UNL     1      -8.244  10.161  64.483  1.00  0.00    -0.153 OA 
HETATM    8  C   UNL     1     -10.555  12.479  64.052  1.00  0.00    -0.421 C  
HETATM    9  N   UNL     1     -10.164  10.674  65.768  1.00  0.00    -0.260 N  
HETATM   10  C   UNL     1      -9.121   9.963  65.289  1.00  0.00    -0.211 C  
HETATM   11  O   UNL     1     -10.741  11.660  63.095  1.00  0.00    -0.328 OA 
HETATM   12  OXT UNL     1     -10.266  13.705  64.015  1.00  0.00    -0.193 OA 
ENDROOT
BRANCH   4  13
HETATM   13  S   UNL     1     -12.387  13.975  66.292  1.00  0.00    -0.385 SA 
BRANCH  13  14
HETATM   14  C   UNL     1     -11.382  15.017  67.266  1.00  0.00    -0.332 A  
HETATM   15  N   UNL     1     -10.786  16.118  66.860  1.00  0.00    -0.290 NA 
HETATM   16  C   UNL     1      -9.993  16.617  67.881  1.00  0.00    -0.254 A  
HETATM   17  S   UNL     1     -11.203  14.663  68.945  1.00  0.00    -0.283 SA 
HETATM   18  C   UNL     1     -10.127  15.979  69.098  1.00  0.00    -0.242 A  
BRANCH  16  19
HETATM   19  C   UNL     1      -9.092  17.736  67.661  1.00  0.00    -0.246 A  
HETATM   20  C   UNL     1      -8.198  18.161  68.643  1.00  0.00    -0.295 A  
HETATM   21  C   UNL     1      -7.377  19.252  68.396  1.00  0.00    -0.305 A  
HETATM   22  C   UNL     1      -6.587  21.088  66.989  1.00  0.00    -0.343 C  
HETATM   23  N   UNL     1      -7.430  19.905  67.216  1.00  0.00    -0.252 NA 
HETATM   24  C   UNL     1      -9.110  18.410  66.441  1.00  0.00    -0.271 A  
HETATM   25  C   UNL     1      -8.267  19.490  66.235  1.00  0.00    -0.343 A  
ENDBRANCH  16  19
ENDBRANCH  13  14
ENDBRANCH   4  13
BRANCH   6  26
HETATM   26  N   UNL     1      -8.338   8.740  67.424  1.00  0.00    -0.109 N  
HETATM   27  H   UNL     1      -7.502   9.320  67.363  1.00  0.00     0.000 HD 
HETATM   28  C   UNL     1      -8.482   7.868  68.484  1.00  0.00    -0.128 C  
HETATM   29  O   UNL     1      -9.380   7.036  68.551  1.00  0.00    -0.137 OA 
BRANCH  28  30
HETATM   30  C   UNL     1      -7.454   7.975  69.615  1.00  0.00    -0.091 C  
BRANCH  30  31
HETATM   31  C   UNL     1      -6.796   9.270  69.846  1.00  0.00    -0.055 A  
HETATM   32  S   UNL     1      -5.161  10.932  70.519  1.00  0.00    -0.093 SA 
HETATM   33  N   UNL     1      -7.385  10.486  69.424  1.00  0.00    -0.119 NA 
HETATM   34  N   UNL     1      -5.589   9.335  70.427  1.00  0.00    -0.033 NA 
HETATM   35  C   UNL     1      -6.594  11.485  69.746  1.00  0.00    -0.091 A  
BRANCH  35  36
HETATM   36  N   UNL     1      -6.819  12.800  69.504  1.00  0.00    -0.328 NA 
HETATM   37  H   UNL     1      -6.929  13.477  70.258  1.00  0.00     0.000 HD 
HETATM   38  P   UNL     1      -6.901  13.233  67.940  1.00  0.00    -0.172 P  
HETATM   39  O   UNL     1      -6.588  14.804  68.008  1.00  0.00    -0.117 OA 
HETATM   40  O   UNL     1      -5.572  12.720  67.213  1.00  0.00    -0.299 OA 
HETATM   41  O   UNL     1      -8.146  12.949  67.167  1.00  0.00    -0.173 OA 
ENDBRANCH  35  36
ENDBRANCH  30  31
BRANCH  30  42
HETATM   42  N   UNL     1      -7.099   6.998  70.406  1.00  0.00    -0.065 NA 
HETATM   43  H   UNL     1      -6.262   6.434  70.256  1.00  0.00     0.000 HD 
BRANCH  42  44
HETATM   44  O   UNL     1      -7.976   6.798  71.482  1.00  0.00    -0.101 OA 
BRANCH  44  45
HETATM   45  C   UNL     1      -8.179   5.392  71.642  1.00  0.00    -0.118 C  
HETATM   46  C   UNL     1      -9.628   5.141  72.016  1.00  0.00    -0.191 C  
ENDBRANCH  44  45
ENDBRANCH  42  44
ENDBRANCH  30  42
ENDBRANCH  28  30
ENDBRANCH   6  26
TORSDOF 10
ENDMDL
MODEL       19
REMARK 921   NORMALIZED FREE ENERGY PREDICTED BY IDOCK:   -5.99 KCAL/MOL
REMARK 922        TOTAL FREE ENERGY PREDICTED BY IDOCK:  -11.31 KCAL/MOL
REMARK 923 INTER-LIGAND FREE ENERGY PREDICTED BY IDOCK:  -10.09 KCAL/MOL
REMARK 924 INTRA-LIGAND FREE ENERGY PREDICTED BY IDOCK:   -1.22 KCAL/MOL
REMARK 927      BINDING AFFINITY PREDICTED BY RF-SCORE:    0.00 PKD
ROOT
HETATM    1  C   UNL     1     -11.744  13.556  68.600  1.00  0.00    -0.354 C  
HETATM    2  S   UNL     1     -10.742  12.073  68.825  1.00  0.00    -0.196 SA 
HETATM    3  C   UNL     1     -11.886  11.229  69.933  1.00  0.00    -0.360 C  
HETATM    4  C   UNL     1     -12.748  12.070  70.868  1.00  0.00    -0.199 C  
HETATM    5  CA  UNL     1     -12.794  13.427  70.845  1.00  0.00    -0.205 C  
HETATM    6  CA  UNL     1     -10.983  14.897  68.327  1.00  0.00    -0.264 C  
HETATM    7  O   UNL     1     -11.574  16.368  70.337  1.00  0.00    -0.256 OA 
HETATM    8  C   UNL     1     -13.656  14.294  71.841  1.00  0.00    -0.413 C  
HETATM    9  N   UNL     1     -12.061  14.094  69.899  1.00  0.00    -0.328 N  
HETATM   10  C   UNL     1     -11.615  15.350  69.688  1.00  0.00    -0.331 C  
HETATM   11  O   UNL     1     -14.410  15.137  71.256  1.00  0.00    -0.459 OA 
HETATM   12  OXT UNL     1     -13.553  14.024  73.067  1.00  0.00    -0.644 OA 
ENDROOT
BRANCH   4  13
HETATM   13  S   UNL     1     -13.470  11.053  72.108  1.00  0.00     0.166 SA 
BRANCH  13  14
HETATM   14  C   UNL     1     -12.778   9.475  71.831  1.00  0.00    -0.411 A  
HETATM   15  N   UNL     1     -11.505   9.158  71.946  1.00  0.00    -0.371 NA 
HETATM   16  C   UNL     1     -11.320   7.845  71.547  1.00  0.00    -0.256 A  
HETATM   17  S   UNL     1     -13.832   8.160  71.467  1.00  0.00    -0.297 SA 
HETATM   18  C   UNL     1     -12.477   7.136  71.291  1.00  0.00    -0.386 A  
BRANCH  16  19
HETATM   19  C   UNL     1      -9.989   7.275  71.414  1.00  0.00    -0.193 A  
HETATM   20  C   UNL     1      -8.881   7.853  72.032  1.00  0.00    -0.187 A  
HETATM   21  C   UNL     1      -7.626   7.287  71.854  1.00  0.00    -0.085 A  
HETATM   22  C   UNL     1      -6.123   5.625  70.877  1.00  0.00    -0.030 C  
HETATM   23  N   UNL     1      -7.466   6.183  71.093  1.00  0.00    -0.084 NA 
HETATM   24  C   UNL     1      -9.802   6.121  70.655  1.00  0.00    -0.214 A  
HETATM   25  C   UNL     1      -8.533   5.586  70.511  1.00  0.00    -0.123 A  
ENDBRANCH  16  19
ENDBRANCH  13  14
ENDBRANCH   4  13
BRANCH   6  26
HETATM   26  N   UNL     1      -9.484  14.890  68.304  1.00  0.00    -0.204 N  
HETATM   27  H   UNL     1      -8.970  15.306  69.081  1.00  0.00     0.000 HD 
HETATM   28  C   UNL     1      -8.787  14.332  67.252  1.00  0.00    -0.214 C  
HETATM   29  O   UNL     1      -9.324  13.949  66.220  1.00  0.00    -0.245 OA 
BRANCH  28  30
HETATM   30  C   UNL     1      -7.269  14.198  67.419  1.00  0.00    -0.101 C  
BRANCH  30  31
HETATM   31  C   UNL     1      -6.544  15.261  68.131  1.00  0.00    -0.125 A  
HETATM   32  S   UNL     1      -5.206  16.418  69.792  1.00  0.00    -0.145 SA 
HETATM   33  N   UNL     1      -6.449  16.573  67.607  1.00  0.00    -0.134 NA 
HETATM   34  N   UNL     1      -5.908  15.007  69.284  1.00  0.00    -0.101 NA 
HETATM   35  C   UNL     1      -5.749  17.319  68.432  1.00  0.00    -0.145 A  
BRANCH  35  36
HETATM   36  N   UNL     1      -5.444  18.629  68.269  1.00  0.00    -0.184 NA 
HETATM   37  H   UNL     1      -4.660  18.934  67.691  1.00  0.00     0.000 HD 
HETATM   38  P   UNL     1      -6.399  19.687  69.049  1.00  0.00    -0.329 P  
HETATM   39  O   UNL     1      -6.155  21.038  68.219  1.00  0.00    -0.337 OA 
HETATM   40  O   UNL     1      -7.914  19.382  68.639  1.00  0.00    -0.351 OA 
HETATM   41  O   UNL     1      -6.213  19.897  70.515  1.00  0.00    -0.311 OA 
ENDBRANCH  35  36
ENDBRANCH  30  31
BRANCH  30  42
HETATM   42  N   UNL     1      -6.547  13.206  66.972  1.00  0.00    -0.434 NA 
HETATM   43  H   UNL     1      -5.786  13.327  66.303  1.00  0.00     0.000 HD 
BRANCH  42  44
HETATM   44  O   UNL     1      -6.915  11.960  67.499  1.00  0.00    -0.101 OA 
BRANCH  44  45
HETATM   45  C   UNL     1      -5.996  11.622  68.541  1.00  0.00    -0.049 C  
HETATM   46  C   UNL     1      -6.684  10.695  69.526  1.00  0.00    -0.101 C  
ENDBRANCH  44  45
ENDBRANCH  42  44
ENDBRANCH  30  42
ENDBRANCH  28  30
ENDBRANCH   6  26
TORSDOF 10
ENDMDL
MODEL       20
REMARK 921   NORMALIZED FREE ENERGY PREDICTED BY IDOCK:   -5.83 KCAL/MOL
REMARK 922        TOTAL FREE ENERGY PREDICTED BY IDOCK:  -11.04 KCAL/MOL
REMARK 923 INTER-LIGAND FREE ENERGY PREDICTED BY IDOCK:  -10.81 KCAL/MOL
REMARK 924 INTRA-LIGAND FREE ENERGY PREDICTED BY IDOCK:   -0.24 KCAL/MOL
REMARK 927      BINDING AFFINITY PREDICTED BY RF-SCORE:    0.00 PKD
ROOT
HETATM    1  C   UNL     1      -6.894   8.434  68.057  1.00  0.00    -0.070 C  
HETATM    2  S   UNL     1      -7.031   9.300  69.633  1.00  0.00    -0.060 SA 
HETATM    3  C   UNL     1      -8.115   8.097  70.425  1.00  0.00    -0.108 C  
HETATM    4  C   UNL     1      -9.103   7.326  69.557  1.00  0.00    -0.143 C  
HETATM    5  CA  UNL     1      -9.146   7.402  68.202  1.00  0.00    -0.131 C  
HETATM    6  CA  UNL     1      -6.674   9.311  66.779  1.00  0.00    -0.076 C  
HETATM    7  O   UNL     1      -8.761   8.878  65.361  1.00  0.00    -0.171 OA 
HETATM    8  C   UNL     1     -10.196   6.633  67.311  1.00  0.00    -0.198 C  
HETATM    9  N   UNL     1      -8.222   8.182  67.558  1.00  0.00    -0.122 N  
HETATM   10  C   UNL     1      -8.065   8.737  66.338  1.00  0.00    -0.103 C  
HETATM   11  O   UNL     1      -9.664   5.952  66.376  1.00  0.00    -0.157 OA 
HETATM   12  OXT UNL     1     -11.406   6.725  67.650  1.00  0.00    -0.208 OA 
ENDROOT
BRANCH   4  13
HETATM   13  S   UNL     1     -10.304   6.528  70.565  1.00  0.00    -0.208 SA 
BRANCH  13  14
HETATM   14  C   UNL     1     -11.484   7.770  70.898  1.00  0.00    -0.279 A  
HETATM   15  N   UNL     1     -11.396   9.035  70.543  1.00  0.00    -0.259 NA 
HETATM   16  C   UNL     1     -12.468   9.736  71.071  1.00  0.00    -0.323 A  
HETATM   17  S   UNL     1     -12.958   7.326  71.674  1.00  0.00    -0.346 SA 
HETATM   18  C   UNL     1     -13.437   8.964  71.679  1.00  0.00    -0.378 A  
BRANCH  16  19
HETATM   19  C   UNL     1     -12.544  11.185  70.977  1.00  0.00    -0.503 A  
HETATM   20  C   UNL     1     -11.979  11.879  69.908  1.00  0.00    -0.398 A  
HETATM   21  C   UNL     1     -12.053  13.265  69.876  1.00  0.00    -0.308 A  
HETATM   22  C   UNL     1     -12.697  15.418  70.839  1.00  0.00    -0.461 C  
HETATM   23  N   UNL     1     -12.668  13.948  70.865  1.00  0.00    -0.344 NA 
HETATM   24  C   UNL     1     -13.195  11.910  71.972  1.00  0.00    -0.461 A  
HETATM   25  C   UNL     1     -13.253  13.292  71.895  1.00  0.00    -0.431 A  
ENDBRANCH  16  19
ENDBRANCH  13  14
ENDBRANCH   4  13
BRANCH   6  26
HETATM   26  N   UNL     1      -6.628  10.803  66.918  1.00  0.00    -0.084 N  
HETATM   27  H   UNL     1      -5.747  11.293  66.767  1.00  0.00     0.000 HD 
HETATM   28  C   UNL     1      -7.757  11.525  67.249  1.00  0.00    -0.150 C  
HETATM   29  O   UNL     1      -8.812  11.002  67.589  1.00  0.00    -0.130 OA 
BRANCH  28  30
HETATM   30  C   UNL     1      -7.651  13.052  67.170  1.00  0.00    -0.012 C  
BRANCH  30  31
HETATM   31  C   UNL     1      -8.870  13.828  66.899  1.00  0.00    -0.188 A  
HETATM   32  S   UNL     1     -11.090  14.429  66.126  1.00  0.00    -0.336 SA 
HETATM   33  N   UNL     1      -9.019  15.159  67.358  1.00  0.00    -0.176 NA 
HETATM   34  N   UNL     1      -9.904  13.279  66.245  1.00  0.00    -0.282 NA 
HETATM   35  C   UNL     1     -10.193  15.616  66.987  1.00  0.00    -0.274 A  
BRANCH  35  36
HETATM   36  N   UNL     1     -10.695  16.849  67.244  1.00  0.00    -0.261 NA 
HETATM   37  H   UNL     1     -11.246  17.045  68.079  1.00  0.00     0.000 HD 
HETATM   38  P   UNL     1     -10.366  17.997  66.142  1.00  0.00    -0.189 P  
HETATM   39  O   UNL     1     -10.567  19.345  66.988  1.00  0.00    -0.427 OA 
HETATM   40  O   UNL     1      -8.781  18.040  65.928  1.00  0.00    -0.506 OA 
HETATM   41  O   UNL     1     -11.136  18.026  64.864  1.00  0.00    -0.738 OA 
ENDBRANCH  35  36
ENDBRANCH  30  31
BRANCH  30  42
HETATM   42  N   UNL     1      -6.551  13.739  67.321  1.00  0.00    -0.439 NA 
HETATM   43  H   UNL     1      -5.969  14.040  66.538  1.00  0.00     0.000 HD 
BRANCH  42  44
HETATM   44  O   UNL     1      -6.244  14.026  68.659  1.00  0.00    -0.080 OA 
BRANCH  44  45
HETATM   45  C   UNL     1      -5.610  15.306  68.712  1.00  0.00    -0.090 C  
HETATM   46  C   UNL     1      -6.458  16.243  69.552  1.00  0.00    -0.203 C  
ENDBRANCH  44  45
ENDBRANCH  42  44
ENDBRANCH  30  42
ENDBRANCH  28  30
ENDBRANCH   6  26
TORSDOF 10
ENDMDL
MODEL       21
REMARK 921   NORMALIZED FREE ENERGY PREDICTED BY IDOCK:   -5.79 KCAL/MOL
REMARK 922        TOTAL FREE ENERGY PREDICTED BY IDOCK:  -10.98 KCAL/MOL
REMARK 923 INTER-LIGAND FREE ENERGY PREDICTED BY IDOCK:   -9.40 KCAL/MOL
REMARK 924 INTRA-LIGAND FREE ENERGY PREDICTED BY IDOCK:   -1.58 KCAL/MOL
REMARK 927      BINDING AFFINITY PREDICTED BY RF-SCORE:    0.00 PKD
ROOT
HETATM    1  C   UNL     1     -11.049   8.478  72.131  1.00  0.00    -0.366 C  
HETATM    2  S   UNL     1     -12.070   7.528  70.988  1.00  0.00    -0.239 SA 
HETATM    3  C   UNL     1     -11.971   5.968  71.886  1.00  0.00    -0.122 C  
HETATM    4  C   UNL     1     -10.700   5.659  72.669  1.00  0.00    -0.242 C  
HETATM    5  CA  UNL     1      -9.674   6.533  72.831  1.00  0.00    -0.154 C  
HETATM    6  CA  UNL     1     -10.221   9.663  71.531  1.00  0.00     0.255 C  
HETATM    7  O   UNL     1      -7.785   8.991  71.945  1.00  0.00    -0.340 OA 
HETATM    8  C   UNL     1      -8.345   6.195  73.608  1.00  0.00    -0.117 C  
HETATM    9  N   UNL     1      -9.794   7.791  72.300  1.00  0.00    -0.179 N  
HETATM   10  C   UNL     1      -8.980   8.824  71.995  1.00  0.00    -0.156 C  
HETATM   11  O   UNL     1      -8.052   7.049  74.506  1.00  0.00    -0.136 OA 
HETATM   12  OXT UNL     1      -7.767   5.117  73.306  1.00  0.00    -0.094 OA 
ENDROOT
BRANCH   4  13
HETATM   13  S   UNL     1     -10.661   3.958  73.117  1.00  0.00    -0.166 SA 
BRANCH  13  14
HETATM   14  C   UNL     1      -9.907   3.169  71.756  1.00  0.00    -0.159 A  
HETATM   15  N   UNL     1      -9.871   3.623  70.521  1.00  0.00    -0.128 NA 
HETATM   16  C   UNL     1      -9.280   2.678  69.699  1.00  0.00    -0.129 A  
HETATM   17  S   UNL     1      -9.034   1.706  72.026  1.00  0.00    -0.071 SA 
HETATM   18  C   UNL     1      -8.728   1.592  70.350  1.00  0.00    -0.059 A  
BRANCH  16  19
HETATM   19  C   UNL     1      -9.253   2.841  68.255  1.00  0.00    -0.250 A  
HETATM   20  C   UNL     1      -8.957   1.778  67.403  1.00  0.00    -0.161 A  
HETATM   21  C   UNL     1      -8.917   1.990  66.032  1.00  0.00    -0.099 A  
HETATM   22  C   UNL     1      -9.071   3.429  64.062  1.00  0.00    -0.110 C  
HETATM   23  N   UNL     1      -9.164   3.212  65.513  1.00  0.00    -0.151 NA 
HETATM   24  C   UNL     1      -9.530   4.087  67.694  1.00  0.00    -0.231 A  
HETATM   25  C   UNL     1      -9.486   4.251  66.319  1.00  0.00    -0.180 A  
ENDBRANCH  16  19
ENDBRANCH  13  14
ENDBRANCH   4  13
BRANCH   6  26
HETATM   26  N   UNL     1     -10.285   9.922  70.056  1.00  0.00    -0.259 N  
HETATM   27  H   UNL     1      -9.610   9.471  69.439  1.00  0.00     0.000 HD 
HETATM   28  C   UNL     1     -11.241  10.759  69.518  1.00  0.00    -0.281 C  
HETATM   29  O   UNL     1     -11.989  11.450  70.200  1.00  0.00    -0.324 OA 
BRANCH  28  30
HETATM   30  C   UNL     1     -11.347  10.799  67.989  1.00  0.00    -0.307 C  
BRANCH  30  31
HETATM   31  C   UNL     1     -11.492  12.105  67.329  1.00  0.00    -0.345 A  
HETATM   32  S   UNL     1     -12.134  13.817  65.734  1.00  0.00    -0.459 SA 
HETATM   33  N   UNL     1     -10.966  13.288  67.901  1.00  0.00    -0.242 NA 
HETATM   34  N   UNL     1     -12.172  12.222  66.179  1.00  0.00    -0.585 NA 
HETATM   35  C   UNL     1     -11.236  14.306  67.116  1.00  0.00    -0.322 A  
BRANCH  35  36
HETATM   36  N   UNL     1     -10.895  15.600  67.331  1.00  0.00    -0.317 NA 
HETATM   37  H   UNL     1     -11.343  16.164  68.053  1.00  0.00     0.000 HD 
HETATM   38  P   UNL     1      -9.732  16.201  66.369  1.00  0.00    -0.335 P  
HETATM   39  O   UNL     1      -9.197  17.448  67.225  1.00  0.00    -0.230 OA 
HETATM   40  O   UNL     1      -8.460  15.236  66.466  1.00  0.00    -0.265 OA 
HETATM   41  O   UNL     1     -10.071  16.595  64.970  1.00  0.00    -0.432 OA 
ENDBRANCH  35  36
ENDBRANCH  30  31
BRANCH  30  42
HETATM   42  N   UNL     1     -11.324   9.755  67.205  1.00  0.00    -0.234 NA 
HETATM   43  H   UNL     1     -11.779   9.732  66.293  1.00  0.00     0.000 HD 
BRANCH  42  44
HETATM   44  O   UNL     1     -10.613   8.668  67.736  1.00  0.00    -0.236 OA 
BRANCH  44  45
HETATM   45  C   UNL     1      -9.380   8.545  67.022  1.00  0.00    -0.161 C  
HETATM   46  C   UNL     1      -9.544   9.157  65.643  1.00  0.00    -0.287 C  
ENDBRANCH  44  45
ENDBRANCH  42  44
ENDBRANCH  30  42
ENDBRANCH  28  30
ENDBRANCH   6  26
TORSDOF 10
ENDMDL
MODEL       22
REMARK 921   NORMALIZED FREE ENERGY PREDICTED BY IDOCK:   -5.75 KCAL/MOL
REMARK 922        TOTAL FREE ENERGY PREDICTED BY IDOCK:  -10.92 KCAL/MOL
REMARK 923 INTER-LIGAND FREE ENERGY PREDICTED BY IDOCK:   -8.22 KCAL/MOL
REMARK 924 INTRA-LIGAND FREE ENERGY PREDICTED BY IDOCK:   -2.70 KCAL/MOL
REMARK 927      BINDING AFFINITY PREDICTED BY RF-SCORE:    0.00 PKD
ROOT
HETATM    1  C   UNL     1      -8.718  10.792  64.780  1.00  0.00    -0.109 C  
HETATM    2  S   UNL     1     -10.509  10.638  64.929  1.00  0.00    -0.106 SA 
HETATM    3  C   UNL     1     -10.790  12.275  65.629  1.00  0.00    -0.285 C  
HETATM    4  C   UNL     1      -9.708  12.883  66.515  1.00  0.00    -0.257 C  
HETATM    5  CA  UNL     1      -8.490  12.320  66.723  1.00  0.00    -0.119 C  
HETATM    6  CA  UNL     1      -7.876   9.477  64.900  1.00  0.00    -0.119 C  
HETATM    7  O   UNL     1      -6.439   9.846  66.986  1.00  0.00    -0.067 OA 
HETATM    8  C   UNL     1      -7.389  12.933  67.672  1.00  0.00    -0.145 C  
HETATM    9  N   UNL     1      -8.183  11.157  66.068  1.00  0.00    -0.136 N  
HETATM   10  C   UNL     1      -7.272  10.166  66.172  1.00  0.00    -0.115 C  
HETATM   11  O   UNL     1      -6.254  13.064  67.111  1.00  0.00    -0.286 OA 
HETATM   12  OXT UNL     1      -7.759  13.272  68.827  1.00  0.00    -0.111 OA 
ENDROOT
BRANCH   4  13
HETATM   13  S   UNL     1     -10.349  14.266  67.393  1.00  0.00    -0.260 SA 
BRANCH  13  14
HETATM   14  C   UNL     1     -11.145  13.567  68.780  1.00  0.00    -0.264 A  
HETATM   15  N   UNL     1     -11.115  12.298  69.131  1.00  0.00    -0.228 NA 
HETATM   16  C   UNL     1     -11.946  12.103  70.222  1.00  0.00    -0.305 A  
HETATM   17  S   UNL     1     -11.977  14.611  69.871  1.00  0.00    -0.347 SA 
HETATM   18  C   UNL     1     -12.465  13.253  70.782  1.00  0.00    -0.324 A  
BRANCH  16  19
HETATM   19  C   UNL     1     -12.235  10.769  70.723  1.00  0.00    -0.480 A  
HETATM   20  C   UNL     1     -11.495   9.659  70.318  1.00  0.00    -0.288 A  
HETATM   21  C   UNL     1     -11.826   8.401  70.803  1.00  0.00    -0.163 A  
HETATM   22  C   UNL     1     -13.219   6.896  72.133  1.00  0.00     0.041 C  
HETATM   23  N   UNL     1     -12.853   8.241  71.666  1.00  0.00    -0.324 NA 
HETATM   24  C   UNL     1     -13.273  10.581  71.634  1.00  0.00    -0.493 A  
HETATM   25  C   UNL     1     -13.563   9.309  72.098  1.00  0.00    -0.471 A  
ENDBRANCH  16  19
ENDBRANCH  13  14
ENDBRANCH   4  13
BRANCH   6  26
HETATM   26  N   UNL     1      -8.584   8.183  65.166  1.00  0.00    -0.321 N  
HETATM   27  H   UNL     1      -9.573   8.195  65.413  1.00  0.00     0.000 HD 
HETATM   28  C   UNL     1      -7.921   6.975  65.082  1.00  0.00    -0.128 C  
HETATM   29  O   UNL     1      -6.708   6.885  64.936  1.00  0.00    -0.044 OA 
BRANCH  28  30
HETATM   30  C   UNL     1      -8.776   5.707  65.174  1.00  0.00    -0.093 C  
BRANCH  30  31
HETATM   31  C   UNL     1      -9.047   5.137  66.503  1.00  0.00    -0.127 A  
HETATM   32  S   UNL     1      -9.394   3.534  68.291  1.00  0.00    -0.158 SA 
HETATM   33  N   UNL     1      -9.246   5.961  67.636  1.00  0.00    -0.106 NA 
HETATM   34  N   UNL     1      -9.067   3.810  66.691  1.00  0.00    -0.145 NA 
HETATM   35  C   UNL     1      -9.464   5.206  68.688  1.00  0.00    -0.133 A  
BRANCH  35  36
HETATM   36  N   UNL     1      -9.694   5.635  69.954  1.00  0.00    -0.159 NA 
HETATM   37  H   UNL     1     -10.565   5.429  70.444  1.00  0.00     0.000 HD 
HETATM   38  P   UNL     1      -8.503   6.498  70.643  1.00  0.00    -0.136 P  
HETATM   39  O   UNL     1      -8.827   6.332  72.205  1.00  0.00    -0.136 OA 
HETATM   40  O   UNL     1      -7.154   5.644  70.549  1.00  0.00    -0.062 OA 
HETATM   41  O   UNL     1      -8.325   7.931  70.264  1.00  0.00    -0.122 OA 
ENDBRANCH  35  36
ENDBRANCH  30  31
BRANCH  30  42
HETATM   42  N   UNL     1      -9.292   5.070  64.157  1.00  0.00    -0.354 NA 
HETATM   43  H   UNL     1     -10.297   4.958  64.021  1.00  0.00     0.000 HD 
BRANCH  42  44
HETATM   44  O   UNL     1      -8.336   4.556  63.270  1.00  0.00    -0.092 OA 
BRANCH  44  45
HETATM   45  C   UNL     1      -8.629   3.175  63.042  1.00  0.00    -0.085 C  
HETATM   46  C   UNL     1      -7.537   2.328  63.669  1.00  0.00    -0.059 C  
ENDBRANCH  44  45
ENDBRANCH  42  44
ENDBRANCH  30  42
ENDBRANCH  28  30
ENDBRANCH   6  26
TORSDOF 10
ENDMDL
MODEL       23
REMARK 921   NORMALIZED FREE ENERGY PREDICTED BY IDOCK:   -5.75 KCAL/MOL
REMARK 922        TOTAL FREE ENERGY PREDICTED BY IDOCK:  -10.91 KCAL/MOL
REMARK 923 INTER-LIGAND FREE ENERGY PREDICTED BY IDOCK:   -8.39 KCAL/MOL
REMARK 924 INTRA-LIGAND FREE ENERGY PREDICTED BY IDOCK:   -2.52 KCAL/MOL
REMARK 927      BINDING AFFINITY PREDICTED BY RF-SCORE:    0.00 PKD
ROOT
HETATM    1  C   UNL     1      -9.180  11.433  65.460  1.00  0.00    -0.177 C  
HETATM    2  S   UNL     1     -10.672  10.588  66.018  1.00  0.00     0.066 SA 
HETATM    3  C   UNL     1     -11.456  12.036  66.751  1.00  0.00    -0.345 C  
HETATM    4  C   UNL     1     -10.566  13.115  67.359  1.00  0.00    -0.242 C  
HETATM    5  CA  UNL     1      -9.211  13.113  67.287  1.00  0.00    -0.221 C  
HETATM    6  CA  UNL     1      -7.864  10.587  65.393  1.00  0.00    -0.119 C  
HETATM    7  O   UNL     1      -6.313  11.714  67.090  1.00  0.00    -0.108 OA 
HETATM    8  C   UNL     1      -8.294  14.211  67.951  1.00  0.00    -0.162 C  
HETATM    9  N   UNL     1      -8.591  12.111  66.588  1.00  0.00    -0.162 N  
HETATM   10  C   UNL     1      -7.352  11.586  66.487  1.00  0.00    -0.012 C  
HETATM   11  O   UNL     1      -7.457  14.729  67.143  1.00  0.00    -0.179 OA 
HETATM   12  OXT UNL     1      -8.523  14.489  69.158  1.00  0.00    -0.100 OA 
ENDROOT
BRANCH   4  13
HETATM   13  S   UNL     1     -11.527  14.206  68.351  1.00  0.00    -0.322 SA 
BRANCH  13  14
HETATM   14  C   UNL     1     -12.032  13.228  69.705  1.00  0.00    -0.324 A  
HETATM   15  N   UNL     1     -11.770  11.949  69.876  1.00  0.00    -0.319 NA 
HETATM   16  C   UNL     1     -12.421  11.494  71.011  1.00  0.00    -0.356 A  
HETATM   17  S   UNL     1     -12.868  13.987  71.008  1.00  0.00    -0.323 SA 
HETATM   18  C   UNL     1     -13.032  12.470  71.773  1.00  0.00    -0.313 A  
BRANCH  16  19
HETATM   19  C   UNL     1     -12.444  10.082  71.354  1.00  0.00    -0.510 A  
HETATM   20  C   UNL     1     -13.642   9.379  71.483  1.00  0.00    -0.408 A  
HETATM   21  C   UNL     1     -13.613   8.038  71.839  1.00  0.00    -0.313 A  
HETATM   22  C   UNL     1     -12.432   5.997  72.483  1.00  0.00     0.169 C  
HETATM   23  N   UNL     1     -12.442   7.405  72.060  1.00  0.00    -0.279 NA 
HETATM   24  C   UNL     1     -11.247   9.400  71.562  1.00  0.00    -0.457 A  
HETATM   25  C   UNL     1     -11.266   8.059  71.908  1.00  0.00    -0.280 A  
ENDBRANCH  16  19
ENDBRANCH  13  14
ENDBRANCH   4  13
BRANCH   6  26
HETATM   26  N   UNL     1      -7.899   9.152  65.825  1.00  0.00    -0.097 N  
HETATM   27  H   UNL     1      -7.734   8.919  66.804  1.00  0.00     0.000 HD 
HETATM   28  C   UNL     1      -8.151   8.139  64.922  1.00  0.00    -0.153 C  
HETATM   29  O   UNL     1      -8.212   8.320  63.711  1.00  0.00    -0.152 OA 
BRANCH  28  30
HETATM   30  C   UNL     1      -8.363   6.734  65.496  1.00  0.00    -0.142 C  
BRANCH  30  31
HETATM   31  C   UNL     1      -7.976   6.480  66.892  1.00  0.00    -0.112 A  
HETATM   32  S   UNL     1      -6.903   5.512  68.842  1.00  0.00    -0.056 SA 
HETATM   33  N   UNL     1      -8.465   7.277  67.954  1.00  0.00    -0.118 NA 
HETATM   34  N   UNL     1      -7.105   5.507  67.198  1.00  0.00    -0.072 NA 
HETATM   35  C   UNL     1      -7.965   6.842  69.088  1.00  0.00    -0.119 A  
BRANCH  35  36
HETATM   36  N   UNL     1      -8.201   7.354  70.321  1.00  0.00    -0.130 NA 
HETATM   37  H   UNL     1      -8.759   6.857  71.015  1.00  0.00     0.000 HD 
HETATM   38  P   UNL     1      -7.542   8.807  70.629  1.00  0.00    -0.117 P  
HETATM   39  O   UNL     1      -7.507   8.829  72.232  1.00  0.00    -0.309 OA 
HETATM   40  O   UNL     1      -5.975   8.716  70.321  1.00  0.00    -0.030 OA 
HETATM   41  O   UNL     1      -8.185  10.034  70.072  1.00  0.00    -0.178 OA 
ENDBRANCH  35  36
ENDBRANCH  30  31
BRANCH  30  42
HETATM   42  N   UNL     1      -8.863   5.720  64.842  1.00  0.00    -0.359 NA 
HETATM   43  H   UNL     1      -8.538   5.438  63.917  1.00  0.00     0.000 HD 
BRANCH  42  44
HETATM   44  O   UNL     1      -9.888   5.056  65.531  1.00  0.00    -0.131 OA 
BRANCH  44  45
HETATM   45  C   UNL     1     -10.327   3.954  64.732  1.00  0.00    -0.173 C  
HETATM   46  C   UNL     1      -9.186   2.965  64.585  1.00  0.00    -0.144 C  
ENDBRANCH  44  45
ENDBRANCH  42  44
ENDBRANCH  30  42
ENDBRANCH  28  30
ENDBRANCH   6  26
TORSDOF 10
ENDMDL
MODEL       24
REMARK 921   NORMALIZED FREE ENERGY PREDICTED BY IDOCK:   -5.68 KCAL/MOL
REMARK 922        TOTAL FREE ENERGY PREDICTED BY IDOCK:  -10.80 KCAL/MOL
REMARK 923 INTER-LIGAND FREE ENERGY PREDICTED BY IDOCK:   -8.48 KCAL/MOL
REMARK 924 INTRA-LIGAND FREE ENERGY PREDICTED BY IDOCK:   -2.32 KCAL/MOL
REMARK 927      BINDING AFFINITY PREDICTED BY RF-SCORE:    0.00 PKD
ROOT
HETATM    1  C   UNL     1     -10.224  13.243  65.710  1.00  0.00    -0.292 C  
HETATM    2  S   UNL     1     -11.814  12.490  66.106  1.00  0.00    -0.358 SA 
HETATM    3  C   UNL     1     -12.371  13.786  67.229  1.00  0.00    -0.164 C  
HETATM    4  C   UNL     1     -11.327  14.535  68.050  1.00  0.00    -0.306 C  
HETATM    5  CA  UNL     1      -9.987  14.370  67.910  1.00  0.00    -0.228 C  
HETATM    6  CA  UNL     1      -9.045  12.275  65.359  1.00  0.00     0.363 C  
HETATM    7  O   UNL     1      -7.324  12.693  67.208  1.00  0.00    -0.148 OA 
HETATM    8  C   UNL     1      -8.912  15.118  68.788  1.00  0.00    -0.197 C  
HETATM    9  N   UNL     1      -9.528  13.513  66.943  1.00  0.00    -0.250 N  
HETATM   10  C   UNL     1      -8.379  12.871  66.646  1.00  0.00     0.145 C  
HETATM   11  O   UNL     1      -8.021  15.713  68.100  1.00  0.00    -0.126 OA 
HETATM   12  OXT UNL     1      -9.082  15.096  70.036  1.00  0.00    -0.001 OA 
ENDROOT
BRANCH   4  13
HETATM   13  S   UNL     1     -12.106  15.445  69.338  1.00  0.00    -0.226 SA 
BRANCH  13  14
HETATM   14  C   UNL     1     -12.603  14.229  70.487  1.00  0.00    -0.353 A  
HETATM   15  N   UNL     1     -12.217  12.970  70.497  1.00  0.00    -0.354 NA 
HETATM   16  C   UNL     1     -12.900  12.287  71.490  1.00  0.00    -0.280 A  
HETATM   17  S   UNL     1     -13.615  14.696  71.803  1.00  0.00    -0.435 SA 
HETATM   18  C   UNL     1     -13.670  13.072  72.325  1.00  0.00    -0.512 A  
BRANCH  16  19
HETATM   19  C   UNL     1     -12.794  10.843  71.625  1.00  0.00    -0.554 A  
HETATM   20  C   UNL     1     -11.635  10.158  71.265  1.00  0.00    -0.387 A  
HETATM   21  C   UNL     1     -11.592   8.775  71.386  1.00  0.00    -0.299 A  
HETATM   22  C   UNL     1     -12.611   6.620  71.927  1.00  0.00    -0.256 C  
HETATM   23  N   UNL     1     -12.657   8.087  71.850  1.00  0.00    -0.320 NA 
HETATM   24  C   UNL     1     -13.871  10.114  72.125  1.00  0.00    -0.047 A  
HETATM   25  C   UNL     1     -13.781   8.736  72.236  1.00  0.00    -0.440 A  
ENDBRANCH  16  19
ENDBRANCH  13  14
ENDBRANCH   4  13
BRANCH   6  26
HETATM   26  N   UNL     1      -9.280  10.795  65.404  1.00  0.00    -0.197 N  
HETATM   27  H   UNL     1     -10.216  10.443  65.606  1.00  0.00     0.000 HD 
HETATM   28  C   UNL     1      -8.254   9.900  65.179  1.00  0.00    -0.144 C  
HETATM   29  O   UNL     1      -7.080  10.238  65.077  1.00  0.00    -0.136 OA 
BRANCH  28  30
HETATM   30  C   UNL     1      -8.638   8.422  65.050  1.00  0.00    -0.106 C  
BRANCH  30  31
HETATM   31  C   UNL     1      -9.152   7.724  66.238  1.00  0.00    -0.178 A  
HETATM   32  S   UNL     1     -10.617   7.024  68.041  1.00  0.00    -0.198 SA 
HETATM   33  N   UNL     1      -8.398   6.718  66.890  1.00  0.00    -0.113 NA 
HETATM   34  N   UNL     1     -10.376   7.988  66.716  1.00  0.00    -0.321 NA 
HETATM   35  C   UNL     1      -9.083   6.258  67.912  1.00  0.00    -0.111 A  
BRANCH  35  36
HETATM   36  N   UNL     1      -8.690   5.286  68.772  1.00  0.00    -0.090 NA 
HETATM   37  H   UNL     1      -8.685   4.301  68.509  1.00  0.00     0.000 HD 
HETATM   38  P   UNL     1      -8.229   5.784  70.248  1.00  0.00    -0.112 P  
HETATM   39  O   UNL     1      -7.328   4.557  70.752  1.00  0.00    -0.049 OA 
HETATM   40  O   UNL     1      -7.097   6.899  70.064  1.00  0.00    -0.070 OA 
HETATM   41  O   UNL     1      -9.269   6.157  71.252  1.00  0.00    -0.149 OA 
ENDBRANCH  35  36
ENDBRANCH  30  31
BRANCH  30  42
HETATM   42  N   UNL     1      -8.544   7.711  63.959  1.00  0.00    -0.312 NA 
HETATM   43  H   UNL     1      -9.318   7.585  63.306  1.00  0.00     0.000 HD 
BRANCH  42  44
HETATM   44  O   UNL     1      -7.279   7.138  63.767  1.00  0.00    -0.063 OA 
BRANCH  44  45
HETATM   45  C   UNL     1      -7.444   5.908  63.056  1.00  0.00    -0.067 C  
HETATM   46  C   UNL     1      -6.826   4.783  63.865  1.00  0.00    -0.044 C  
ENDBRANCH  44  45
ENDBRANCH  42  44
ENDBRANCH  30  42
ENDBRANCH  28  30
ENDBRANCH   6  26
TORSDOF 10
ENDMDL
MODEL       25
REMARK 921   NORMALIZED FREE ENERGY PREDICTED BY IDOCK:   -5.65 KCAL/MOL
REMARK 922        TOTAL FREE ENERGY PREDICTED BY IDOCK:  -10.75 KCAL/MOL
REMARK 923 INTER-LIGAND FREE ENERGY PREDICTED BY IDOCK:   -9.20 KCAL/MOL
REMARK 924 INTRA-LIGAND FREE ENERGY PREDICTED BY IDOCK:   -1.56 KCAL/MOL
REMARK 927      BINDING AFFINITY PREDICTED BY RF-SCORE:    0.00 PKD
ROOT
HETATM    1  C   UNL     1     -10.051   6.348  66.640  1.00  0.00    -0.145 C  
HETATM    2  S   UNL     1     -10.090   7.672  67.864  1.00  0.00    -0.196 SA 
HETATM    3  C   UNL     1      -9.829   9.023  66.700  1.00  0.00    -0.248 C  
HETATM    4  C   UNL     1      -8.984   8.761  65.458  1.00  0.00    -0.181 C  
HETATM    5  CA  UNL     1      -8.503   7.540  65.109  1.00  0.00    -0.031 C  
HETATM    6  CA  UNL     1      -9.527   4.951  67.117  1.00  0.00    -0.142 C  
HETATM    7  O   UNL     1      -7.424   4.562  65.709  1.00  0.00    -0.079 OA 
HETATM    8  C   UNL     1      -7.596   7.281  63.845  1.00  0.00    -0.110 C  
HETATM    9  N   UNL     1      -8.828   6.460  65.886  1.00  0.00    -0.153 N  
HETATM   10  C   UNL     1      -8.386   5.198  66.071  1.00  0.00    -0.116 C  
HETATM   11  O   UNL     1      -8.030   6.349  63.093  1.00  0.00    -0.107 OA 
HETATM   12  OXT UNL     1      -6.605   8.043  63.690  1.00  0.00    -0.069 OA 
ENDROOT
BRANCH   4  13
HETATM   13  S   UNL     1      -8.536  10.282  64.696  1.00  0.00    -0.192 SA 
BRANCH  13  14
HETATM   14  C   UNL     1      -9.792  11.394  65.177  1.00  0.00    -0.260 A  
HETATM   15  N   UNL     1      -9.837  12.068  66.307  1.00  0.00    -0.226 NA 
HETATM   16  C   UNL     1     -11.032  12.766  66.380  1.00  0.00    -0.276 A  
HETATM   17  S   UNL     1     -11.059  11.746  64.061  1.00  0.00    -0.405 SA 
HETATM   18  C   UNL     1     -11.801  12.741  65.233  1.00  0.00    -0.403 A  
BRANCH  16  19
HETATM   19  C   UNL     1     -11.425  13.468  67.590  1.00  0.00    -0.351 A  
HETATM   20  C   UNL     1     -11.873  12.785  68.720  1.00  0.00    -0.346 A  
HETATM   21  C   UNL     1     -12.263  13.502  69.843  1.00  0.00    -0.292 A  
HETATM   22  C   UNL     1     -12.673  15.596  71.036  1.00  0.00    -0.460 C  
HETATM   23  N   UNL     1     -12.211  14.851  69.856  1.00  0.00    -0.317 NA 
HETATM   24  C   UNL     1     -11.355  14.859  67.637  1.00  0.00    -0.348 A  
HETATM   25  C   UNL     1     -11.748  15.533  68.782  1.00  0.00    -0.357 A  
ENDBRANCH  16  19
ENDBRANCH  13  14
ENDBRANCH   4  13
BRANCH   6  26
HETATM   26  N   UNL     1      -9.056   4.796  68.531  1.00  0.00    -0.111 N  
HETATM   27  H   UNL     1      -8.706   5.611  69.035  1.00  0.00     0.000 HD 
HETATM   28  C   UNL     1      -9.086   3.570  69.164  1.00  0.00    -0.140 C  
HETATM   29  O   UNL     1      -9.350   2.523  68.586  1.00  0.00    -0.169 OA 
BRANCH  28  30
HETATM   30  C   UNL     1      -8.773   3.556  70.665  1.00  0.00    -0.074 C  
BRANCH  30  31
HETATM   31  C   UNL     1      -9.780   4.084  71.597  1.00  0.00    -0.172 A  
HETATM   32  S   UNL     1     -11.156   4.373  73.575  1.00  0.00    -0.283 SA 
HETATM   33  N   UNL     1     -10.560   5.222  71.280  1.00  0.00    -0.206 NA 
HETATM   34  N   UNL     1      -9.960   3.527  72.804  1.00  0.00    -0.147 NA 
HETATM   35  C   UNL     1     -11.372   5.482  72.279  1.00  0.00    -0.194 A  
BRANCH  35  36
HETATM   36  N   UNL     1     -12.269   6.497  72.344  1.00  0.00    -0.531 NA 
HETATM   37  H   UNL     1     -13.255   6.335  72.552  1.00  0.00     0.000 HD 
HETATM   38  P   UNL     1     -11.683   7.986  72.068  1.00  0.00    -0.373 P  
HETATM   39  O   UNL     1     -12.786   8.918  72.766  1.00  0.00    -0.347 OA 
HETATM   40  O   UNL     1     -10.453   8.227  73.062  1.00  0.00    -0.271 OA 
HETATM   41  O   UNL     1     -11.404   8.415  70.666  1.00  0.00    -0.263 OA 
ENDBRANCH  35  36
ENDBRANCH  30  31
BRANCH  30  42
HETATM   42  N   UNL     1      -7.667   3.113  71.200  1.00  0.00    -0.046 NA 
HETATM   43  H   UNL     1      -7.582   2.186  71.619  1.00  0.00     0.000 HD 
BRANCH  42  44
HETATM   44  O   UNL     1      -6.608   4.030  71.143  1.00  0.00    -0.025 OA 
BRANCH  44  45
HETATM   45  C   UNL     1      -6.353   4.506  72.468  1.00  0.00    -0.022 C  
HETATM   46  C   UNL     1      -6.165   3.317  73.392  1.00  0.00    -0.015 C  
ENDBRANCH  44  45
ENDBRANCH  42  44
ENDBRANCH  30  42
ENDBRANCH  28  30
ENDBRANCH   6  26
TORSDOF 10
ENDMDL
MODEL       26
REMARK 921   NORMALIZED FREE ENERGY PREDICTED BY IDOCK:   -5.63 KCAL/MOL
REMARK 922        TOTAL FREE ENERGY PREDICTED BY IDOCK:  -10.72 KCAL/MOL
REMARK 923 INTER-LIGAND FREE ENERGY PREDICTED BY IDOCK:   -8.20 KCAL/MOL
REMARK 924 INTRA-LIGAND FREE ENERGY PREDICTED BY IDOCK:   -2.52 KCAL/MOL
REMARK 927      BINDING AFFINITY PREDICTED BY RF-SCORE:    0.00 PKD
ROOT
HETATM    1  C   UNL     1     -11.003  10.268  67.345  1.00  0.00    -0.252 C  
HETATM    2  S   UNL     1     -10.158  10.898  68.808  1.00  0.00    -0.198 SA 
HETATM    3  C   UNL     1     -11.220  12.336  69.044  1.00  0.00    -0.265 C  
HETATM    4  C   UNL     1     -11.833  12.997  67.814  1.00  0.00    -0.347 C  
HETATM    5  CA  UNL     1     -11.724  12.507  66.553  1.00  0.00    -0.391 C  
HETATM    6  CA  UNL     1     -10.139   9.472  66.309  1.00  0.00    -0.257 C  
HETATM    7  O   UNL     1     -10.257  10.890  64.180  1.00  0.00    -0.317 OA 
HETATM    8  C   UNL     1     -12.327  13.216  65.279  1.00  0.00    -0.481 C  
HETATM    9  N   UNL     1     -11.064  11.322  66.363  1.00  0.00    -0.244 N  
HETATM   10  C   UNL     1     -10.510  10.644  65.336  1.00  0.00    -0.184 C  
HETATM   11  O   UNL     1     -13.054  12.449  64.570  1.00  0.00    -0.823 OA 
HETATM   12  OXT UNL     1     -12.079  14.443  65.141  1.00  0.00    -0.381 OA 
ENDROOT
BRANCH   4  13
HETATM   13  S   UNL     1     -12.482  14.578  68.235  1.00  0.00     0.494 SA 
BRANCH  13  14
HETATM   14  C   UNL     1     -11.074  15.598  68.383  1.00  0.00    -0.326 A  
HETATM   15  N   UNL     1     -10.684  16.508  67.516  1.00  0.00    -0.311 NA 
HETATM   16  C   UNL     1      -9.471  17.041  67.922  1.00  0.00    -0.245 A  
HETATM   17  S   UNL     1     -10.133  15.507  69.826  1.00  0.00    -0.254 SA 
HETATM   18  C   UNL     1      -9.041  16.645  69.173  1.00  0.00    -0.157 A  
BRANCH  16  19
HETATM   19  C   UNL     1      -8.723  17.953  67.073  1.00  0.00    -0.254 A  
HETATM   20  C   UNL     1      -9.179  19.242  66.802  1.00  0.00    -0.367 A  
HETATM   21  C   UNL     1      -8.443  20.066  65.962  1.00  0.00    -0.210 A  
HETATM   22  C   UNL     1      -6.547  20.507  64.483  1.00  0.00    -0.225 C  
HETATM   23  N   UNL     1      -7.289  19.637  65.408  1.00  0.00    -0.409 NA 
HETATM   24  C   UNL     1      -7.516  17.541  66.509  1.00  0.00    -0.309 A  
HETATM   25  C   UNL     1      -6.810  18.401  65.683  1.00  0.00    -0.243 A  
ENDBRANCH  16  19
ENDBRANCH  13  14
ENDBRANCH   4  13
BRANCH   6  26
HETATM   26  N   UNL     1      -8.670   9.310  66.561  1.00  0.00    -0.129 N  
HETATM   27  H   UNL     1      -8.023  10.025  66.228  1.00  0.00     0.000 HD 
HETATM   28  C   UNL     1      -8.177   8.210  67.234  1.00  0.00    -0.121 C  
HETATM   29  O   UNL     1      -8.867   7.243  67.534  1.00  0.00    -0.120 OA 
BRANCH  28  30
HETATM   30  C   UNL     1      -6.692   8.238  67.613  1.00  0.00    -0.062 C  
BRANCH  30  31
HETATM   31  C   UNL     1      -6.204   9.334  68.463  1.00  0.00    -0.049 A  
HETATM   32  S   UNL     1      -5.424  10.571  70.399  1.00  0.00    -0.080 SA 
HETATM   33  N   UNL     1      -5.930  10.618  67.933  1.00  0.00    -0.043 NA 
HETATM   34  N   UNL     1      -5.958   9.137  69.766  1.00  0.00    -0.035 NA 
HETATM   35  C   UNL     1      -5.506  11.403  68.896  1.00  0.00    -0.039 A  
BRANCH  35  36
HETATM   36  N   UNL     1      -5.144  12.704  68.774  1.00  0.00    -0.055 NA 
HETATM   37  H   UNL     1      -4.231  12.978  68.410  1.00  0.00     0.000 HD 
HETATM   38  P   UNL     1      -6.248  13.799  69.242  1.00  0.00    -0.115 P  
HETATM   39  O   UNL     1      -5.771  15.115  68.458  1.00  0.00    -0.087 OA 
HETATM   40  O   UNL     1      -7.611  13.494  68.462  1.00  0.00    -0.123 OA 
HETATM   41  O   UNL     1      -6.446  14.064  70.698  1.00  0.00    -0.077 OA 
ENDBRANCH  35  36
ENDBRANCH  30  31
BRANCH  30  42
HETATM   42  N   UNL     1      -5.802   7.359  67.237  1.00  0.00    -0.030 NA 
HETATM   43  H   UNL     1      -5.409   6.659  67.866  1.00  0.00     0.000 HD 
BRANCH  42  44
HETATM   44  O   UNL     1      -5.440   7.468  65.886  1.00  0.00    -0.027 OA 
BRANCH  44  45
HETATM   45  C   UNL     1      -5.709   6.218  65.246  1.00  0.00    -0.022 C  
HETATM   46  C   UNL     1      -6.265   6.483  63.859  1.00  0.00    -0.034 C  
ENDBRANCH  44  45
ENDBRANCH  42  44
ENDBRANCH  30  42
ENDBRANCH  28  30
ENDBRANCH   6  26
TORSDOF 10
ENDMDL
MODEL       27
REMARK 921   NORMALIZED FREE ENERGY PREDICTED BY IDOCK:   -5.56 KCAL/MOL
REMARK 922        TOTAL FREE ENERGY PREDICTED BY IDOCK:  -10.62 KCAL/MOL
REMARK 923 INTER-LIGAND FREE ENERGY PREDICTED BY IDOCK:   -8.94 KCAL/MOL
REMARK 924 INTRA-LIGAND FREE ENERGY PREDICTED BY IDOCK:   -1.68 KCAL/MOL
REMARK 927      BINDING AFFINITY PREDICTED BY RF-SCORE:    0.00 PKD
ROOT
HETATM    1  C   UNL     1      -9.112   9.445  66.467  1.00  0.00    -0.153 C  
HETATM    2  S   UNL     1     -10.715   9.209  67.260  1.00  0.00    -0.049 SA 
HETATM    3  C   UNL     1     -11.043  10.956  67.563  1.00  0.00    -0.310 C  
HETATM    4  C   UNL     1      -9.862  11.882  67.829  1.00  0.00    -0.184 C  
HETATM    5  CA  UNL     1      -8.562  11.502  67.743  1.00  0.00    -0.138 C  
HETATM    6  CA  UNL     1      -8.062   8.295  66.626  1.00  0.00    -0.102 C  
HETATM    7  O   UNL     1      -6.137   9.384  67.915  1.00  0.00    -0.052 OA 
HETATM    8  C   UNL     1      -7.345  12.454  68.058  1.00  0.00    -0.108 C  
HETATM    9  N   UNL     1      -8.277  10.221  67.349  1.00  0.00    -0.114 N  
HETATM   10  C   UNL     1      -7.222   9.379  67.386  1.00  0.00    -0.087 C  
HETATM   11  O   UNL     1      -6.478  12.493  67.126  1.00  0.00    -0.150 OA 
HETATM   12  OXT UNL     1      -7.392  13.098  69.140  1.00  0.00    -0.011 OA 
ENDROOT
BRANCH   4  13
HETATM   13  S   UNL     1     -10.428  13.415  68.483  1.00  0.00    -0.236 SA 
BRANCH  13  14
HETATM   14  C   UNL     1      -9.968  14.594  67.282  1.00  0.00    -0.235 A  
HETATM   15  N   UNL     1      -9.109  15.577  67.453  1.00  0.00    -0.195 NA 
HETATM   16  C   UNL     1      -9.080  16.366  66.314  1.00  0.00    -0.327 A  
HETATM   17  S   UNL     1     -10.597  14.438  65.684  1.00  0.00    -0.350 SA 
HETATM   18  C   UNL     1      -9.794  15.876  65.238  1.00  0.00     0.004 A  
BRANCH  16  19
HETATM   19  C   UNL     1      -8.341  17.617  66.280  1.00  0.00    -0.251 A  
HETATM   20  C   UNL     1      -8.987  18.851  66.348  1.00  0.00    -0.315 A  
HETATM   21  C   UNL     1      -8.240  20.019  66.284  1.00  0.00    -0.292 A  
HETATM   22  C   UNL     1      -6.125  21.222  66.046  1.00  0.00    -0.203 C  
HETATM   23  N   UNL     1      -6.896  19.976  66.159  1.00  0.00    -0.227 NA 
HETATM   24  C   UNL     1      -6.951  17.598  66.178  1.00  0.00    -0.338 A  
HETATM   25  C   UNL     1      -6.246  18.789  66.125  1.00  0.00    -0.187 A  
ENDBRANCH  16  19
ENDBRANCH  13  14
ENDBRANCH   4  13
BRANCH   6  26
HETATM   26  N   UNL     1      -8.419   7.092  67.447  1.00  0.00    -0.122 N  
HETATM   27  H   UNL     1      -8.170   7.070  68.436  1.00  0.00     0.000 HD 
HETATM   28  C   UNL     1      -9.077   6.015  66.889  1.00  0.00    -0.125 C  
HETATM   29  O   UNL     1      -9.278   5.902  65.686  1.00  0.00    -0.106 OA 
BRANCH  28  30
HETATM   30  C   UNL     1      -9.572   4.930  67.852  1.00  0.00    -0.145 C  
BRANCH  30  31
HETATM   31  C   UNL     1     -10.172   5.344  69.129  1.00  0.00    -0.232 A  
HETATM   32  S   UNL     1     -10.585   5.577  71.509  1.00  0.00    -0.217 SA 
HETATM   33  N   UNL     1     -11.263   6.244  69.178  1.00  0.00    -0.397 NA 
HETATM   34  N   UNL     1      -9.672   4.914  70.296  1.00  0.00    -0.197 NA 
HETATM   35  C   UNL     1     -11.602   6.448  70.430  1.00  0.00    -0.373 A  
BRANCH  35  36
HETATM   36  N   UNL     1     -12.600   7.250  70.875  1.00  0.00    -0.576 NA 
HETATM   37  H   UNL     1     -13.583   6.994  70.778  1.00  0.00     0.000 HD 
HETATM   38  P   UNL     1     -12.139   8.645  71.568  1.00  0.00    -0.347 P  
HETATM   39  O   UNL     1     -13.425   9.026  72.448  1.00  0.00    -0.430 OA 
HETATM   40  O   UNL     1     -11.101   8.299  72.735  1.00  0.00    -0.367 OA 
HETATM   41  O   UNL     1     -11.703   9.782  70.705  1.00  0.00    -0.286 OA 
ENDBRANCH  35  36
ENDBRANCH  30  31
BRANCH  30  42
HETATM   42  N   UNL     1      -9.501   3.644  67.638  1.00  0.00    -0.198 NA 
HETATM   43  H   UNL     1     -10.289   3.089  67.304  1.00  0.00     0.000 HD 
BRANCH  42  44
HETATM   44  O   UNL     1      -8.238   3.096  67.909  1.00  0.00    -0.077 OA 
BRANCH  44  45
HETATM   45  C   UNL     1      -7.925   2.155  66.879  1.00  0.00    -0.072 C  
HETATM   46  C   UNL     1      -7.194   2.872  65.760  1.00  0.00    -0.066 C  
ENDBRANCH  44  45
ENDBRANCH  42  44
ENDBRANCH  30  42
ENDBRANCH  28  30
ENDBRANCH   6  26
TORSDOF 10
ENDMDL
MODEL       28
REMARK 921   NORMALIZED FREE ENERGY PREDICTED BY IDOCK:   -5.53 KCAL/MOL
REMARK 922        TOTAL FREE ENERGY PREDICTED BY IDOCK:  -10.57 KCAL/MOL
REMARK 923 INTER-LIGAND FREE ENERGY PREDICTED BY IDOCK:   -8.86 KCAL/MOL
REMARK 924 INTRA-LIGAND FREE ENERGY PREDICTED BY IDOCK:   -1.72 KCAL/MOL
REMARK 927      BINDING AFFINITY PREDICTED BY RF-SCORE:    0.00 PKD
ROOT
HETATM    1  C   UNL     1     -11.217  10.927  66.966  1.00  0.00    -0.137 C  
HETATM    2  S   UNL     1     -10.569  11.248  68.618  1.00  0.00    -0.211 SA 
HETATM    3  C   UNL     1     -11.264  12.903  68.784  1.00  0.00    -0.279 C  
HETATM    4  C   UNL     1     -11.421  13.755  67.529  1.00  0.00    -0.330 C  
HETATM    5  CA  UNL     1     -11.174  13.309  66.270  1.00  0.00    -0.299 C  
HETATM    6  CA  UNL     1     -10.380   9.977  66.044  1.00  0.00    -0.152 C  
HETATM    7  O   UNL     1      -9.691  11.467  64.079  1.00  0.00    -0.242 OA 
HETATM    8  C   UNL     1     -11.299  14.206  64.980  1.00  0.00    -0.350 C  
HETATM    9  N   UNL     1     -10.805  12.001  66.098  1.00  0.00    -0.275 N  
HETATM   10  C   UNL     1     -10.234  11.246  65.135  1.00  0.00    -0.289 C  
HETATM   11  O   UNL     1     -12.029  13.690  64.073  1.00  0.00    -0.437 OA 
HETATM   12  OXT UNL     1     -10.730  15.330  65.010  1.00  0.00    -0.400 OA 
ENDROOT
BRANCH   4  13
HETATM   13  S   UNL     1     -11.728  15.431  67.968  1.00  0.00    -0.113 SA 
BRANCH  13  14
HETATM   14  C   UNL     1     -10.140  16.139  68.112  1.00  0.00    -0.237 A  
HETATM   15  N   UNL     1      -9.688  17.169  67.428  1.00  0.00    -0.249 NA 
HETATM   16  C   UNL     1      -8.354  17.378  67.737  1.00  0.00    -0.218 A  
HETATM   17  S   UNL     1      -9.067  15.529  69.315  1.00  0.00    -0.270 SA 
HETATM   18  C   UNL     1      -7.861  16.608  68.772  1.00  0.00    -0.238 A  
BRANCH  16  19
HETATM   19  C   UNL     1      -7.551  18.347  67.010  1.00  0.00    -0.233 A  
HETATM   20  C   UNL     1      -7.405  19.660  67.457  1.00  0.00    -0.284 A  
HETATM   21  C   UNL     1      -6.650  20.556  66.713  1.00  0.00    -0.249 A  
HETATM   22  C   UNL     1      -5.296  21.147  64.766  1.00  0.00    -0.197 C  
HETATM   23  N   UNL     1      -6.053  20.173  65.565  1.00  0.00    -0.193 NA 
HETATM   24  C   UNL     1      -6.903  17.968  65.836  1.00  0.00    -0.332 A  
HETATM   25  C   UNL     1      -6.153  18.894  65.130  1.00  0.00    -0.282 A  
ENDBRANCH  16  19
ENDBRANCH  13  14
ENDBRANCH   4  13
BRANCH   6  26
HETATM   26  N   UNL     1      -9.085   9.423  66.556  1.00  0.00    -0.147 N  
HETATM   27  H   UNL     1      -8.355  10.063  66.868  1.00  0.00     0.000 HD 
HETATM   28  C   UNL     1      -8.862   8.062  66.612  1.00  0.00    -0.145 C  
HETATM   29  O   UNL     1      -9.624   7.237  66.122  1.00  0.00    -0.090 OA 
BRANCH  28  30
HETATM   30  C   UNL     1      -7.593   7.596  67.334  1.00  0.00    -0.109 C  
BRANCH  30  31
HETATM   31  C   UNL     1      -7.732   6.883  68.612  1.00  0.00    -0.113 A  
HETATM   32  S   UNL     1      -7.521   5.188  70.336  1.00  0.00    -0.068 SA 
HETATM   33  N   UNL     1      -8.427   7.452  69.706  1.00  0.00    -0.135 NA 
HETATM   34  N   UNL     1      -7.163   5.683  68.796  1.00  0.00    -0.079 NA 
HETATM   35  C   UNL     1      -8.400   6.615  70.719  1.00  0.00    -0.129 A  
BRANCH  35  36
HETATM   36  N   UNL     1      -8.957   6.811  71.940  1.00  0.00    -0.136 NA 
HETATM   37  H   UNL     1      -8.555   7.456  72.619  1.00  0.00     0.000 HD 
HETATM   38  P   UNL     1     -10.301   5.956  72.256  1.00  0.00    -0.213 P  
HETATM   39  O   UNL     1     -10.976   6.812  73.434  1.00  0.00    -0.266 OA 
HETATM   40  O   UNL     1     -11.352   6.231  71.081  1.00  0.00    -0.294 OA 
HETATM   41  O   UNL     1     -10.183   4.513  72.618  1.00  0.00    -0.167 OA 
ENDBRANCH  35  36
ENDBRANCH  30  31
BRANCH  30  42
HETATM   42  N   UNL     1      -6.372   7.784  66.908  1.00  0.00    -0.053 NA 
HETATM   43  H   UNL     1      -5.717   7.021  66.736  1.00  0.00     0.000 HD 
BRANCH  42  44
HETATM   44  O   UNL     1      -6.047   9.134  66.709  1.00  0.00    -0.061 OA 
BRANCH  44  45
HETATM   45  C   UNL     1      -5.302   9.243  65.493  1.00  0.00    -0.037 C  
HETATM   46  C   UNL     1      -6.186   9.860  64.425  1.00  0.00    -0.122 C  
ENDBRANCH  44  45
ENDBRANCH  42  44
ENDBRANCH  30  42
ENDBRANCH  28  30
ENDBRANCH   6  26
TORSDOF 10
ENDMDL
MODEL       29
REMARK 921   NORMALIZED FREE ENERGY PREDICTED BY IDOCK:   -5.52 KCAL/MOL
REMARK 922        TOTAL FREE ENERGY PREDICTED BY IDOCK:  -10.56 KCAL/MOL
REMARK 923 INTER-LIGAND FREE ENERGY PREDICTED BY IDOCK:   -8.86 KCAL/MOL
REMARK 924 INTRA-LIGAND FREE ENERGY PREDICTED BY IDOCK:   -1.70 KCAL/MOL
REMARK 927      BINDING AFFINITY PREDICTED BY RF-SCORE:    0.00 PKD
ROOT
HETATM    1  C   UNL     1     -10.402   8.491  70.141  1.00  0.00    -0.207 C  
HETATM    2  S   UNL     1     -10.814   7.275  68.875  1.00  0.00    -0.025 SA 
HETATM    3  C   UNL     1     -10.461   5.819  69.879  1.00  0.00    -0.290 C  
HETATM    4  C   UNL     1      -9.364   5.912  70.934  1.00  0.00    -0.161 C  
HETATM    5  CA  UNL     1      -8.706   7.057  71.249  1.00  0.00    -0.130 C  
HETATM    6  CA  UNL     1      -9.849   9.872  69.650  1.00  0.00    -0.232 C  
HETATM    7  O   UNL     1      -7.480   9.972  70.617  1.00  0.00    -0.302 OA 
HETATM    8  C   UNL     1      -7.545   7.140  72.313  1.00  0.00    -0.089 C  
HETATM    9  N   UNL     1      -9.071   8.219  70.620  1.00  0.00    -0.148 N  
HETATM   10  C   UNL     1      -8.552   9.450  70.424  1.00  0.00    -0.230 C  
HETATM   11  O   UNL     1      -7.727   8.044  73.191  1.00  0.00    -0.129 OA 
HETATM   12  OXT UNL     1      -6.622   6.288  72.216  1.00  0.00    -0.060 OA 
ENDROOT
BRANCH   4  13
HETATM   13  S   UNL     1      -8.925   4.304  71.497  1.00  0.00    -0.123 SA 
BRANCH  13  14
HETATM   14  C   UNL     1      -8.870   3.338  70.045  1.00  0.00    -0.087 A  
HETATM   15  N   UNL     1      -8.491   3.752  68.854  1.00  0.00    -0.076 NA 
HETATM   16  C   UNL     1      -8.679   2.736  67.932  1.00  0.00    -0.106 A  
HETATM   17  S   UNL     1      -9.242   1.658  70.154  1.00  0.00    -0.099 SA 
HETATM   18  C   UNL     1      -9.042   1.514  68.465  1.00  0.00    -0.136 A  
BRANCH  16  19
HETATM   19  C   UNL     1      -8.499   2.964  66.508  1.00  0.00    -0.101 A  
HETATM   20  C   UNL     1      -7.718   4.015  66.028  1.00  0.00    -0.090 A  
HETATM   21  C   UNL     1      -7.599   4.208  64.658  1.00  0.00    -0.077 A  
HETATM   22  C   UNL     1      -8.127   3.639  62.340  1.00  0.00    -0.071 C  
HETATM   23  N   UNL     1      -8.226   3.391  63.786  1.00  0.00    -0.089 NA 
HETATM   24  C   UNL     1      -9.116   2.118  65.587  1.00  0.00    -0.080 A  
HETATM   25  C   UNL     1      -8.962   2.344  64.229  1.00  0.00    -0.106 A  
ENDBRANCH  16  19
ENDBRANCH  13  14
ENDBRANCH   4  13
BRANCH   6  26
HETATM   26  N   UNL     1      -9.655  10.097  68.181  1.00  0.00    -0.138 N  
HETATM   27  H   UNL     1      -8.750   9.891  67.758  1.00  0.00     0.000 HD 
HETATM   28  C   UNL     1     -10.679  10.577  67.390  1.00  0.00    -0.281 C  
HETATM   29  O   UNL     1     -11.742  10.986  67.843  1.00  0.00    -0.551 OA 
BRANCH  28  30
HETATM   30  C   UNL     1     -10.442  10.582  65.876  1.00  0.00    -0.153 C  
BRANCH  30  31
HETATM   31  C   UNL     1     -10.882  11.750  65.099  1.00  0.00    -0.297 A  
HETATM   32  S   UNL     1     -12.069  13.135  63.498  1.00  0.00    -0.433 SA 
HETATM   33  N   UNL     1     -10.363  13.044  65.349  1.00  0.00    -0.296 NA 
HETATM   34  N   UNL     1     -11.827  11.634  64.155  1.00  0.00    -0.238 NA 
HETATM   35  C   UNL     1     -10.922  13.901  64.525  1.00  0.00    -0.369 A  
BRANCH  35  36
HETATM   36  N   UNL     1     -10.681  15.234  64.464  1.00  0.00    -0.594 NA 
HETATM   37  H   UNL     1     -10.752  15.757  63.591  1.00  0.00     0.000 HD 
HETATM   38  P   UNL     1     -10.271  15.949  65.864  1.00  0.00    -0.390 P  
HETATM   39  O   UNL     1     -10.627  17.486  65.575  1.00  0.00    -0.612 OA 
HETATM   40  O   UNL     1     -11.398  15.605  66.945  1.00  0.00    -0.185 OA 
HETATM   41  O   UNL     1      -8.881  15.792  66.386  1.00  0.00    -0.282 OA 
ENDBRANCH  35  36
ENDBRANCH  30  31
BRANCH  30  42
HETATM   42  N   UNL     1      -9.878   9.618  65.199  1.00  0.00    -0.435 NA 
HETATM   43  H   UNL     1     -10.392   9.005  64.566  1.00  0.00     0.000 HD 
BRANCH  42  44
HETATM   44  O   UNL     1      -8.498   9.506  65.423  1.00  0.00    -0.134 OA 
BRANCH  44  45
HETATM   45  C   UNL     1      -8.077   8.207  64.999  1.00  0.00    -0.155 C  
HETATM   46  C   UNL     1      -7.168   7.612  66.059  1.00  0.00    -0.070 C  
ENDBRANCH  44  45
ENDBRANCH  42  44
ENDBRANCH  30  42
ENDBRANCH  28  30
ENDBRANCH   6  26
TORSDOF 10
ENDMDL
MODEL       30
REMARK 921   NORMALIZED FREE ENERGY PREDICTED BY IDOCK:   -5.51 KCAL/MOL
REMARK 922        TOTAL FREE ENERGY PREDICTED BY IDOCK:  -10.54 KCAL/MOL
REMARK 923 INTER-LIGAND FREE ENERGY PREDICTED BY IDOCK:   -8.80 KCAL/MOL
REMARK 924 INTRA-LIGAND FREE ENERGY PREDICTED BY IDOCK:   -1.74 KCAL/MOL
REMARK 927      BINDING AFFINITY PREDICTED BY RF-SCORE:    0.00 PKD
ROOT
HETATM    1  C   UNL     1     -10.779  10.714  66.157  1.00  0.00    -0.076 C  
HETATM    2  S   UNL     1      -9.981  11.079  67.732  1.00  0.00    -0.177 SA 
HETATM    3  C   UNL     1     -11.006  12.503  68.146  1.00  0.00    -0.228 C  
HETATM    4  C   UNL     1     -11.542  13.368  67.010  1.00  0.00    -0.356 C  
HETATM    5  CA  UNL     1     -11.392  13.074  65.694  1.00  0.00    -0.301 C  
HETATM    6  CA  UNL     1      -9.895  10.054  65.046  1.00  0.00    -0.304 C  
HETATM    7  O   UNL     1      -9.871  11.784  63.159  1.00  0.00    -0.409 OA 
HETATM    8  C   UNL     1     -11.913  13.992  64.522  1.00  0.00    -0.448 C  
HETATM    9  N   UNL     1     -10.762  11.907  65.349  1.00  0.00    -0.275 N  
HETATM   10  C   UNL     1     -10.184  11.374  64.252  1.00  0.00    -0.315 C  
HETATM   11  O   UNL     1     -12.632  13.372  63.674  1.00  0.00    -0.718 OA 
HETATM   12  OXT UNL     1     -11.620  15.216  64.585  1.00  0.00    -0.404 OA 
ENDROOT
BRANCH   4  13
HETATM   13  S   UNL     1     -12.158  14.890  67.644  1.00  0.00     0.146 SA 
BRANCH  13  14
HETATM   14  C   UNL     1     -10.733  15.869  67.878  1.00  0.00    -0.312 A  
HETATM   15  N   UNL     1     -10.256  16.755  67.029  1.00  0.00    -0.287 NA 
HETATM   16  C   UNL     1      -9.058  17.257  67.513  1.00  0.00    -0.223 A  
HETATM   17  S   UNL     1      -9.899  15.773  69.385  1.00  0.00    -0.292 SA 
HETATM   18  C   UNL     1      -8.730  16.868  68.796  1.00  0.00    -0.248 A  
BRANCH  16  19
HETATM   19  C   UNL     1      -8.225  18.134  66.706  1.00  0.00    -0.270 A  
HETATM   20  C   UNL     1      -7.069  17.671  66.078  1.00  0.00    -0.318 A  
HETATM   21  C   UNL     1      -6.291  18.552  65.340  1.00  0.00    -0.271 A  
HETATM   22  C   UNL     1      -5.780  20.781  64.475  1.00  0.00    -0.245 C  
HETATM   23  N   UNL     1      -6.641  19.851  65.221  1.00  0.00    -0.277 NA 
HETATM   24  C   UNL     1      -8.579  19.472  66.546  1.00  0.00    -0.374 A  
HETATM   25  C   UNL     1      -7.776  20.314  65.794  1.00  0.00    -0.107 A  
ENDBRANCH  16  19
ENDBRANCH  13  14
ENDBRANCH   4  13
BRANCH   6  26
HETATM   26  N   UNL     1      -8.445   9.798  65.327  1.00  0.00    -0.137 N  
HETATM   27  H   UNL     1      -7.785  10.575  65.298  1.00  0.00     0.000 HD 
HETATM   28  C   UNL     1      -7.987   8.530  65.624  1.00  0.00    -0.107 C  
HETATM   29  O   UNL     1      -8.684   7.527  65.535  1.00  0.00    -0.127 OA 
BRANCH  28  30
HETATM   30  C   UNL     1      -6.531   8.410  66.090  1.00  0.00    -0.053 C  
BRANCH  30  31
HETATM   31  C   UNL     1      -6.270   8.074  67.498  1.00  0.00    -0.052 A  
HETATM   32  S   UNL     1      -5.236   8.003  69.692  1.00  0.00    -0.023 SA 
HETATM   33  N   UNL     1      -7.143   7.240  68.236  1.00  0.00    -0.079 NA 
HETATM   34  N   UNL     1      -5.212   8.588  68.143  1.00  0.00    -0.034 NA 
HETATM   35  C   UNL     1      -6.683   7.105  69.459  1.00  0.00    -0.049 A  
BRANCH  35  36
HETATM   36  N   UNL     1      -7.250   6.382  70.456  1.00  0.00    -0.072 NA 
HETATM   37  H   UNL     1      -6.703   5.756  71.048  1.00  0.00     0.000 HD 
HETATM   38  P   UNL     1      -8.851   6.572  70.655  1.00  0.00    -0.144 P  
HETATM   39  O   UNL     1      -9.062   6.090  72.170  1.00  0.00    -0.143 OA 
HETATM   40  O   UNL     1      -9.148   8.135  70.820  1.00  0.00    -0.141 OA 
HETATM   41  O   UNL     1      -9.790   5.886  69.719  1.00  0.00    -0.156 OA 
ENDBRANCH  35  36
ENDBRANCH  30  31
BRANCH  30  42
HETATM   42  N   UNL     1      -5.481   8.589  65.335  1.00  0.00    -0.035 NA 
HETATM   43  H   UNL     1      -4.525   8.485  65.675  1.00  0.00     0.000 HD 
BRANCH  42  44
HETATM   44  O   UNL     1      -5.792   8.935  64.012  1.00  0.00    -0.069 OA 
BRANCH  44  45
HETATM   45  C   UNL     1      -5.324  10.265  63.772  1.00  0.00    -0.135 C  
HETATM   46  C   UNL     1      -5.852  10.740  62.431  1.00  0.00    -0.155 C  
ENDBRANCH  44  45
ENDBRANCH  42  44
ENDBRANCH  30  42
ENDBRANCH  28  30
ENDBRANCH   6  26
TORSDOF 10
ENDMDL
MODEL       31
REMARK 921   NORMALIZED FREE ENERGY PREDICTED BY IDOCK:   -5.35 KCAL/MOL
REMARK 922        TOTAL FREE ENERGY PREDICTED BY IDOCK:  -10.29 KCAL/MOL
REMARK 923 INTER-LIGAND FREE ENERGY PREDICTED BY IDOCK:   -8.64 KCAL/MOL
REMARK 924 INTRA-LIGAND FREE ENERGY PREDICTED BY IDOCK:   -1.64 KCAL/MOL
REMARK 927      BINDING AFFINITY PREDICTED BY RF-SCORE:    0.00 PKD
ROOT
HETATM    1  C   UNL     1      -8.237   7.724  67.745  1.00  0.00    -0.126 C  
HETATM    2  S   UNL     1     -10.012   7.603  68.041  1.00  0.00    -0.183 SA 
HETATM    3  C   UNL     1     -10.508   8.730  66.725  1.00  0.00    -0.213 C  
HETATM    4  C   UNL     1      -9.576   9.882  66.364  1.00  0.00    -0.200 C  
HETATM    5  CA  UNL     1      -8.337  10.053  66.893  1.00  0.00    -0.125 C  
HETATM    6  CA  UNL     1      -7.294   7.536  68.981  1.00  0.00    -0.087 C  
HETATM    7  O   UNL     1      -6.102   9.791  69.202  1.00  0.00    -0.037 OA 
HETATM    8  C   UNL     1      -7.393  11.267  66.545  1.00  0.00    -0.101 C  
HETATM    9  N   UNL     1      -7.864   9.115  67.773  1.00  0.00    -0.100 N  
HETATM   10  C   UNL     1      -6.880   9.020  68.692  1.00  0.00    -0.063 C  
HETATM   11  O   UNL     1      -6.226  10.912  66.180  1.00  0.00    -0.123 OA 
HETATM   12  OXT UNL     1      -7.900  12.418  66.607  1.00  0.00     0.015 OA 
ENDROOT
BRANCH   4  13
HETATM   13  S   UNL     1     -10.422  11.057  65.365  1.00  0.00    -0.209 SA 
BRANCH  13  14
HETATM   14  C   UNL     1     -10.809  12.358  66.461  1.00  0.00    -0.250 A  
HETATM   15  N   UNL     1     -10.651  13.644  66.222  1.00  0.00    -0.286 NA 
HETATM   16  C   UNL     1     -10.968  14.366  67.361  1.00  0.00    -0.299 A  
HETATM   17  S   UNL     1     -11.558  11.978  67.967  1.00  0.00    -0.336 SA 
HETATM   18  C   UNL     1     -11.518  13.631  68.393  1.00  0.00    -0.311 A  
BRANCH  16  19
HETATM   19  C   UNL     1     -10.731  15.798  67.439  1.00  0.00    -0.317 A  
HETATM   20  C   UNL     1     -10.589  16.580  66.293  1.00  0.00    -0.223 A  
HETATM   21  C   UNL     1     -10.336  17.939  66.420  1.00  0.00    -0.365 A  
HETATM   22  C   UNL     1      -9.914  19.945  67.751  1.00  0.00    -0.419 C  
HETATM   23  N   UNL     1     -10.229  18.513  67.637  1.00  0.00    -0.367 NA 
HETATM   24  C   UNL     1     -10.641  16.418  68.684  1.00  0.00    -0.305 A  
HETATM   25  C   UNL     1     -10.396  17.779  68.762  1.00  0.00    -0.332 A  
ENDBRANCH  16  19
ENDBRANCH  13  14
ENDBRANCH   4  13
BRANCH   6  26
HETATM   26  N   UNL     1      -7.902   7.308  70.332  1.00  0.00    -0.098 N  
HETATM   27  H   UNL     1      -8.807   7.723  70.550  1.00  0.00     0.000 HD 
HETATM   28  C   UNL     1      -7.258   6.546  71.286  1.00  0.00    -0.079 C  
HETATM   29  O   UNL     1      -6.110   6.139  71.157  1.00  0.00    -0.032 OA 
BRANCH  28  30
HETATM   30  C   UNL     1      -8.050   6.210  72.555  1.00  0.00    -0.104 C  
BRANCH  30  31
HETATM   31  C   UNL     1      -9.507   6.408  72.547  1.00  0.00    -0.145 A  
HETATM   32  S   UNL     1     -11.888   5.969  72.381  1.00  0.00    -0.136 SA 
HETATM   33  N   UNL     1     -10.085   7.668  72.836  1.00  0.00    -0.258 NA 
HETATM   34  N   UNL     1     -10.340   5.385  72.308  1.00  0.00    -0.202 NA 
HETATM   35  C   UNL     1     -11.393   7.570  72.765  1.00  0.00    -0.336 A  
BRANCH  35  36
HETATM   36  N   UNL     1     -12.288   8.566  72.980  1.00  0.00    -0.485 NA 
HETATM   37  H   UNL     1     -12.460   8.945  73.912  1.00  0.00     0.000 HD 
HETATM   38  P   UNL     1     -13.068   9.121  71.668  1.00  0.00    -0.386 P  
HETATM   39  O   UNL     1     -13.548  10.574  72.150  1.00  0.00    -0.308 OA 
HETATM   40  O   UNL     1     -11.973   9.540  70.580  1.00  0.00    -0.263 OA 
HETATM   41  O   UNL     1     -14.196   8.326  71.098  1.00  0.00    -0.260 OA 
ENDBRANCH  35  36
ENDBRANCH  30  31
BRANCH  30  42
HETATM   42  N   UNL     1      -7.536   5.758  73.667  1.00  0.00    -0.090 NA 
HETATM   43  H   UNL     1      -7.273   6.361  74.446  1.00  0.00     0.000 HD 
BRANCH  42  44
HETATM   44  O   UNL     1      -7.379   4.364  73.689  1.00  0.00    -0.073 OA 
BRANCH  44  45
HETATM   45  C   UNL     1      -6.064   4.066  74.166  1.00  0.00    -0.028 C  
HETATM   46  C   UNL     1      -5.502   2.902  73.371  1.00  0.00     0.000 C  
ENDBRANCH  44  45
ENDBRANCH  42  44
ENDBRANCH  30  42
ENDBRANCH  28  30
ENDBRANCH   6  26
TORSDOF 10
ENDMDL
MODEL       32
REMARK 921   NORMALIZED FREE ENERGY PREDICTED BY IDOCK:   -5.34 KCAL/MOL
REMARK 922        TOTAL FREE ENERGY PREDICTED BY IDOCK:  -10.28 KCAL/MOL
REMARK 923 INTER-LIGAND FREE ENERGY PREDICTED BY IDOCK:   -8.43 KCAL/MOL
REMARK 924 INTRA-LIGAND FREE ENERGY PREDICTED BY IDOCK:   -1.84 KCAL/MOL
REMARK 927      BINDING AFFINITY PREDICTED BY RF-SCORE:    0.00 PKD
ROOT
HETATM    1  C   UNL     1      -8.968   9.247  70.586  1.00  0.00    -0.243 C  
HETATM    2  S   UNL     1      -8.470   8.872  68.894  1.00  0.00    -0.132 SA 
HETATM    3  C   UNL     1      -9.457  10.159  68.108  1.00  0.00    -0.142 C  
HETATM    4  C   UNL     1     -10.780  10.557  68.753  1.00  0.00    -0.216 C  
HETATM    5  CA  UNL     1     -11.217  10.084  69.949  1.00  0.00    -0.275 C  
HETATM    6  CA  UNL     1      -8.995   8.057  71.603  1.00  0.00    -0.150 C  
HETATM    7  O   UNL     1     -11.455   7.880  72.290  1.00  0.00    -0.299 OA 
HETATM    8  C   UNL     1     -12.604  10.468  70.593  1.00  0.00    -0.369 C  
HETATM    9  N   UNL     1     -10.408   9.231  70.652  1.00  0.00    -0.241 N  
HETATM   10  C   UNL     1     -10.531   8.358  71.675  1.00  0.00    -0.252 C  
HETATM   11  O   UNL     1     -12.507  10.888  71.791  1.00  0.00    -0.296 OA 
HETATM   12  OXT UNL     1     -13.619  10.378  69.853  1.00  0.00     0.255 OA 
ENDROOT
BRANCH   4  13
HETATM   13  S   UNL     1     -11.741  11.511  67.630  1.00  0.00    -0.130 SA 
BRANCH  13  14
HETATM   14  C   UNL     1     -11.381  13.166  68.050  1.00  0.00    -0.292 A  
HETATM   15  N   UNL     1     -10.723  14.028  67.303  1.00  0.00    -0.276 NA 
HETATM   16  C   UNL     1     -10.543  15.206  68.009  1.00  0.00    -0.258 A  
HETATM   17  S   UNL     1     -12.009  13.802  69.524  1.00  0.00    -0.342 SA 
HETATM   18  C   UNL     1     -11.208  15.278  69.217  1.00  0.00    -0.284 A  
BRANCH  16  19
HETATM   19  C   UNL     1      -9.707  16.277  67.493  1.00  0.00    -0.234 A  
HETATM   20  C   UNL     1     -10.059  17.618  67.646  1.00  0.00    -0.339 A  
HETATM   21  C   UNL     1      -9.242  18.605  67.111  1.00  0.00    -0.287 A  
HETATM   22  C   UNL     1      -7.283  19.339  65.847  1.00  0.00    -0.282 C  
HETATM   23  N   UNL     1      -8.111  18.283  66.447  1.00  0.00    -0.317 NA 
HETATM   24  C   UNL     1      -8.522  15.971  66.826  1.00  0.00    -0.295 A  
HETATM   25  C   UNL     1      -7.734  16.989  66.316  1.00  0.00    -0.311 A  
ENDBRANCH  16  19
ENDBRANCH  13  14
ENDBRANCH   4  13
BRANCH   6  26
HETATM   26  N   UNL     1      -8.648   6.680  71.121  1.00  0.00    -0.129 N  
HETATM   27  H   UNL     1      -8.346   6.550  70.156  1.00  0.00     0.000 HD 
HETATM   28  C   UNL     1      -8.732   5.587  71.959  1.00  0.00    -0.131 C  
HETATM   29  O   UNL     1      -9.224   5.637  73.079  1.00  0.00    -0.137 OA 
BRANCH  28  30
HETATM   30  C   UNL     1      -8.167   4.264  71.430  1.00  0.00    -0.083 C  
BRANCH  30  31
HETATM   31  C   UNL     1      -8.101   4.059  69.975  1.00  0.00    -0.057 A  
HETATM   32  S   UNL     1      -7.225   3.757  67.732  1.00  0.00    -0.063 SA 
HETATM   33  N   UNL     1      -9.269   3.874  69.198  1.00  0.00    -0.142 NA 
HETATM   34  N   UNL     1      -6.920   3.997  69.342  1.00  0.00    -0.045 NA 
HETATM   35  C   UNL     1      -8.931   3.711  67.939  1.00  0.00    -0.131 A  
BRANCH  35  36
HETATM   36  N   UNL     1      -9.776   3.504  66.899  1.00  0.00    -0.384 NA 
HETATM   37  H   UNL     1     -10.325   2.649  66.811  1.00  0.00     0.000 HD 
HETATM   38  P   UNL     1      -9.862   4.698  65.802  1.00  0.00    -0.214 P  
HETATM   39  O   UNL     1     -11.279   4.415  65.105  1.00  0.00    -0.192 OA 
HETATM   40  O   UNL     1     -10.203   6.057  66.573  1.00  0.00    -0.181 OA 
HETATM   41  O   UNL     1      -8.770   4.847  64.795  1.00  0.00    -0.148 OA 
ENDBRANCH  35  36
ENDBRANCH  30  31
BRANCH  30  42
HETATM   42  N   UNL     1      -7.736   3.279  72.171  1.00  0.00    -0.057 NA 
HETATM   43  H   UNL     1      -7.032   3.396  72.900  1.00  0.00     0.000 HD 
BRANCH  42  44
HETATM   44  O   UNL     1      -8.332   2.045  71.871  1.00  0.00    -0.051 OA 
BRANCH  44  45
HETATM   45  C   UNL     1      -9.203   1.691  72.949  1.00  0.00    -0.065 C  
HETATM   46  C   UNL     1     -10.565   2.314  72.709  1.00  0.00    -0.213 C  
ENDBRANCH  44  45
ENDBRANCH  42  44
ENDBRANCH  30  42
ENDBRANCH  28  30
ENDBRANCH   6  26
TORSDOF 10
ENDMDL
MODEL       33
REMARK 921   NORMALIZED FREE ENERGY PREDICTED BY IDOCK:   -5.26 KCAL/MOL
REMARK 922        TOTAL FREE ENERGY PREDICTED BY IDOCK:  -10.15 KCAL/MOL
REMARK 923 INTER-LIGAND FREE ENERGY PREDICTED BY IDOCK:   -9.11 KCAL/MOL
REMARK 924 INTRA-LIGAND FREE ENERGY PREDICTED BY IDOCK:   -1.04 KCAL/MOL
REMARK 927      BINDING AFFINITY PREDICTED BY RF-SCORE:    0.00 PKD
ROOT
HETATM    1  C   UNL     1     -11.958  11.042  68.331  1.00  0.00    -0.086 C  
HETATM    2  S   UNL     1     -11.538  11.583  70.000  1.00  0.00    -0.241 SA 
HETATM    3  C   UNL     1     -11.959  13.319  69.756  1.00  0.00    -0.324 C  
HETATM    4  C   UNL     1     -11.764  13.927  68.371  1.00  0.00    -0.356 C  
HETATM    5  CA  UNL     1     -11.399  13.217  67.273  1.00  0.00    -0.314 C  
HETATM    6  CA  UNL     1     -11.158   9.827  67.753  1.00  0.00    -0.075 C  
HETATM    7  O   UNL     1      -9.919  10.801  65.735  1.00  0.00    -0.228 OA 
HETATM    8  C   UNL     1     -11.160  13.858  65.852  1.00  0.00    -0.291 C  
HETATM    9  N   UNL     1     -11.235  11.862  67.391  1.00  0.00    -0.284 N  
HETATM   10  C   UNL     1     -10.654  10.865  66.691  1.00  0.00    -0.249 C  
HETATM   11  O   UNL     1     -11.812  13.282  64.922  1.00  0.00    -0.334 OA 
HETATM   12  OXT UNL     1     -10.420  14.876  65.804  1.00  0.00    -0.293 OA 
ENDROOT
BRANCH   4  13
HETATM   13  S   UNL     1     -11.849  15.682  68.462  1.00  0.00    -0.120 SA 
BRANCH  13  14
HETATM   14  C   UNL     1     -10.183  16.199  68.396  1.00  0.00    -0.240 A  
HETATM   15  N   UNL     1      -9.722  17.240  67.734  1.00  0.00    -0.264 NA 
HETATM   16  C   UNL     1      -8.341  17.272  67.832  1.00  0.00    -0.220 A  
HETATM   17  S   UNL     1      -9.016  15.358  69.347  1.00  0.00    -0.222 SA 
HETATM   18  C   UNL     1      -7.788  16.353  68.701  1.00  0.00    -0.211 A  
BRANCH  16  19
HETATM   19  C   UNL     1      -7.550  18.220  67.063  1.00  0.00    -0.234 A  
HETATM   20  C   UNL     1      -6.682  17.801  66.056  1.00  0.00    -0.316 A  
HETATM   21  C   UNL     1      -5.927  18.742  65.368  1.00  0.00    -0.243 A  
HETATM   22  C   UNL     1      -5.186  21.034  64.954  1.00  0.00    -0.204 C  
HETATM   23  N   UNL     1      -6.027  20.057  65.660  1.00  0.00    -0.177 NA 
HETATM   24  C   UNL     1      -7.655  19.584  67.328  1.00  0.00    -0.275 A  
HETATM   25  C   UNL     1      -6.888  20.488  66.611  1.00  0.00    -0.264 A  
ENDBRANCH  16  19
ENDBRANCH  13  14
ENDBRANCH   4  13
BRANCH   6  26
HETATM   26  N   UNL     1     -10.075   9.207  68.584  1.00  0.00    -0.188 N  
HETATM   27  H   UNL     1      -9.290   9.781  68.893  1.00  0.00     0.000 HD 
HETATM   28  C   UNL     1     -10.121   7.874  68.940  1.00  0.00    -0.197 C  
HETATM   29  O   UNL     1     -10.946   7.088  68.489  1.00  0.00    -0.166 OA 
BRANCH  28  30
HETATM   30  C   UNL     1      -9.077   7.390  69.952  1.00  0.00    -0.141 C  
BRANCH  30  31
HETATM   31  C   UNL     1      -9.527   7.011  71.299  1.00  0.00    -0.164 A  
HETATM   32  S   UNL     1      -9.982   7.094  73.681  1.00  0.00    -0.341 SA 
HETATM   33  N   UNL     1     -10.195   5.786  71.540  1.00  0.00    -0.196 NA 
HETATM   34  N   UNL     1      -9.359   7.839  72.340  1.00  0.00    -0.155 NA 
HETATM   35  C   UNL     1     -10.489   5.697  72.817  1.00  0.00    -0.211 A  
BRANCH  35  36
HETATM   36  N   UNL     1     -11.131   4.669  73.425  1.00  0.00    -0.314 NA 
HETATM   37  H   UNL     1     -12.049   4.784  73.855  1.00  0.00     0.000 HD 
HETATM   38  P   UNL     1     -10.353   3.243  73.429  1.00  0.00    -0.188 P  
HETATM   39  O   UNL     1     -11.552   2.204  73.663  1.00  0.00    -0.218 OA 
HETATM   40  O   UNL     1      -9.969   2.884  71.919  1.00  0.00    -0.170 OA 
HETATM   41  O   UNL     1      -9.234   3.023  74.393  1.00  0.00    -0.081 OA 
ENDBRANCH  35  36
ENDBRANCH  30  31
BRANCH  30  42
HETATM   42  N   UNL     1      -7.795   7.287  69.721  1.00  0.00    -0.114 NA 
HETATM   43  H   UNL     1      -7.269   6.426  69.869  1.00  0.00     0.000 HD 
BRANCH  42  44
HETATM   44  O   UNL     1      -7.211   8.472  69.251  1.00  0.00    -0.061 OA 
BRANCH  44  45
HETATM   45  C   UNL     1      -6.666   8.221  67.953  1.00  0.00    -0.065 C  
HETATM   46  C   UNL     1      -6.516   9.539  67.216  1.00  0.00    -0.070 C  
ENDBRANCH  44  45
ENDBRANCH  42  44
ENDBRANCH  30  42
ENDBRANCH  28  30
ENDBRANCH   6  26
TORSDOF 10
ENDMDL
MODEL       34
REMARK 921   NORMALIZED FREE ENERGY PREDICTED BY IDOCK:   -5.09 KCAL/MOL
REMARK 922        TOTAL FREE ENERGY PREDICTED BY IDOCK:   -9.88 KCAL/MOL
REMARK 923 INTER-LIGAND FREE ENERGY PREDICTED BY IDOCK:   -9.10 KCAL/MOL
REMARK 924 INTRA-LIGAND FREE ENERGY PREDICTED BY IDOCK:   -0.78 KCAL/MOL
REMARK 927      BINDING AFFINITY PREDICTED BY RF-SCORE:    0.00 PKD
ROOT
HETATM    1  C   UNL     1     -11.246  10.156  67.504  1.00  0.00    -0.047 C  
HETATM    2  S   UNL     1     -10.944  11.017  69.059  1.00  0.00    -0.253 SA 
HETATM    3  C   UNL     1     -11.642  12.599  68.547  1.00  0.00    -0.323 C  
HETATM    4  C   UNL     1     -11.530  13.001  67.080  1.00  0.00    -0.331 C  
HETATM    5  CA  UNL     1     -11.038  12.196  66.105  1.00  0.00    -0.312 C  
HETATM    6  CA  UNL     1     -10.249   9.012  67.118  1.00  0.00    -0.265 C  
HETATM    7  O   UNL     1      -9.158   9.841  64.955  1.00  0.00    -0.198 OA 
HETATM    8  C   UNL     1     -10.888  12.631  64.597  1.00  0.00    -0.319 C  
HETATM    9  N   UNL     1     -10.655  10.922  66.436  1.00  0.00    -0.250 N  
HETATM   10  C   UNL     1      -9.908   9.935  65.897  1.00  0.00    -0.274 C  
HETATM   11  O   UNL     1     -11.423  11.815  63.779  1.00  0.00    -0.397 OA 
HETATM   12  OXT UNL     1     -10.325  13.737  64.377  1.00  0.00    -0.415 OA 
ENDROOT
BRANCH   4  13
HETATM   13  S   UNL     1     -11.903  14.710  66.890  1.00  0.00    -0.256 SA 
BRANCH  13  14
HETATM   14  C   UNL     1     -10.540  15.533  67.604  1.00  0.00    -0.291 A  
HETATM   15  N   UNL     1     -10.010  16.662  67.182  1.00  0.00    -0.262 NA 
HETATM   16  C   UNL     1      -8.883  16.951  67.933  1.00  0.00    -0.218 A  
HETATM   17  S   UNL     1      -9.855  14.897  69.053  1.00  0.00    -0.199 SA 
HETATM   18  C   UNL     1      -8.669  16.125  69.019  1.00  0.00    -0.254 A  
BRANCH  16  19
HETATM   19  C   UNL     1      -8.003  18.054  67.584  1.00  0.00    -0.221 A  
HETATM   20  C   UNL     1      -7.174  18.657  68.529  1.00  0.00    -0.314 A  
HETATM   21  C   UNL     1      -6.372  19.726  68.153  1.00  0.00    -0.242 A  
HETATM   22  C   UNL     1      -5.560  21.348  66.515  1.00  0.00    -0.291 C  
HETATM   23  N   UNL     1      -6.381  20.186  66.884  1.00  0.00    -0.187 NA 
HETATM   24  C   UNL     1      -7.976  18.530  66.274  1.00  0.00    -0.273 A  
HETATM   25  C   UNL     1      -7.153  19.594  65.942  1.00  0.00    -0.292 A  
ENDBRANCH  16  19
ENDBRANCH  13  14
ENDBRANCH   4  13
BRANCH   6  26
HETATM   26  N   UNL     1      -9.091   8.720  68.024  1.00  0.00    -0.140 N  
HETATM   27  H   UNL     1      -8.901   9.342  68.809  1.00  0.00     0.000 HD 
HETATM   28  C   UNL     1      -8.277   7.625  67.813  1.00  0.00    -0.119 C  
HETATM   29  O   UNL     1      -8.348   6.919  66.815  1.00  0.00    -0.112 OA 
BRANCH  28  30
HETATM   30  C   UNL     1      -7.250   7.305  68.905  1.00  0.00    -0.090 C  
BRANCH  30  31
HETATM   31  C   UNL     1      -7.575   7.646  70.298  1.00  0.00    -0.089 A  
HETATM   32  S   UNL     1      -7.334   8.279  72.628  1.00  0.00    -0.079 SA 
HETATM   33  N   UNL     1      -8.915   7.721  70.749  1.00  0.00    -0.147 NA 
HETATM   34  N   UNL     1      -6.608   7.945  71.178  1.00  0.00    -0.037 NA 
HETATM   35  C   UNL     1      -8.926   8.046  72.022  1.00  0.00    -0.156 A  
BRANCH  35  36
HETATM   36  N   UNL     1     -10.023   8.214  72.801  1.00  0.00    -0.290 NA 
HETATM   37  H   UNL     1      -9.997   8.764  73.660  1.00  0.00     0.000 HD 
HETATM   38  P   UNL     1     -11.382   7.488  72.286  1.00  0.00    -0.327 P  
HETATM   39  O   UNL     1     -12.521   8.325  73.043  1.00  0.00    -0.172 OA 
HETATM   40  O   UNL     1     -11.653   7.954  70.780  1.00  0.00    -0.285 OA 
HETATM   41  O   UNL     1     -11.548   6.018  72.489  1.00  0.00    -0.295 OA 
ENDBRANCH  35  36
ENDBRANCH  30  31
BRANCH  30  42
HETATM   42  N   UNL     1      -6.086   6.748  68.705  1.00  0.00    -0.025 NA 
HETATM   43  H   UNL     1      -5.204   7.256  68.782  1.00  0.00     0.000 HD 
BRANCH  42  44
HETATM   44  O   UNL     1      -6.161   5.388  68.373  1.00  0.00    -0.028 OA 
BRANCH  44  45
HETATM   45  C   UNL     1      -5.190   5.116  67.360  1.00  0.00    -0.008 C  
HETATM   46  C   UNL     1      -5.906   4.741  66.076  1.00  0.00    -0.022 C  
ENDBRANCH  44  45
ENDBRANCH  42  44
ENDBRANCH  30  42
ENDBRANCH  28  30
ENDBRANCH   6  26
TORSDOF 10
ENDMDL
MODEL       35
REMARK 921   NORMALIZED FREE ENERGY PREDICTED BY IDOCK:   -5.06 KCAL/MOL
REMARK 922        TOTAL FREE ENERGY PREDICTED BY IDOCK:   -9.83 KCAL/MOL
REMARK 923 INTER-LIGAND FREE ENERGY PREDICTED BY IDOCK:   -9.54 KCAL/MOL
REMARK 924 INTRA-LIGAND FREE ENERGY PREDICTED BY IDOCK:   -0.29 KCAL/MOL
REMARK 927      BINDING AFFINITY PREDICTED BY RF-SCORE:    0.00 PKD
ROOT
HETATM    1  C   UNL     1      -6.838   7.759  68.916  1.00  0.00    -0.058 C  
HETATM    2  S   UNL     1      -7.791   9.267  69.177  1.00  0.00    -0.088 SA 
HETATM    3  C   UNL     1      -8.596   8.731  70.698  1.00  0.00    -0.178 C  
HETATM    4  C   UNL     1      -8.901   7.247  70.875  1.00  0.00    -0.149 C  
HETATM    5  CA  UNL     1      -8.505   6.280  70.008  1.00  0.00    -0.134 C  
HETATM    6  CA  UNL     1      -6.511   7.369  67.435  1.00  0.00    -0.060 C  
HETATM    7  O   UNL     1      -7.709   5.131  67.103  1.00  0.00    -0.091 OA 
HETATM    8  C   UNL     1      -8.857   4.752  70.175  1.00  0.00    -0.094 C  
HETATM    9  N   UNL     1      -7.744   6.639  68.927  1.00  0.00    -0.107 N  
HETATM   10  C   UNL     1      -7.382   6.102  67.742  1.00  0.00    -0.084 C  
HETATM   11  O   UNL     1      -7.839   3.989  70.117  1.00  0.00    -0.048 OA 
HETATM   12  OXT UNL     1     -10.063   4.468  70.402  1.00  0.00    -0.224 OA 
ENDROOT
BRANCH   4  13
HETATM   13  S   UNL     1     -10.021   7.013  72.211  1.00  0.00    -0.172 SA 
BRANCH  13  14
HETATM   14  C   UNL     1     -11.331   8.115  71.876  1.00  0.00    -0.296 A  
HETATM   15  N   UNL     1     -11.220   9.413  71.681  1.00  0.00    -0.382 NA 
HETATM   16  C   UNL     1     -12.482   9.968  71.547  1.00  0.00    -0.419 A  
HETATM   17  S   UNL     1     -12.921   7.477  71.676  1.00  0.00    -0.340 SA 
HETATM   18  C   UNL     1     -13.522   9.062  71.478  1.00  0.00    -0.342 A  
BRANCH  16  19
HETATM   19  C   UNL     1     -12.672  11.408  71.484  1.00  0.00    -0.462 A  
HETATM   20  C   UNL     1     -13.416  12.091  72.445  1.00  0.00    -0.045 A  
HETATM   21  C   UNL     1     -13.592  13.463  72.327  1.00  0.00    -0.605 A  
HETATM   22  C   UNL     1     -13.285  15.589  71.160  1.00  0.00    -0.507 C  
HETATM   23  N   UNL     1     -13.049  14.144  71.295  1.00  0.00    -0.347 NA 
HETATM   24  C   UNL     1     -12.100  12.137  70.443  1.00  0.00    -0.395 A  
HETATM   25  C   UNL     1     -12.295  13.506  70.369  1.00  0.00    -0.327 A  
ENDBRANCH  16  19
ENDBRANCH  13  14
ENDBRANCH   4  13
BRANCH   6  26
HETATM   26  N   UNL     1      -7.031   8.231  66.324  1.00  0.00    -0.065 N  
HETATM   27  H   UNL     1      -6.386   8.835  65.816  1.00  0.00     0.000 HD 
HETATM   28  C   UNL     1      -8.367   8.223  65.978  1.00  0.00    -0.128 C  
HETATM   29  O   UNL     1      -9.225   7.642  66.631  1.00  0.00    -0.153 OA 
BRANCH  28  30
HETATM   30  C   UNL     1      -8.758   8.984  64.706  1.00  0.00    -0.153 C  
BRANCH  30  31
HETATM   31  C   UNL     1      -9.527  10.230  64.842  1.00  0.00    -0.279 A  
HETATM   32  S   UNL     1     -10.991  12.097  64.333  1.00  0.00    -0.353 SA 
HETATM   33  N   UNL     1      -9.551  10.958  66.056  1.00  0.00    -0.200 NA 
HETATM   34  N   UNL     1     -10.271  10.694  63.827  1.00  0.00    -0.277 NA 
HETATM   35  C   UNL     1     -10.310  12.020  65.909  1.00  0.00    -0.244 A  
BRANCH  35  36
HETATM   36  N   UNL     1     -10.576  12.956  66.854  1.00  0.00    -0.252 NA 
HETATM   37  H   UNL     1     -11.315  12.830  67.545  1.00  0.00     0.000 HD 
HETATM   38  P   UNL     1      -9.649  14.289  66.819  1.00  0.00    -0.299 P  
HETATM   39  O   UNL     1      -9.810  14.852  68.312  1.00  0.00    -0.209 OA 
HETATM   40  O   UNL     1      -8.117  13.829  66.864  1.00  0.00    -0.058 OA 
HETATM   41  O   UNL     1      -9.921  15.343  65.797  1.00  0.00    -0.310 OA 
ENDBRANCH  35  36
ENDBRANCH  30  31
BRANCH  30  42
HETATM   42  N   UNL     1      -8.469   8.615  63.488  1.00  0.00    -0.375 NA 
HETATM   43  H   UNL     1      -8.917   9.012  62.662  1.00  0.00     0.000 HD 
BRANCH  42  44
HETATM   44  O   UNL     1      -7.482   7.620  63.420  1.00  0.00    -0.093 OA 
BRANCH  44  45
HETATM   45  C   UNL     1      -7.997   6.526  62.656  1.00  0.00    -0.098 C  
HETATM   46  C   UNL     1      -6.920   5.465  62.525  1.00  0.00    -0.036 C  
ENDBRANCH  44  45
ENDBRANCH  42  44
ENDBRANCH  30  42
ENDBRANCH  28  30
ENDBRANCH   6  26
TORSDOF 10
ENDMDL
MODEL       36
REMARK 921   NORMALIZED FREE ENERGY PREDICTED BY IDOCK:   -5.06 KCAL/MOL
REMARK 922        TOTAL FREE ENERGY PREDICTED BY IDOCK:   -9.82 KCAL/MOL
REMARK 923 INTER-LIGAND FREE ENERGY PREDICTED BY IDOCK:   -7.43 KCAL/MOL
REMARK 924 INTRA-LIGAND FREE ENERGY PREDICTED BY IDOCK:   -2.40 KCAL/MOL
REMARK 927      BINDING AFFINITY PREDICTED BY RF-SCORE:    0.00 PKD
ROOT
HETATM    1  C   UNL     1      -8.456   5.416  69.844  1.00  0.00    -0.103 C  
HETATM    2  S   UNL     1      -7.081   5.782  68.736  1.00  0.00    -0.075 SA 
HETATM    3  C   UNL     1      -6.635   7.358  69.491  1.00  0.00    -0.037 C  
HETATM    4  C   UNL     1      -7.739   8.203  70.115  1.00  0.00    -0.085 C  
HETATM    5  CA  UNL     1      -9.029   7.798  70.242  1.00  0.00    -0.148 C  
HETATM    6  CA  UNL     1      -9.634   4.564  69.261  1.00  0.00    -0.188 C  
HETATM    7  O   UNL     1     -11.651   6.137  69.371  1.00  0.00    -0.372 OA 
HETATM    8  C   UNL     1     -10.176   8.692  70.852  1.00  0.00    -0.209 C  
HETATM    9  N   UNL     1      -9.364   6.535  69.830  1.00  0.00    -0.148 N  
HETATM   10  C   UNL     1     -10.488   5.851  69.528  1.00  0.00    -0.278 C  
HETATM   11  O   UNL     1     -10.827   8.115  71.782  1.00  0.00    -0.232 OA 
HETATM   12  OXT UNL     1     -10.279   9.866  70.408  1.00  0.00    -0.277 OA 
ENDROOT
BRANCH   4  13
HETATM   13  S   UNL     1      -7.156   9.835  70.419  1.00  0.00    -0.126 SA 
BRANCH  13  14
HETATM   14  C   UNL     1      -7.320  10.646  68.882  1.00  0.00    -0.099 A  
HETATM   15  N   UNL     1      -8.315  11.430  68.524  1.00  0.00    -0.152 NA 
HETATM   16  C   UNL     1      -8.152  11.806  67.200  1.00  0.00    -0.169 A  
HETATM   17  S   UNL     1      -6.039  10.516  67.736  1.00  0.00    -0.047 SA 
HETATM   18  C   UNL     1      -6.952  11.436  66.626  1.00  0.00    -0.102 A  
BRANCH  16  19
HETATM   19  C   UNL     1      -9.186  12.539  66.489  1.00  0.00    -0.210 A  
HETATM   20  C   UNL     1     -10.011  11.918  65.553  1.00  0.00    -0.266 A  
HETATM   21  C   UNL     1     -10.966  12.667  64.879  1.00  0.00    -0.293 A  
HETATM   22  C   UNL     1     -12.093  14.775  64.364  1.00  0.00    -0.440 C  
HETATM   23  N   UNL     1     -11.108  13.988  65.121  1.00  0.00    -0.325 NA 
HETATM   24  C   UNL     1      -9.369  13.898  66.740  1.00  0.00    -0.286 A  
HETATM   25  C   UNL     1     -10.340  14.604  66.050  1.00  0.00    -0.305 A  
ENDBRANCH  16  19
ENDBRANCH  13  14
ENDBRANCH   4  13
BRANCH   6  26
HETATM   26  N   UNL     1      -9.580   4.136  67.825  1.00  0.00    -0.171 N  
HETATM   27  H   UNL     1      -9.796   4.813  67.093  1.00  0.00     0.000 HD 
HETATM   28  C   UNL     1      -9.245   2.844  67.477  1.00  0.00    -0.193 C  
HETATM   29  O   UNL     1      -9.118   1.940  68.294  1.00  0.00    -0.122 OA 
BRANCH  28  30
HETATM   30  C   UNL     1      -9.025   2.562  65.986  1.00  0.00    -0.121 C  
BRANCH  30  31
HETATM   31  C   UNL     1      -8.299   3.558  65.183  1.00  0.00    -0.097 A  
HETATM   32  S   UNL     1      -6.550   4.646  63.900  1.00  0.00    -0.043 SA 
HETATM   33  N   UNL     1      -8.909   4.767  64.773  1.00  0.00    -0.152 NA 
HETATM   34  N   UNL     1      -7.043   3.328  64.773  1.00  0.00    -0.059 NA 
HETATM   35  C   UNL     1      -8.050   5.469  64.070  1.00  0.00    -0.123 A  
BRANCH  35  36
HETATM   36  N   UNL     1      -8.272   6.683  63.507  1.00  0.00    -0.316 NA 
HETATM   37  H   UNL     1      -8.680   6.780  62.577  1.00  0.00     0.000 HD 
HETATM   38  P   UNL     1      -7.848   7.972  64.399  1.00  0.00    -0.124 P  
HETATM   39  O   UNL     1      -8.733   9.140  63.747  1.00  0.00    -0.197 OA 
HETATM   40  O   UNL     1      -8.564   7.847  65.824  1.00  0.00    -0.141 OA 
HETATM   41  O   UNL     1      -6.408   8.356  64.492  1.00  0.00    -0.064 OA 
ENDBRANCH  35  36
ENDBRANCH  30  31
BRANCH  30  42
HETATM   42  N   UNL     1      -9.437   1.498  65.351  1.00  0.00    -0.324 NA 
HETATM   43  H   UNL     1      -9.649   0.616  65.819  1.00  0.00     0.000 HD 
BRANCH  42  44
HETATM   44  O   UNL     1      -9.561   1.682  63.966  1.00  0.00    -0.124 OA 
BRANCH  44  45
HETATM   45  C   UNL     1     -10.948   1.605  63.625  1.00  0.00     0.007 C  
HETATM   46  C   UNL     1     -11.251   2.636  62.554  1.00  0.00    -0.089 C  
ENDBRANCH  44  45
ENDBRANCH  42  44
ENDBRANCH  30  42
ENDBRANCH  28  30
ENDBRANCH   6  26
TORSDOF 10
ENDMDL
MODEL       37
REMARK 921   NORMALIZED FREE ENERGY PREDICTED BY IDOCK:   -5.00 KCAL/MOL
REMARK 922        TOTAL FREE ENERGY PREDICTED BY IDOCK:   -9.73 KCAL/MOL
REMARK 923 INTER-LIGAND FREE ENERGY PREDICTED BY IDOCK:   -8.83 KCAL/MOL
REMARK 924 INTRA-LIGAND FREE ENERGY PREDICTED BY IDOCK:   -0.90 KCAL/MOL
REMARK 927      BINDING AFFINITY PREDICTED BY RF-SCORE:    0.00 PKD
ROOT
HETATM    1  C   UNL     1     -11.887  14.305  68.310  1.00  0.00    -0.335 C  
HETATM    2  S   UNL     1     -10.658  13.065  67.861  1.00  0.00    -0.235 SA 
HETATM    3  C   UNL     1     -11.473  11.677  68.672  1.00  0.00    -0.290 C  
HETATM    4  C   UNL     1     -12.285  11.947  69.934  1.00  0.00    -0.199 C  
HETATM    5  CA  UNL     1     -12.531  13.186  70.430  1.00  0.00    -0.210 C  
HETATM    6  CA  UNL     1     -11.382  15.776  68.492  1.00  0.00    -0.374 C  
HETATM    7  O   UNL     1     -11.848  16.294  70.956  1.00  0.00    -0.373 OA 
HETATM    8  C   UNL     1     -13.337  13.458  71.758  1.00  0.00    -0.394 C  
HETATM    9  N   UNL     1     -12.065  14.274  69.740  1.00  0.00    -0.330 N  
HETATM   10  C   UNL     1     -11.846  15.585  69.977  1.00  0.00    -0.359 C  
HETATM   11  O   UNL     1     -14.290  14.290  71.610  1.00  0.00    -0.425 OA 
HETATM   12  OXT UNL     1     -12.999  12.796  72.775  1.00  0.00    -0.131 OA 
ENDROOT
BRANCH   4  13
HETATM   13  S   UNL     1     -12.642  10.436  70.761  1.00  0.00    -0.376 SA 
BRANCH  13  14
HETATM   14  C   UNL     1     -11.236   9.443  70.477  1.00  0.00    -0.275 A  
HETATM   15  N   UNL     1     -10.508   8.850  71.400  1.00  0.00    -0.277 NA 
HETATM   16  C   UNL     1      -9.417   8.239  70.804  1.00  0.00    -0.161 A  
HETATM   17  S   UNL     1     -10.777   9.102  68.850  1.00  0.00    -0.082 SA 
HETATM   18  C   UNL     1      -9.422   8.238  69.423  1.00  0.00    -0.159 A  
BRANCH  16  19
HETATM   19  C   UNL     1      -8.355   7.645  71.599  1.00  0.00    -0.118 A  
HETATM   20  C   UNL     1      -7.249   8.386  72.014  1.00  0.00    -0.114 A  
HETATM   21  C   UNL     1      -6.247   7.768  72.749  1.00  0.00    -0.062 A  
HETATM   22  C   UNL     1      -5.239   5.809  73.808  1.00  0.00    -0.024 C  
HETATM   23  N   UNL     1      -6.331   6.459  73.070  1.00  0.00    -0.062 NA 
HETATM   24  C   UNL     1      -8.432   6.302  71.965  1.00  0.00    -0.123 A  
HETATM   25  C   UNL     1      -7.412   5.729  72.707  1.00  0.00    -0.096 A  
ENDBRANCH  16  19
ENDBRANCH  13  14
ENDBRANCH   4  13
BRANCH   6  26
HETATM   26  N   UNL     1      -9.922  16.070  68.325  1.00  0.00    -0.218 N  
HETATM   27  H   UNL     1      -9.292  15.943  69.117  1.00  0.00     0.000 HD 
HETATM   28  C   UNL     1      -9.414  16.509  67.119  1.00  0.00    -0.239 C  
HETATM   29  O   UNL     1     -10.121  16.826  66.170  1.00  0.00    -0.318 OA 
BRANCH  28  30
HETATM   30  C   UNL     1      -7.888  16.587  66.997  1.00  0.00    -0.206 C  
BRANCH  30  31
HETATM   31  C   UNL     1      -7.069  15.719  67.855  1.00  0.00    -0.133 A  
HETATM   32  S   UNL     1      -5.891  14.845  69.788  1.00  0.00    -0.125 SA 
HETATM   33  N   UNL     1      -6.540  14.495  67.380  1.00  0.00    -0.297 NA 
HETATM   34  N   UNL     1      -6.835  16.040  69.135  1.00  0.00    -0.167 NA 
HETATM   35  C   UNL     1      -5.855  13.917  68.341  1.00  0.00    -0.102 A  
BRANCH  35  36
HETATM   36  N   UNL     1      -5.204  12.730  68.265  1.00  0.00    -0.063 NA 
HETATM   37  H   UNL     1      -4.337  12.556  68.773  1.00  0.00     0.000 HD 
HETATM   38  P   UNL     1      -5.886  11.602  67.316  1.00  0.00    -0.140 P  
HETATM   39  O   UNL     1      -5.247  10.247  67.890  1.00  0.00    -0.035 OA 
HETATM   40  O   UNL     1      -7.403  11.410  67.786  1.00  0.00    -0.090 OA 
HETATM   41  O   UNL     1      -5.733  11.702  65.835  1.00  0.00    -0.123 OA 
ENDBRANCH  35  36
ENDBRANCH  30  31
BRANCH  30  42
HETATM   42  N   UNL     1      -7.237  17.377  66.185  1.00  0.00    -0.301 NA 
HETATM   43  H   UNL     1      -6.913  17.084  65.263  1.00  0.00     0.000 HD 
BRANCH  42  44
HETATM   44  O   UNL     1      -7.027  18.664  66.700  1.00  0.00    -0.198 OA 
BRANCH  44  45
HETATM   45  C   UNL     1      -5.878  19.224  66.058  1.00  0.00    -0.165 C  
HETATM   46  C   UNL     1      -6.328  20.043  64.863  1.00  0.00    -0.325 C  
ENDBRANCH  44  45
ENDBRANCH  42  44
ENDBRANCH  30  42
ENDBRANCH  28  30
ENDBRANCH   6  26
TORSDOF 10
ENDMDL
MODEL       38
REMARK 921   NORMALIZED FREE ENERGY PREDICTED BY IDOCK:   -4.96 KCAL/MOL
REMARK 922        TOTAL FREE ENERGY PREDICTED BY IDOCK:   -9.67 KCAL/MOL
REMARK 923 INTER-LIGAND FREE ENERGY PREDICTED BY IDOCK:   -8.42 KCAL/MOL
REMARK 924 INTRA-LIGAND FREE ENERGY PREDICTED BY IDOCK:   -1.25 KCAL/MOL
REMARK 927      BINDING AFFINITY PREDICTED BY RF-SCORE:    0.00 PKD
ROOT
HETATM    1  C   UNL     1     -11.483   9.219  69.816  1.00  0.00     0.087 C  
HETATM    2  S   UNL     1     -10.011  10.090  69.247  1.00  0.00    -0.227 SA 
HETATM    3  C   UNL     1      -8.955   8.634  69.123  1.00  0.00    -0.142 C  
HETATM    4  C   UNL     1      -9.189   7.482  70.094  1.00  0.00    -0.154 C  
HETATM    5  CA  UNL     1     -10.216   7.430  70.980  1.00  0.00    -0.191 C  
HETATM    6  CA  UNL     1     -12.468  10.010  70.741  1.00  0.00    -0.295 C  
HETATM    7  O   UNL     1     -12.424   8.714  72.949  1.00  0.00    -0.278 OA 
HETATM    8  C   UNL     1     -10.430   6.255  72.010  1.00  0.00    -0.207 C  
HETATM    9  N   UNL     1     -11.135   8.447  70.982  1.00  0.00    -0.251 N  
HETATM   10  C   UNL     1     -12.091   8.923  71.806  1.00  0.00    -0.362 C  
HETATM   11  O   UNL     1     -11.600   5.753  71.970  1.00  0.00    -0.255 OA 
HETATM   12  OXT UNL     1      -9.432   5.912  72.697  1.00  0.00    -0.147 OA 
ENDROOT
BRANCH   4  13
HETATM   13  S   UNL     1      -7.823   6.374  70.061  1.00  0.00    -0.112 SA 
BRANCH  13  14
HETATM   14  C   UNL     1      -7.569   6.051  68.365  1.00  0.00    -0.091 A  
HETATM   15  N   UNL     1      -8.278   5.229  67.619  1.00  0.00    -0.100 NA 
HETATM   16  C   UNL     1      -7.717   5.155  66.355  1.00  0.00    -0.092 A  
HETATM   17  S   UNL     1      -6.352   6.939  67.526  1.00  0.00    -0.047 SA 
HETATM   18  C   UNL     1      -6.690   6.045  66.111  1.00  0.00    -0.060 A  
BRANCH  16  19
HETATM   19  C   UNL     1      -8.196   4.199  65.370  1.00  0.00    -0.105 A  
HETATM   20  C   UNL     1      -7.755   2.876  65.360  1.00  0.00    -0.081 A  
HETATM   21  C   UNL     1      -8.221   2.007  64.383  1.00  0.00    -0.078 A  
HETATM   22  C   UNL     1      -9.542   1.504  62.388  1.00  0.00    -0.085 C  
HETATM   23  N   UNL     1      -9.096   2.425  63.444  1.00  0.00    -0.092 NA 
HETATM   24  C   UNL     1      -9.119   4.600  64.407  1.00  0.00    -0.122 A  
HETATM   25  C   UNL     1      -9.562   3.696  63.455  1.00  0.00    -0.129 A  
ENDBRANCH  16  19
ENDBRANCH  13  14
ENDBRANCH   4  13
BRANCH   6  26
HETATM   26  N   UNL     1     -12.125  11.416  71.134  1.00  0.00    -0.255 N  
HETATM   27  H   UNL     1     -11.185  11.770  70.957  1.00  0.00     0.000 HD 
HETATM   28  C   UNL     1     -13.058  12.239  71.731  1.00  0.00    -0.344 C  
HETATM   29  O   UNL     1     -14.155  11.845  72.109  1.00  0.00     0.197 OA 
BRANCH  28  30
HETATM   30  C   UNL     1     -12.671  13.711  71.909  1.00  0.00    -0.228 C  
BRANCH  30  31
HETATM   31  C   UNL     1     -11.983  14.395  70.805  1.00  0.00    -0.323 A  
HETATM   32  S   UNL     1     -10.606  15.972  69.576  1.00  0.00    -0.315 SA 
HETATM   33  N   UNL     1     -12.057  13.916  69.474  1.00  0.00    -0.338 NA 
HETATM   34  N   UNL     1     -11.220  15.475  71.032  1.00  0.00    -0.355 NA 
HETATM   35  C   UNL     1     -11.355  14.702  68.691  1.00  0.00    -0.283 A  
BRANCH  35  36
HETATM   36  N   UNL     1     -11.187  14.564  67.352  1.00  0.00    -0.313 NA 
HETATM   37  H   UNL     1     -11.251  15.357  66.715  1.00  0.00     0.000 HD 
HETATM   38  P   UNL     1     -10.880  13.059  66.824  1.00  0.00    -0.277 P  
HETATM   39  O   UNL     1     -10.191  13.334  65.402  1.00  0.00    -0.299 OA 
HETATM   40  O   UNL     1      -9.621  12.496  67.635  1.00  0.00    -0.181 OA 
HETATM   41  O   UNL     1     -12.001  12.078  66.715  1.00  0.00    -0.616 OA 
ENDBRANCH  35  36
ENDBRANCH  30  31
BRANCH  30  42
HETATM   42  N   UNL     1     -12.898  14.426  72.978  1.00  0.00    -0.457 NA 
HETATM   43  H   UNL     1     -12.410  14.279  73.862  1.00  0.00     0.000 HD 
BRANCH  42  44
HETATM   44  O   UNL     1     -13.876  15.415  72.797  1.00  0.00    -0.504 OA 
BRANCH  44  45
HETATM   45  C   UNL     1     -13.682  16.426  73.790  1.00  0.00     0.729 C  
HETATM   46  C   UNL     1     -12.381  16.158  74.522  1.00  0.00    -0.640 C  
ENDBRANCH  44  45
ENDBRANCH  42  44
ENDBRANCH  30  42
ENDBRANCH  28  30
ENDBRANCH   6  26
TORSDOF 10
ENDMDL
MODEL       39
REMARK 921   NORMALIZED FREE ENERGY PREDICTED BY IDOCK:   -4.94 KCAL/MOL
REMARK 922        TOTAL FREE ENERGY PREDICTED BY IDOCK:   -9.64 KCAL/MOL
REMARK 923 INTER-LIGAND FREE ENERGY PREDICTED BY IDOCK:   -7.78 KCAL/MOL
REMARK 924 INTRA-LIGAND FREE ENERGY PREDICTED BY IDOCK:   -1.87 KCAL/MOL
REMARK 927      BINDING AFFINITY PREDICTED BY RF-SCORE:    0.00 PKD
ROOT
HETATM    1  C   UNL     1      -9.383   8.294  67.644  1.00  0.00    -0.137 C  
HETATM    2  S   UNL     1      -9.189   8.925  69.322  1.00  0.00    -0.146 SA 
HETATM    3  C   UNL     1      -8.488  10.519  68.853  1.00  0.00    -0.152 C  
HETATM    4  C   UNL     1      -7.633  10.595  67.593  1.00  0.00    -0.092 C  
HETATM    5  CA  UNL     1      -7.453   9.561  66.732  1.00  0.00    -0.094 C  
HETATM    6  CA  UNL     1      -9.279   6.744  67.448  1.00  0.00    -0.127 C  
HETATM    7  O   UNL     1      -7.231   6.443  65.940  1.00  0.00    -0.074 OA 
HETATM    8  C   UNL     1      -6.536   9.634  65.451  1.00  0.00    -0.080 C  
HETATM    9  N   UNL     1      -8.111   8.384  66.972  1.00  0.00    -0.103 N  
HETATM   10  C   UNL     1      -8.026   7.097  66.574  1.00  0.00    -0.112 C  
HETATM   11  O   UNL     1      -7.126   9.267  64.384  1.00  0.00    -0.090 OA 
HETATM   12  OXT UNL     1      -5.372  10.091  65.610  1.00  0.00    -0.046 OA 
ENDROOT
BRANCH   4  13
HETATM   13  S   UNL     1      -6.745  12.113  67.554  1.00  0.00    -0.144 SA 
BRANCH  13  14
HETATM   14  C   UNL     1      -7.937  13.301  67.093  1.00  0.00    -0.065 A  
HETATM   15  N   UNL     1      -7.791  14.608  67.156  1.00  0.00    -0.179 NA 
HETATM   16  C   UNL     1      -8.983  15.222  66.807  1.00  0.00    -0.262 A  
HETATM   17  S   UNL     1      -9.418  12.761  66.396  1.00  0.00    -0.193 SA 
HETATM   18  C   UNL     1      -9.963  14.377  66.326  1.00  0.00    -0.306 A  
BRANCH  16  19
HETATM   19  C   UNL     1      -9.163  16.658  66.944  1.00  0.00    -0.245 A  
HETATM   20  C   UNL     1      -8.260  17.443  67.661  1.00  0.00    -0.210 A  
HETATM   21  C   UNL     1      -8.490  18.806  67.787  1.00  0.00    -0.275 A  
HETATM   22  C   UNL     1      -9.825  20.818  67.406  1.00  0.00    -0.294 C  
HETATM   23  N   UNL     1      -9.573  19.381  67.222  1.00  0.00    -0.318 NA 
HETATM   24  C   UNL     1     -10.259  17.278  66.349  1.00  0.00    -0.333 A  
HETATM   25  C   UNL     1     -10.444  18.644  66.494  1.00  0.00    -0.420 A  
ENDBRANCH  16  19
ENDBRANCH  13  14
ENDBRANCH   4  13
BRANCH   6  26
HETATM   26  N   UNL     1      -8.990   5.879  68.637  1.00  0.00    -0.117 N  
HETATM   27  H   UNL     1      -8.505   6.278  69.440  1.00  0.00     0.000 HD 
HETATM   28  C   UNL     1      -9.367   4.551  68.664  1.00  0.00    -0.141 C  
HETATM   29  O   UNL     1      -9.816   3.962  67.688  1.00  0.00    -0.143 OA 
BRANCH  28  30
HETATM   30  C   UNL     1      -9.205   3.811  69.996  1.00  0.00    -0.150 C  
BRANCH  30  31
HETATM   31  C   UNL     1      -9.937   4.310  71.170  1.00  0.00    -0.156 A  
HETATM   32  S   UNL     1     -10.684   4.608  73.460  1.00  0.00    -0.295 SA 
HETATM   33  N   UNL     1     -10.889   5.351  71.062  1.00  0.00    -0.176 NA 
HETATM   34  N   UNL     1      -9.690   3.820  72.394  1.00  0.00    -0.143 NA 
HETATM   35  C   UNL     1     -11.390   5.605  72.250  1.00  0.00    -0.240 A  
BRANCH  35  36
HETATM   36  N   UNL     1     -12.327   6.539  72.546  1.00  0.00    -0.513 NA 
HETATM   37  H   UNL     1     -13.184   6.306  73.048  1.00  0.00     0.000 HD 
HETATM   38  P   UNL     1     -12.006   8.054  72.053  1.00  0.00    -0.362 P  
HETATM   39  O   UNL     1     -12.942   8.929  73.018  1.00  0.00    -0.297 OA 
HETATM   40  O   UNL     1     -10.567   8.465  72.620  1.00  0.00    -0.332 OA 
HETATM   41  O   UNL     1     -12.201   8.413  70.617  1.00  0.00    -0.089 OA 
ENDBRANCH  35  36
ENDBRANCH  30  31
BRANCH  30  42
HETATM   42  N   UNL     1      -8.455   2.759  70.187  1.00  0.00    -0.044 NA 
HETATM   43  H   UNL     1      -8.798   1.901  70.619  1.00  0.00     0.000 HD 
BRANCH  42  44
HETATM   44  O   UNL     1      -7.135   2.921  69.743  1.00  0.00    -0.040 OA 
BRANCH  44  45
HETATM   45  C   UNL     1      -6.440   3.742  70.686  1.00  0.00    -0.031 C  
HETATM   46  C   UNL     1      -5.622   4.775  69.932  1.00  0.00    -0.012 C  
ENDBRANCH  44  45
ENDBRANCH  42  44
ENDBRANCH  30  42
ENDBRANCH  28  30
ENDBRANCH   6  26
TORSDOF 10
ENDMDL
MODEL       40
REMARK 921   NORMALIZED FREE ENERGY PREDICTED BY IDOCK:   -4.93 KCAL/MOL
REMARK 922        TOTAL FREE ENERGY PREDICTED BY IDOCK:   -9.62 KCAL/MOL
REMARK 923 INTER-LIGAND FREE ENERGY PREDICTED BY IDOCK:   -8.44 KCAL/MOL
REMARK 924 INTRA-LIGAND FREE ENERGY PREDICTED BY IDOCK:   -1.18 KCAL/MOL
REMARK 927      BINDING AFFINITY PREDICTED BY RF-SCORE:    0.00 PKD
ROOT
HETATM    1  C   UNL     1      -8.618  12.154  69.042  1.00  0.00     0.382 C  
HETATM    2  S   UNL     1     -10.310  11.540  68.929  1.00  0.00    -0.123 SA 
HETATM    3  C   UNL     1      -9.981   9.922  69.653  1.00  0.00    -0.231 C  
HETATM    4  C   UNL     1      -8.613   9.289  69.426  1.00  0.00    -0.142 C  
HETATM    5  CA  UNL     1      -7.578   9.913  68.806  1.00  0.00    -0.081 C  
HETATM    6  CA  UNL     1      -8.161  13.188  67.959  1.00  0.00    -0.157 C  
HETATM    7  O   UNL     1      -6.271  11.989  66.715  1.00  0.00    -0.129 OA 
HETATM    8  C   UNL     1      -6.178   9.239  68.539  1.00  0.00    -0.049 C  
HETATM    9  N   UNL     1      -7.745  11.209  68.394  1.00  0.00    -0.117 N  
HETATM   10  C   UNL     1      -7.138  12.072  67.552  1.00  0.00    -0.129 C  
HETATM   11  O   UNL     1      -5.195   9.933  68.955  1.00  0.00    -0.036 OA 
HETATM   12  OXT UNL     1      -6.189   8.094  68.013  1.00  0.00    -0.045 OA 
ENDROOT
BRANCH   4  13
HETATM   13  S   UNL     1      -8.652   7.585  69.864  1.00  0.00    -0.140 SA 
BRANCH  13  14
HETATM   14  C   UNL     1      -9.236   6.783  68.428  1.00  0.00    -0.123 A  
HETATM   15  N   UNL     1      -8.589   5.869  67.735  1.00  0.00    -0.106 NA 
HETATM   16  C   UNL     1      -9.323   5.542  66.607  1.00  0.00    -0.141 A  
HETATM   17  S   UNL     1     -10.840   7.115  67.888  1.00  0.00    -0.107 SA 
HETATM   18  C   UNL     1     -10.589   6.090  66.546  1.00  0.00    -0.172 A  
BRANCH  16  19
HETATM   19  C   UNL     1      -8.776   4.678  65.573  1.00  0.00    -0.130 A  
HETATM   20  C   UNL     1      -9.177   3.349  65.443  1.00  0.00    -0.152 A  
HETATM   21  C   UNL     1      -8.606   2.556  64.458  1.00  0.00    -0.091 A  
HETATM   22  C   UNL     1      -7.042   2.188  62.615  1.00  0.00    -0.032 C  
HETATM   23  N   UNL     1      -7.671   3.056  63.622  1.00  0.00    -0.067 NA 
HETATM   24  C   UNL     1      -7.829   5.178  64.682  1.00  0.00    -0.095 A  
HETATM   25  C   UNL     1      -7.291   4.352  63.709  1.00  0.00    -0.054 A  
ENDBRANCH  16  19
ENDBRANCH  13  14
ENDBRANCH   4  13
BRANCH   6  26
HETATM   26  N   UNL     1      -9.121  13.580  66.877  1.00  0.00    -0.263 N  
HETATM   27  H   UNL     1      -9.788  12.893  66.526  1.00  0.00     0.000 HD 
HETATM   28  C   UNL     1      -9.119  14.854  66.346  1.00  0.00    -0.258 C  
HETATM   29  O   UNL     1      -8.259  15.687  66.606  1.00  0.00    -0.257 OA 
BRANCH  28  30
HETATM   30  C   UNL     1     -10.266  15.210  65.393  1.00  0.00    -0.372 C  
BRANCH  30  31
HETATM   31  C   UNL     1     -10.903  14.130  64.626  1.00  0.00    -0.386 A  
HETATM   32  S   UNL     1     -12.561  12.838  63.414  1.00  0.00    -0.054 SA 
HETATM   33  N   UNL     1     -10.176  12.989  64.209  1.00  0.00    -0.361 NA 
HETATM   34  N   UNL     1     -12.189  14.215  64.256  1.00  0.00    -0.601 NA 
HETATM   35  C   UNL     1     -10.975  12.187  63.543  1.00  0.00    -0.453 A  
BRANCH  35  36
HETATM   36  N   UNL     1     -10.639  10.997  62.985  1.00  0.00    -0.805 NA 
HETATM   37  H   UNL     1     -11.131  10.622  62.174  1.00  0.00     0.000 HD 
HETATM   38  P   UNL     1      -9.406  10.204  63.685  1.00  0.00    -0.186 P  
HETATM   39  O   UNL     1      -8.922   9.227  62.508  1.00  0.00    -0.241 OA 
HETATM   40  O   UNL     1      -8.153  11.195  63.753  1.00  0.00     0.304 OA 
HETATM   41  O   UNL     1      -9.643   9.461  64.958  1.00  0.00    -0.228 OA 
ENDBRANCH  35  36
ENDBRANCH  30  31
BRANCH  30  42
HETATM   42  N   UNL     1     -10.734  16.413  65.194  1.00  0.00    -0.628 NA 
HETATM   43  H   UNL     1     -11.678  16.596  64.854  1.00  0.00     0.000 HD 
BRANCH  42  44
HETATM   44  O   UNL     1      -9.816  17.431  65.492  1.00  0.00    -0.536 OA 
BRANCH  44  45
HETATM   45  C   UNL     1     -10.517  18.492  66.147  1.00  0.00    -0.413 C  
HETATM   46  C   UNL     1     -10.507  18.240  67.644  1.00  0.00    -0.431 C  
ENDBRANCH  44  45
ENDBRANCH  42  44
ENDBRANCH  30  42
ENDBRANCH  28  30
ENDBRANCH   6  26
TORSDOF 10
ENDMDL
MODEL       41
REMARK 921   NORMALIZED FREE ENERGY PREDICTED BY IDOCK:   -4.91 KCAL/MOL
REMARK 922        TOTAL FREE ENERGY PREDICTED BY IDOCK:   -9.60 KCAL/MOL
REMARK 923 INTER-LIGAND FREE ENERGY PREDICTED BY IDOCK:   -7.81 KCAL/MOL
REMARK 924 INTRA-LIGAND FREE ENERGY PREDICTED BY IDOCK:   -1.79 KCAL/MOL
REMARK 927      BINDING AFFINITY PREDICTED BY RF-SCORE:    0.00 PKD
ROOT
HETATM    1  C   UNL     1      -8.302  10.336  64.623  1.00  0.00    -0.169 C  
HETATM    2  S   UNL     1     -10.101  10.222  64.661  1.00  0.00    -0.108 SA 
HETATM    3  C   UNL     1     -10.390  11.875  65.318  1.00  0.00    -0.276 C  
HETATM    4  C   UNL     1      -9.352  12.474  66.261  1.00  0.00    -0.177 C  
HETATM    5  CA  UNL     1      -8.162  11.889  66.555  1.00  0.00    -0.026 C  
HETATM    6  CA  UNL     1      -7.499   9.005  64.815  1.00  0.00    -0.102 C  
HETATM    7  O   UNL     1      -6.188   9.376  66.982  1.00  0.00    -0.063 OA 
HETATM    8  C   UNL     1      -7.110  12.493  67.562  1.00  0.00    -0.151 C  
HETATM    9  N   UNL     1      -7.841  10.709  65.937  1.00  0.00    -0.155 N  
HETATM   10  C   UNL     1      -6.961   9.701  66.112  1.00  0.00    -0.093 C  
HETATM   11  O   UNL     1      -5.939  12.591  67.071  1.00  0.00    -0.283 OA 
HETATM   12  OXT UNL     1      -7.543  12.858  68.687  1.00  0.00    -0.126 OA 
ENDROOT
BRANCH   4  13
HETATM   13  S   UNL     1     -10.015  13.884  67.078  1.00  0.00    -0.264 SA 
BRANCH  13  14
HETATM   14  C   UNL     1     -10.860  13.228  68.457  1.00  0.00    -0.265 A  
HETATM   15  N   UNL     1     -10.840  11.972  68.851  1.00  0.00    -0.223 NA 
HETATM   16  C   UNL     1     -11.711  11.810  69.916  1.00  0.00    -0.323 A  
HETATM   17  S   UNL     1     -11.735  14.305  69.481  1.00  0.00    -0.335 SA 
HETATM   18  C   UNL     1     -12.253  12.976  70.419  1.00  0.00    -0.310 A  
BRANCH  16  19
HETATM   19  C   UNL     1     -12.014  10.492  70.450  1.00  0.00    -0.425 A  
HETATM   20  C   UNL     1     -13.122  10.272  71.268  1.00  0.00    -0.492 A  
HETATM   21  C   UNL     1     -13.354   9.001  71.777  1.00  0.00    -0.397 A  
HETATM   22  C   UNL     1     -12.760   6.648  72.071  1.00  0.00    -0.159 C  
HETATM   23  N   UNL     1     -12.525   7.976  71.486  1.00  0.00    -0.305 NA 
HETATM   24  C   UNL     1     -11.187   9.413  70.144  1.00  0.00    -0.253 A  
HETATM   25  C   UNL     1     -11.463   8.160  70.667  1.00  0.00    -0.231 A  
ENDBRANCH  16  19
ENDBRANCH  13  14
ENDBRANCH   4  13
BRANCH   6  26
HETATM   26  N   UNL     1      -8.250   7.730  65.054  1.00  0.00    -0.193 N  
HETATM   27  H   UNL     1      -9.268   7.754  65.122  1.00  0.00     0.000 HD 
HETATM   28  C   UNL     1      -7.590   6.525  65.185  1.00  0.00    -0.090 C  
HETATM   29  O   UNL     1      -6.371   6.433  65.263  1.00  0.00    -0.036 OA 
BRANCH  28  30
HETATM   30  C   UNL     1      -8.457   5.261  65.226  1.00  0.00    -0.147 C  
BRANCH  30  31
HETATM   31  C   UNL     1      -7.866   4.021  65.751  1.00  0.00    -0.090 A  
HETATM   32  S   UNL     1      -6.745   1.872  65.857  1.00  0.00    -0.035 SA 
HETATM   33  N   UNL     1      -7.825   3.750  67.140  1.00  0.00    -0.083 NA 
HETATM   34  N   UNL     1      -7.303   3.125  64.929  1.00  0.00    -0.070 NA 
HETATM   35  C   UNL     1      -7.246   2.588  67.338  1.00  0.00    -0.053 A  
BRANCH  35  36
HETATM   36  N   UNL     1      -7.024   1.992  68.535  1.00  0.00    -0.039 NA 
HETATM   37  H   UNL     1      -6.447   1.156  68.624  1.00  0.00     0.000 HD 
HETATM   38  P   UNL     1      -7.731   2.689  69.821  1.00  0.00    -0.042 P  
HETATM   39  O   UNL     1      -6.840   2.140  71.036  1.00  0.00    -0.030 OA 
HETATM   40  O   UNL     1      -7.308   4.231  69.845  1.00  0.00    -0.048 OA 
HETATM   41  O   UNL     1      -9.189   2.471  70.061  1.00  0.00    -0.106 OA 
ENDBRANCH  35  36
ENDBRANCH  30  31
BRANCH  30  42
HETATM   42  N   UNL     1      -9.697   5.184  64.823  1.00  0.00    -0.319 NA 
HETATM   43  H   UNL     1      -9.985   5.379  63.864  1.00  0.00     0.000 HD 
BRANCH  42  44
HETATM   44  O   UNL     1     -10.594   4.808  65.833  1.00  0.00    -0.303 OA 
BRANCH  44  45
HETATM   45  C   UNL     1     -10.928   5.971  66.595  1.00  0.00    -0.152 C  
HETATM   46  C   UNL     1     -10.638   5.702  68.060  1.00  0.00    -0.260 C  
ENDBRANCH  44  45
ENDBRANCH  42  44
ENDBRANCH  30  42
ENDBRANCH  28  30
ENDBRANCH   6  26
TORSDOF 10
ENDMDL
MODEL       42
REMARK 921   NORMALIZED FREE ENERGY PREDICTED BY IDOCK:   -4.91 KCAL/MOL
REMARK 922        TOTAL FREE ENERGY PREDICTED BY IDOCK:   -9.58 KCAL/MOL
REMARK 923 INTER-LIGAND FREE ENERGY PREDICTED BY IDOCK:   -8.02 KCAL/MOL
REMARK 924 INTRA-LIGAND FREE ENERGY PREDICTED BY IDOCK:   -1.56 KCAL/MOL
REMARK 927      BINDING AFFINITY PREDICTED BY RF-SCORE:    0.00 PKD
ROOT
HETATM    1  C   UNL     1      -8.176   7.407  67.799  1.00  0.00    -0.119 C  
HETATM    2  S   UNL     1      -9.952   7.582  68.062  1.00  0.00    -0.179 SA 
HETATM    3  C   UNL     1     -10.248   8.688  66.670  1.00  0.00    -0.273 C  
HETATM    4  C   UNL     1      -9.143   9.656  66.261  1.00  0.00    -0.160 C  
HETATM    5  CA  UNL     1      -7.899   9.665  66.806  1.00  0.00    -0.102 C  
HETATM    6  CA  UNL     1      -7.290   7.153  69.065  1.00  0.00    -0.092 C  
HETATM    7  O   UNL     1      -5.763   9.205  69.177  1.00  0.00    -0.036 OA 
HETATM    8  C   UNL     1      -6.772  10.694  66.408  1.00  0.00    -0.124 C  
HETATM    9  N   UNL     1      -7.590   8.722  67.751  1.00  0.00    -0.096 N  
HETATM   10  C   UNL     1      -6.645   8.533  68.697  1.00  0.00    -0.055 C  
HETATM   11  O   UNL     1      -5.671  10.140  66.091  1.00  0.00    -0.056 OA 
HETATM   12  OXT UNL     1      -7.094  11.911  66.390  1.00  0.00     0.098 OA 
ENDROOT
BRANCH   4  13
HETATM   13  S   UNL     1      -9.781  10.884  65.175  1.00  0.00    -0.283 SA 
BRANCH  13  14
HETATM   14  C   UNL     1     -10.058  12.268  66.201  1.00  0.00    -0.245 A  
HETATM   15  N   UNL     1     -10.470  12.234  67.451  1.00  0.00    -0.209 NA 
HETATM   16  C   UNL     1     -10.674  13.527  67.903  1.00  0.00    -0.247 A  
HETATM   17  S   UNL     1      -9.678  13.837  65.595  1.00  0.00    -0.030 SA 
HETATM   18  C   UNL     1     -10.257  14.526  67.046  1.00  0.00    -0.262 A  
BRANCH  16  19
HETATM   19  C   UNL     1     -11.285  13.788  69.197  1.00  0.00    -0.307 A  
HETATM   20  C   UNL     1     -11.038  14.968  69.897  1.00  0.00    -0.298 A  
HETATM   21  C   UNL     1     -11.623  15.160  71.142  1.00  0.00    -0.360 A  
HETATM   22  C   UNL     1     -13.003  14.420  73.019  1.00  0.00    -0.472 C  
HETATM   23  N   UNL     1     -12.430  14.221  71.680  1.00  0.00    -0.347 NA 
HETATM   24  C   UNL     1     -12.141  12.845  69.761  1.00  0.00    -0.312 A  
HETATM   25  C   UNL     1     -12.709  13.083  71.002  1.00  0.00    -0.262 A  
ENDBRANCH  16  19
ENDBRANCH  13  14
ENDBRANCH   4  13
BRANCH   6  26
HETATM   26  N   UNL     1      -7.943   7.107  70.413  1.00  0.00    -0.110 N  
HETATM   27  H   UNL     1      -8.793   7.647  70.576  1.00  0.00     0.000 HD 
HETATM   28  C   UNL     1      -7.415   6.348  71.438  1.00  0.00    -0.089 C  
HETATM   29  O   UNL     1      -6.325   5.793  71.369  1.00  0.00    -0.040 OA 
BRANCH  28  30
HETATM   30  C   UNL     1      -8.263   6.211  72.707  1.00  0.00    -0.117 C  
BRANCH  30  31
HETATM   31  C   UNL     1      -9.710   6.460  72.616  1.00  0.00    -0.161 A  
HETATM   32  S   UNL     1     -12.089   6.106  72.299  1.00  0.00    -0.055 SA 
HETATM   33  N   UNL     1     -10.263   7.732  72.897  1.00  0.00    -0.288 NA 
HETATM   34  N   UNL     1     -10.560   5.470  72.306  1.00  0.00    -0.216 NA 
HETATM   35  C   UNL     1     -11.566   7.681  72.745  1.00  0.00    -0.281 A  
BRANCH  35  36
HETATM   36  N   UNL     1     -12.439   8.703  72.928  1.00  0.00    -0.520 NA 
HETATM   37  H   UNL     1     -12.576   9.140  73.840  1.00  0.00     0.000 HD 
HETATM   38  P   UNL     1     -13.253   9.191  71.610  1.00  0.00    -0.382 P  
HETATM   39  O   UNL     1     -13.696  10.677  72.018  1.00  0.00    -0.188 OA 
HETATM   40  O   UNL     1     -12.188   9.526  70.465  1.00  0.00    -0.177 OA 
HETATM   41  O   UNL     1     -14.410   8.382  71.124  1.00  0.00    -0.285 OA 
ENDBRANCH  35  36
ENDBRANCH  30  31
BRANCH  30  42
HETATM   42  N   UNL     1      -7.806   5.892  73.888  1.00  0.00    -0.099 NA 
HETATM   43  H   UNL     1      -7.296   6.545  74.484  1.00  0.00     0.000 HD 
BRANCH  42  44
HETATM   44  O   UNL     1      -8.083   4.568  74.260  1.00  0.00    -0.094 OA 
BRANCH  44  45
HETATM   45  C   UNL     1      -6.843   3.865  74.375  1.00  0.00    -0.058 C  
HETATM   46  C   UNL     1      -7.112   2.373  74.295  1.00  0.00    -0.035 C  
ENDBRANCH  44  45
ENDBRANCH  42  44
ENDBRANCH  30  42
ENDBRANCH  28  30
ENDBRANCH   6  26
TORSDOF 10
ENDMDL
MODEL       43
REMARK 921   NORMALIZED FREE ENERGY PREDICTED BY IDOCK:   -4.89 KCAL/MOL
REMARK 922        TOTAL FREE ENERGY PREDICTED BY IDOCK:   -9.56 KCAL/MOL
REMARK 923 INTER-LIGAND FREE ENERGY PREDICTED BY IDOCK:   -9.10 KCAL/MOL
REMARK 924 INTRA-LIGAND FREE ENERGY PREDICTED BY IDOCK:   -0.46 KCAL/MOL
REMARK 927      BINDING AFFINITY PREDICTED BY RF-SCORE:    0.00 PKD
ROOT
HETATM    1  C   UNL     1      -6.259   9.762  67.655  1.00  0.00    -0.056 C  
HETATM    2  S   UNL     1      -6.687  10.441  69.269  1.00  0.00    -0.078 SA 
HETATM    3  C   UNL     1      -7.240   8.887  69.996  1.00  0.00    -0.054 C  
HETATM    4  C   UNL     1      -7.885   7.847  69.085  1.00  0.00    -0.109 C  
HETATM    5  CA  UNL     1      -7.970   7.965  67.735  1.00  0.00    -0.124 C  
HETATM    6  CA  UNL     1      -6.393  10.717  66.421  1.00  0.00    -0.109 C  
HETATM    7  O   UNL     1      -8.191   9.611  64.972  1.00  0.00    -0.124 OA 
HETATM    8  C   UNL     1      -8.672   6.906  66.802  1.00  0.00    -0.122 C  
HETATM    9  N   UNL     1      -7.406   9.061  67.136  1.00  0.00    -0.086 N  
HETATM   10  C   UNL     1      -7.479   9.692  65.945  1.00  0.00    -0.099 C  
HETATM   11  O   UNL     1      -7.938   6.515  65.839  1.00  0.00    -0.104 OA 
HETATM   12  OXT UNL     1      -9.827   6.529  67.138  1.00  0.00    -0.133 OA 
ENDROOT
BRANCH   4  13
HETATM   13  S   UNL     1      -8.694   6.616  70.047  1.00  0.00    -0.141 SA 
BRANCH  13  14
HETATM   14  C   UNL     1     -10.146   7.398  70.617  1.00  0.00    -0.190 A  
HETATM   15  N   UNL     1     -10.456   8.667  70.455  1.00  0.00    -0.202 NA 
HETATM   16  C   UNL     1     -11.632   8.944  71.132  1.00  0.00    -0.300 A  
HETATM   17  S   UNL     1     -11.357   6.439  71.384  1.00  0.00    -0.306 SA 
HETATM   18  C   UNL     1     -12.283   7.847  71.660  1.00  0.00    -0.308 A  
BRANCH  16  19
HETATM   19  C   UNL     1     -12.128  10.305  71.262  1.00  0.00    -0.479 A  
HETATM   20  C   UNL     1     -11.592  11.353  70.515  1.00  0.00    -0.168 A  
HETATM   21  C   UNL     1     -12.080  12.640  70.695  1.00  0.00    -0.226 A  
HETATM   22  C   UNL     1     -13.540  14.265  71.791  1.00  0.00    -0.395 C  
HETATM   23  N   UNL     1     -13.068  12.889  71.580  1.00  0.00    -0.380 NA 
HETATM   24  C   UNL     1     -13.165  10.582  72.151  1.00  0.00    -0.398 A  
HETATM   25  C   UNL     1     -13.626  11.881  72.291  1.00  0.00    -0.004 A  
ENDBRANCH  16  19
ENDBRANCH  13  14
ENDBRANCH   4  13
BRANCH   6  26
HETATM   26  N   UNL     1      -6.899  12.112  66.633  1.00  0.00    -0.361 N  
HETATM   27  H   UNL     1      -6.247  12.894  66.579  1.00  0.00     0.000 HD 
HETATM   28  C   UNL     1      -8.231  12.356  66.899  1.00  0.00    -0.089 C  
HETATM   29  O   UNL     1      -9.044  11.468  67.125  1.00  0.00    -0.161 OA 
BRANCH  28  30
HETATM   30  C   UNL     1      -8.680  13.822  66.901  1.00  0.00    -0.154 C  
BRANCH  30  31
HETATM   31  C   UNL     1      -7.699  14.857  67.259  1.00  0.00    -0.197 A  
HETATM   32  S   UNL     1      -5.758  15.954  68.217  1.00  0.00    -0.119 SA 
HETATM   33  N   UNL     1      -7.809  16.182  66.773  1.00  0.00    -0.244 NA 
HETATM   34  N   UNL     1      -6.638  14.564  68.025  1.00  0.00    -0.132 NA 
HETATM   35  C   UNL     1      -6.810  16.898  67.237  1.00  0.00    -0.166 A  
BRANCH  35  36
HETATM   36  N   UNL     1      -6.575  18.210  66.988  1.00  0.00    -0.176 NA 
HETATM   37  H   UNL     1      -5.908  18.514  66.280  1.00  0.00     0.000 HD 
HETATM   38  P   UNL     1      -7.420  19.268  67.885  1.00  0.00    -0.274 P  
HETATM   39  O   UNL     1      -7.359  20.596  66.987  1.00  0.00    -0.310 OA 
HETATM   40  O   UNL     1      -8.973  18.911  67.741  1.00  0.00    -0.284 OA 
HETATM   41  O   UNL     1      -7.001  19.532  69.293  1.00  0.00    -0.344 OA 
ENDBRANCH  35  36
ENDBRANCH  30  31
BRANCH  30  42
HETATM   42  N   UNL     1      -9.882  14.242  66.611  1.00  0.00    -0.271 NA 
HETATM   43  H   UNL     1     -10.465  14.763  67.267  1.00  0.00     0.000 HD 
BRANCH  42  44
HETATM   44  O   UNL     1     -10.297  13.909  65.313  1.00  0.00    -0.341 OA 
BRANCH  44  45
HETATM   45  C   UNL     1     -11.683  13.559  65.359  1.00  0.00    -0.332 C  
HETATM   46  C   UNL     1     -12.158  13.609  66.799  1.00  0.00    -0.445 C  
ENDBRANCH  44  45
ENDBRANCH  42  44
ENDBRANCH  30  42
ENDBRANCH  28  30
ENDBRANCH   6  26
TORSDOF 10
ENDMDL
MODEL       44
REMARK 921   NORMALIZED FREE ENERGY PREDICTED BY IDOCK:   -4.88 KCAL/MOL
REMARK 922        TOTAL FREE ENERGY PREDICTED BY IDOCK:   -9.54 KCAL/MOL
REMARK 923 INTER-LIGAND FREE ENERGY PREDICTED BY IDOCK:   -8.62 KCAL/MOL
REMARK 924 INTRA-LIGAND FREE ENERGY PREDICTED BY IDOCK:   -0.92 KCAL/MOL
REMARK 927      BINDING AFFINITY PREDICTED BY RF-SCORE:    0.00 PKD
ROOT
HETATM    1  C   UNL     1     -11.913   9.947  69.559  1.00  0.00     0.266 C  
HETATM    2  S   UNL     1     -10.329  10.494  68.895  1.00  0.00    -0.221 SA 
HETATM    3  C   UNL     1      -9.620   8.849  68.695  1.00  0.00    -0.153 C  
HETATM    4  C   UNL     1     -10.030   7.756  69.676  1.00  0.00    -0.190 C  
HETATM    5  CA  UNL     1     -10.985   7.909  70.630  1.00  0.00    -0.245 C  
HETATM    6  CA  UNL     1     -12.643  10.913  70.552  1.00  0.00    -0.324 C  
HETATM    7  O   UNL     1     -12.732   9.599  72.747  1.00  0.00    -0.042 OA 
HETATM    8  C   UNL     1     -11.377   6.788  71.668  1.00  0.00    -0.266 C  
HETATM    9  N   UNL     1     -11.662   9.098  70.696  1.00  0.00    -0.249 N  
HETATM   10  C   UNL     1     -12.439   9.752  71.586  1.00  0.00    -0.410 C  
HETATM   11  O   UNL     1     -12.627   6.548  71.705  1.00  0.00    -0.318 OA 
HETATM   12  OXT UNL     1     -10.432   6.228  72.284  1.00  0.00    -0.192 OA 
ENDROOT
BRANCH   4  13
HETATM   13  S   UNL     1      -8.938   6.383  69.546  1.00  0.00    -0.135 SA 
BRANCH  13  14
HETATM   14  C   UNL     1      -8.448   6.376  67.872  1.00  0.00    -0.118 A  
HETATM   15  N   UNL     1      -7.751   7.315  67.266  1.00  0.00    -0.107 NA 
HETATM   16  C   UNL     1      -7.645   7.012  65.919  1.00  0.00    -0.097 A  
HETATM   17  S   UNL     1      -8.803   4.990  66.910  1.00  0.00    -0.106 SA 
HETATM   18  C   UNL     1      -8.121   5.769  65.553  1.00  0.00    -0.128 A  
BRANCH  16  19
HETATM   19  C   UNL     1      -7.067   7.955  64.975  1.00  0.00    -0.060 A  
HETATM   20  C   UNL     1      -6.479   7.531  63.784  1.00  0.00    -0.053 A  
HETATM   21  C   UNL     1      -5.916   8.468  62.928  1.00  0.00    -0.086 A  
HETATM   22  C   UNL     1      -5.290  10.756  62.337  1.00  0.00    -0.156 C  
HETATM   23  N   UNL     1      -5.933   9.783  63.232  1.00  0.00    -0.101 NA 
HETATM   24  C   UNL     1      -7.095   9.320  65.255  1.00  0.00    -0.090 A  
HETATM   25  C   UNL     1      -6.527  10.220  64.367  1.00  0.00    -0.087 A  
ENDBRANCH  16  19
ENDBRANCH  13  14
ENDBRANCH   4  13
BRANCH   6  26
HETATM   26  N   UNL     1     -11.982  12.206  70.925  1.00  0.00    -0.378 N  
HETATM   27  H   UNL     1     -10.978  12.222  71.103  1.00  0.00     0.000 HD 
HETATM   28  C   UNL     1     -12.709  13.375  71.034  1.00  0.00    -0.307 C  
HETATM   29  O   UNL     1     -13.932  13.411  70.983  1.00  0.00     0.379 OA 
BRANCH  28  30
HETATM   30  C   UNL     1     -11.913  14.671  71.223  1.00  0.00    -0.343 C  
BRANCH  30  31
HETATM   31  C   UNL     1     -11.125  15.182  70.092  1.00  0.00    -0.274 A  
HETATM   32  S   UNL     1      -9.387  15.406  68.413  1.00  0.00    -0.198 SA 
HETATM   33  N   UNL     1     -11.546  16.308  69.344  1.00  0.00    -0.245 NA 
HETATM   34  N   UNL     1      -9.999  14.566  69.703  1.00  0.00     0.123 NA 
HETATM   35  C   UNL     1     -10.670  16.550  68.395  1.00  0.00    -0.339 A  
BRANCH  35  36
HETATM   36  N   UNL     1     -10.732  17.546  67.477  1.00  0.00    -0.324 NA 
HETATM   37  H   UNL     1     -11.339  17.490  66.659  1.00  0.00     0.000 HD 
HETATM   38  P   UNL     1      -9.781  18.834  67.755  1.00  0.00    -0.350 P  
HETATM   39  O   UNL     1     -10.497  19.976  66.886  1.00  0.00    -0.450 OA 
HETATM   40  O   UNL     1     -10.095  19.373  69.228  1.00  0.00    -0.378 OA 
HETATM   41  O   UNL     1      -8.322  18.744  67.457  1.00  0.00    -0.262 OA 
ENDBRANCH  35  36
ENDBRANCH  30  31
BRANCH  30  42
HETATM   42  N   UNL     1     -11.867  15.374  72.323  1.00  0.00    -0.420 NA 
HETATM   43  H   UNL     1     -11.290  16.209  72.428  1.00  0.00     0.000 HD 
BRANCH  42  44
HETATM   44  O   UNL     1     -12.686  14.873  73.345  1.00  0.00    -0.483 OA 
BRANCH  44  45
HETATM   45  C   UNL     1     -12.382  15.578  74.552  1.00  0.00    -0.600 C  
HETATM   46  C   UNL     1     -12.124  17.036  74.220  1.00  0.00    -0.100 C  
ENDBRANCH  44  45
ENDBRANCH  42  44
ENDBRANCH  30  42
ENDBRANCH  28  30
ENDBRANCH   6  26
TORSDOF 10
ENDMDL
MODEL       45
REMARK 921   NORMALIZED FREE ENERGY PREDICTED BY IDOCK:   -4.83 KCAL/MOL
REMARK 922        TOTAL FREE ENERGY PREDICTED BY IDOCK:   -9.46 KCAL/MOL
REMARK 923 INTER-LIGAND FREE ENERGY PREDICTED BY IDOCK:   -8.10 KCAL/MOL
REMARK 924 INTRA-LIGAND FREE ENERGY PREDICTED BY IDOCK:   -1.36 KCAL/MOL
REMARK 927      BINDING AFFINITY PREDICTED BY RF-SCORE:    0.00 PKD
ROOT
HETATM    1  C   UNL     1     -11.101  10.707  67.444  1.00  0.00    -0.272 C  
HETATM    2  S   UNL     1     -10.025  11.429  68.698  1.00  0.00    -0.179 SA 
HETATM    3  C   UNL     1     -10.792  13.061  68.699  1.00  0.00    -0.259 C  
HETATM    4  C   UNL     1     -11.393  13.583  67.399  1.00  0.00    -0.311 C  
HETATM    5  CA  UNL     1     -11.490  12.853  66.258  1.00  0.00    -0.348 C  
HETATM    6  CA  UNL     1     -10.490   9.581  66.543  1.00  0.00    -0.131 C  
HETATM    7  O   UNL     1     -10.558  10.569  64.182  1.00  0.00    -0.177 OA 
HETATM    8  C   UNL     1     -12.076  13.411  64.905  1.00  0.00    -0.392 C  
HETATM    9  N   UNL     1     -11.068  11.549  66.275  1.00  0.00    -0.292 N  
HETATM   10  C   UNL     1     -10.741  10.597  65.376  1.00  0.00    -0.036 C  
HETATM   11  O   UNL     1     -12.990  12.676  64.408  1.00  0.00    -0.740 OA 
HETATM   12  OXT UNL     1     -11.631  14.520  64.507  1.00  0.00    -0.395 OA 
ENDROOT
BRANCH   4  13
HETATM   13  S   UNL     1     -11.712  15.308  67.527  1.00  0.00    -0.017 SA 
BRANCH  13  14
HETATM   14  C   UNL     1     -10.133  16.047  67.454  1.00  0.00    -0.258 A  
HETATM   15  N   UNL     1      -9.539  16.702  68.430  1.00  0.00    -0.226 NA 
HETATM   16  C   UNL     1      -8.346  17.233  67.968  1.00  0.00    -0.228 A  
HETATM   17  S   UNL     1      -9.188  15.844  66.026  1.00  0.00    -0.302 SA 
HETATM   18  C   UNL     1      -7.974  16.835  66.700  1.00  0.00    -0.271 A  
BRANCH  16  19
HETATM   19  C   UNL     1      -7.557  18.142  68.784  1.00  0.00    -0.285 A  
HETATM   20  C   UNL     1      -7.910  19.482  68.936  1.00  0.00    -0.349 A  
HETATM   21  C   UNL     1      -7.110  20.318  69.703  1.00  0.00     0.125 A  
HETATM   22  C   UNL     1      -5.136  20.759  71.075  1.00  0.00    -0.183 C  
HETATM   23  N   UNL     1      -5.997  19.849  70.306  1.00  0.00    -0.308 NA 
HETATM   24  C   UNL     1      -6.418  17.675  69.437  1.00  0.00    -0.231 A  
HETATM   25  C   UNL     1      -5.653  18.544  70.199  1.00  0.00    -0.240 A  
ENDBRANCH  16  19
ENDBRANCH  13  14
ENDBRANCH   4  13
BRANCH   6  26
HETATM   26  N   UNL     1      -9.055   9.193  66.737  1.00  0.00    -0.140 N  
HETATM   27  H   UNL     1      -8.381   9.899  67.031  1.00  0.00     0.000 HD 
HETATM   28  C   UNL     1      -8.631   7.897  66.525  1.00  0.00    -0.142 C  
HETATM   29  O   UNL     1      -9.343   7.030  66.033  1.00  0.00    -0.096 OA 
BRANCH  28  30
HETATM   30  C   UNL     1      -7.195   7.561  66.942  1.00  0.00    -0.085 C  
BRANCH  30  31
HETATM   31  C   UNL     1      -6.983   6.798  68.182  1.00  0.00    -0.080 A  
HETATM   32  S   UNL     1      -5.907   5.516  69.939  1.00  0.00    -0.017 SA 
HETATM   33  N   UNL     1      -8.027   6.600  69.117  1.00  0.00    -0.110 NA 
HETATM   34  N   UNL     1      -5.775   6.302  68.487  1.00  0.00    -0.015 NA 
HETATM   35  C   UNL     1      -7.573   5.895  70.129  1.00  0.00    -0.090 A  
BRANCH  35  36
HETATM   36  N   UNL     1      -8.278   5.507  71.220  1.00  0.00    -0.122 NA 
HETATM   37  H   UNL     1      -8.169   5.966  72.125  1.00  0.00     0.000 HD 
HETATM   38  P   UNL     1      -9.307   4.269  71.003  1.00  0.00    -0.179 P  
HETATM   39  O   UNL     1     -10.328   4.460  72.225  1.00  0.00    -0.186 OA 
HETATM   40  O   UNL     1     -10.272   4.635  69.780  1.00  0.00    -0.234 OA 
HETATM   41  O   UNL     1      -8.773   2.877  70.940  1.00  0.00    -0.067 OA 
ENDBRANCH  35  36
ENDBRANCH  30  31
BRANCH  30  42
HETATM   42  N   UNL     1      -6.119   7.903  66.285  1.00  0.00    -0.044 NA 
HETATM   43  H   UNL     1      -5.602   7.258  65.686  1.00  0.00     0.000 HD 
BRANCH  42  44
HETATM   44  O   UNL     1      -5.743   9.240  66.477  1.00  0.00    -0.052 OA 
BRANCH  44  45
HETATM   45  C   UNL     1      -5.269   9.758  65.231  1.00  0.00    -0.046 C  
HETATM   46  C   UNL     1      -6.242   9.371  64.133  1.00  0.00    -0.092 C  
ENDBRANCH  44  45
ENDBRANCH  42  44
ENDBRANCH  30  42
ENDBRANCH  28  30
ENDBRANCH   6  26
TORSDOF 10
ENDMDL
MODEL       46
REMARK 921   NORMALIZED FREE ENERGY PREDICTED BY IDOCK:   -4.79 KCAL/MOL
REMARK 922        TOTAL FREE ENERGY PREDICTED BY IDOCK:   -9.40 KCAL/MOL
REMARK 923 INTER-LIGAND FREE ENERGY PREDICTED BY IDOCK:  -10.28 KCAL/MOL
REMARK 924 INTRA-LIGAND FREE ENERGY PREDICTED BY IDOCK:    0.88 KCAL/MOL
REMARK 927      BINDING AFFINITY PREDICTED BY RF-SCORE:    0.00 PKD
ROOT
HETATM    1  C   UNL     1     -11.612  14.926  66.156  1.00  0.00    -0.228 C  
HETATM    2  S   UNL     1     -11.646  13.416  67.140  1.00  0.00    -0.381 SA 
HETATM    3  C   UNL     1     -12.015  14.215  68.713  1.00  0.00    -0.332 C  
HETATM    4  C   UNL     1     -11.478  15.621  68.959  1.00  0.00    -0.363 C  
HETATM    5  CA  UNL     1     -10.830  16.362  68.024  1.00  0.00    -0.342 C  
HETATM    6  CA  UNL     1     -10.672  14.940  64.903  1.00  0.00    -0.405 C  
HETATM    7  O   UNL     1      -8.968  16.778  65.425  1.00  0.00    -0.160 OA 
HETATM    8  C   UNL     1     -10.242  17.800  68.294  1.00  0.00    -0.382 C  
HETATM    9  N   UNL     1     -10.683  15.846  66.763  1.00  0.00    -0.311 N  
HETATM   10  C   UNL     1      -9.926  16.086  65.671  1.00  0.00    -0.313 C  
HETATM   11  O   UNL     1     -10.622  18.670  67.447  1.00  0.00    -0.416 OA 
HETATM   12  OXT UNL     1      -9.530  17.938  69.324  1.00  0.00    -0.056 OA 
ENDROOT
BRANCH   4  13
HETATM   13  S   UNL     1     -11.608  16.031  70.665  1.00  0.00    -0.342 SA 
BRANCH  13  14
HETATM   14  C   UNL     1     -12.439  14.671  71.375  1.00  0.00    -0.344 A  
HETATM   15  N   UNL     1     -12.124  13.403  71.214  1.00  0.00    -0.068 NA 
HETATM   16  C   UNL     1     -13.070  12.610  71.844  1.00  0.00    -0.366 A  
HETATM   17  S   UNL     1     -13.735  14.972  72.472  1.00  0.00    -0.473 SA 
HETATM   18  C   UNL     1     -13.994  13.291  72.611  1.00  0.00    -0.182 A  
BRANCH  16  19
HETATM   19  C   UNL     1     -13.066  11.164  71.694  1.00  0.00    -0.529 A  
HETATM   20  C   UNL     1     -13.827  10.341  72.523  1.00  0.00     0.328 A  
HETATM   21  C   UNL     1     -13.769   8.963  72.358  1.00  0.00    -0.454 A  
HETATM   22  C   UNL     1     -12.905   6.950  71.275  1.00  0.00    -0.278 C  
HETATM   23  N   UNL     1     -12.990   8.412  71.404  1.00  0.00    -0.272 NA 
HETATM   24  C   UNL     1     -12.289  10.573  70.700  1.00  0.00    -0.449 A  
HETATM   25  C   UNL     1     -12.269   9.195  70.566  1.00  0.00     0.096 A  
ENDBRANCH  16  19
ENDBRANCH  13  14
ENDBRANCH   4  13
BRANCH   6  26
HETATM   26  N   UNL     1      -9.832  13.733  64.611  1.00  0.00    -0.543 N  
HETATM   27  H   UNL     1      -8.863  13.709  64.929  1.00  0.00     0.000 HD 
HETATM   28  C   UNL     1     -10.346  12.655  63.919  1.00  0.00    -0.377 C  
HETATM   29  O   UNL     1     -11.446  12.668  63.379  1.00  0.00    -0.487 OA 
BRANCH  28  30
HETATM   30  C   UNL     1      -9.473  11.397  63.848  1.00  0.00    -0.153 C  
BRANCH  30  31
HETATM   31  C   UNL     1      -9.175  10.677  65.095  1.00  0.00    -0.207 A  
HETATM   32  S   UNL     1      -8.833  10.197  67.449  1.00  0.00    -0.131 SA 
HETATM   33  N   UNL     1      -8.887   9.291  65.100  1.00  0.00    -0.188 NA 
HETATM   34  N   UNL     1      -9.212  11.306  66.279  1.00  0.00    -0.194 NA 
HETATM   35  C   UNL     1      -8.664   8.900  66.334  1.00  0.00    -0.129 A  
BRANCH  35  36
HETATM   36  N   UNL     1      -8.359   7.641  66.736  1.00  0.00    -0.122 NA 
HETATM   37  H   UNL     1      -8.629   7.287  67.654  1.00  0.00     0.000 HD 
HETATM   38  P   UNL     1      -7.536   6.731  65.671  1.00  0.00    -0.101 P  
HETATM   39  O   UNL     1      -7.853   5.244  66.182  1.00  0.00    -0.101 OA 
HETATM   40  O   UNL     1      -8.348   6.726  64.293  1.00  0.00    -0.016 OA 
HETATM   41  O   UNL     1      -6.071   6.955  65.495  1.00  0.00    -0.034 OA 
ENDBRANCH  35  36
ENDBRANCH  30  31
BRANCH  30  42
HETATM   42  N   UNL     1      -8.955  10.900  62.757  1.00  0.00    -0.278 NA 
HETATM   43  H   UNL     1      -9.504  10.402  62.055  1.00  0.00     0.000 HD 
BRANCH  42  44
HETATM   44  O   UNL     1      -7.575  11.117  62.640  1.00  0.00     0.054 OA 
BRANCH  44  45
HETATM   45  C   UNL     1      -6.942   9.860  62.382  1.00  0.00    -0.109 C  
HETATM   46  C   UNL     1      -7.993   8.765  62.399  1.00  0.00    -0.145 C  
ENDBRANCH  44  45
ENDBRANCH  42  44
ENDBRANCH  30  42
ENDBRANCH  28  30
ENDBRANCH   6  26
TORSDOF 10
ENDMDL
MODEL       47
REMARK 921   NORMALIZED FREE ENERGY PREDICTED BY IDOCK:   -4.73 KCAL/MOL
REMARK 922        TOTAL FREE ENERGY PREDICTED BY IDOCK:   -9.30 KCAL/MOL
REMARK 923 INTER-LIGAND FREE ENERGY PREDICTED BY IDOCK:   -7.86 KCAL/MOL
REMARK 924 INTRA-LIGAND FREE ENERGY PREDICTED BY IDOCK:   -1.44 KCAL/MOL
REMARK 927      BINDING AFFINITY PREDICTED BY RF-SCORE:    0.00 PKD
ROOT
HETATM    1  C   UNL     1      -9.618  14.616  65.349  1.00  0.00    -0.005 C  
HETATM    2  S   UNL     1      -8.794  13.603  66.592  1.00  0.00     0.020 SA 
HETATM    3  C   UNL     1      -8.814  12.071  65.642  1.00  0.00     0.276 C  
HETATM    4  C   UNL     1      -9.973  11.826  64.682  1.00  0.00    -0.243 C  
HETATM    5  CA  UNL     1     -10.941  12.738  64.408  1.00  0.00    -0.361 C  
HETATM    6  CA  UNL     1     -10.487  15.813  65.866  1.00  0.00    -0.352 C  
HETATM    7  O   UNL     1     -12.861  15.234  65.101  1.00  0.00     0.360 OA 
HETATM    8  C   UNL     1     -12.159  12.465  63.445  1.00  0.00    -0.524 C  
HETATM    9  N   UNL     1     -10.858  13.977  64.988  1.00  0.00    -0.368 N  
HETATM   10  C   UNL     1     -11.675  15.028  65.210  1.00  0.00    -0.200 C  
HETATM   11  O   UNL     1     -12.299  13.352  62.542  1.00  0.00     0.176 OA 
HETATM   12  OXT UNL     1     -12.804  11.399  63.632  1.00  0.00    -0.039 OA 
ENDROOT
BRANCH   4  13
HETATM   13  S   UNL     1     -10.000  10.140  64.181  1.00  0.00     0.161 SA 
BRANCH  13  14
HETATM   14  C   UNL     1      -9.470   9.260  65.591  1.00  0.00    -0.256 A  
HETATM   15  N   UNL     1     -10.198   8.995  66.656  1.00  0.00    -0.275 NA 
HETATM   16  C   UNL     1      -9.409   8.372  67.610  1.00  0.00    -0.137 A  
HETATM   17  S   UNL     1      -7.888   8.573  65.594  1.00  0.00    -0.107 SA 
HETATM   18  C   UNL     1      -8.139   8.026  67.191  1.00  0.00    -0.117 A  
BRANCH  16  19
HETATM   19  C   UNL     1      -9.908   8.110  68.950  1.00  0.00    -0.178 A  
HETATM   20  C   UNL     1     -10.847   7.110  69.199  1.00  0.00    -0.185 A  
HETATM   21  C   UNL     1     -11.313   6.916  70.492  1.00  0.00    -0.327 A  
HETATM   22  C   UNL     1     -11.406   7.493  72.866  1.00  0.00    -0.304 C  
HETATM   23  N   UNL     1     -10.867   7.681  71.511  1.00  0.00    -0.226 NA 
HETATM   24  C   UNL     1      -9.443   8.869  70.022  1.00  0.00    -0.189 A  
HETATM   25  C   UNL     1      -9.930   8.635  71.298  1.00  0.00    -0.246 A  
ENDBRANCH  16  19
ENDBRANCH  13  14
ENDBRANCH   4  13
BRANCH   6  26
HETATM   26  N   UNL     1     -10.619  16.030  67.343  1.00  0.00    -0.313 N  
HETATM   27  H   UNL     1     -10.578  15.229  67.972  1.00  0.00     0.000 HD 
HETATM   28  C   UNL     1     -10.797  17.295  67.866  1.00  0.00    -0.283 C  
HETATM   29  O   UNL     1     -11.004  18.284  67.174  1.00  0.00    -0.288 OA 
BRANCH  28  30
HETATM   30  C   UNL     1     -10.721  17.431  69.391  1.00  0.00     0.127 C  
BRANCH  30  31
HETATM   31  C   UNL     1     -11.217  16.323  70.221  1.00  0.00    -0.333 A  
HETATM   32  S   UNL     1     -12.097  15.078  72.109  1.00  0.00    -0.372 SA 
HETATM   33  N   UNL     1     -11.357  15.014  69.703  1.00  0.00    -0.269 NA 
HETATM   34  N   UNL     1     -11.597  16.531  71.490  1.00  0.00    -0.287 NA 
HETATM   35  C   UNL     1     -11.819  14.222  70.644  1.00  0.00    -0.281 A  
BRANCH  35  36
HETATM   36  N   UNL     1     -12.085  12.898  70.524  1.00  0.00    -0.497 NA 
HETATM   37  H   UNL     1     -12.583  12.379  71.247  1.00  0.00     0.000 HD 
HETATM   38  P   UNL     1     -11.563  12.187  69.160  1.00  0.00    -0.329 P  
HETATM   39  O   UNL     1     -12.499  10.886  69.078  1.00  0.00    -0.425 OA 
HETATM   40  O   UNL     1     -12.135  13.015  67.917  1.00  0.00    -0.321 OA 
HETATM   41  O   UNL     1     -10.118  11.838  69.024  1.00  0.00    -0.121 OA 
ENDBRANCH  35  36
ENDBRANCH  30  31
BRANCH  30  42
HETATM   42  N   UNL     1     -10.250  18.467  70.032  1.00  0.00     0.342 NA 
HETATM   43  H   UNL     1     -10.211  18.523  71.050  1.00  0.00     0.000 HD 
BRANCH  42  44
HETATM   44  O   UNL     1      -9.801  19.494  69.190  1.00  0.00    -0.433 OA 
BRANCH  44  45
HETATM   45  C   UNL     1      -8.388  19.633  69.362  1.00  0.00     0.192 C  
HETATM   46  C   UNL     1      -7.683  19.081  68.137  1.00  0.00    -0.326 C  
ENDBRANCH  44  45
ENDBRANCH  42  44
ENDBRANCH  30  42
ENDBRANCH  28  30
ENDBRANCH   6  26
TORSDOF 10
ENDMDL
MODEL       48
REMARK 921   NORMALIZED FREE ENERGY PREDICTED BY IDOCK:   -4.70 KCAL/MOL
REMARK 922        TOTAL FREE ENERGY PREDICTED BY IDOCK:   -9.25 KCAL/MOL
REMARK 923 INTER-LIGAND FREE ENERGY PREDICTED BY IDOCK:  -10.08 KCAL/MOL
REMARK 924 INTRA-LIGAND FREE ENERGY PREDICTED BY IDOCK:    0.83 KCAL/MOL
REMARK 927      BINDING AFFINITY PREDICTED BY RF-SCORE:    0.00 PKD
ROOT
HETATM    1  C   UNL     1      -7.232   8.899  68.412  1.00  0.00    -0.078 C  
HETATM    2  S   UNL     1      -8.140  10.278  69.138  1.00  0.00    -0.149 SA 
HETATM    3  C   UNL     1      -8.875   9.340  70.490  1.00  0.00    -0.241 C  
HETATM    4  C   UNL     1      -9.201   7.868  70.261  1.00  0.00    -0.152 C  
HETATM    5  CA  UNL     1      -8.870   7.181  69.138  1.00  0.00    -0.135 C  
HETATM    6  CA  UNL     1      -6.991   8.939  66.865  1.00  0.00    -0.078 C  
HETATM    7  O   UNL     1      -8.250   6.889  65.987  1.00  0.00    -0.112 OA 
HETATM    8  C   UNL     1      -9.244   5.669  68.889  1.00  0.00    -0.119 C  
HETATM    9  N   UNL     1      -8.159   7.825  68.159  1.00  0.00    -0.122 N  
HETATM   10  C   UNL     1      -7.871   7.641  66.854  1.00  0.00    -0.111 C  
HETATM   11  O   UNL     1      -8.247   4.948  68.563  1.00  0.00    -0.085 OA 
HETATM   12  OXT UNL     1     -10.442   5.338  69.094  1.00  0.00    -0.219 OA 
ENDROOT
BRANCH   4  13
HETATM   13  S   UNL     1     -10.255   7.273  71.538  1.00  0.00    -0.192 SA 
BRANCH  13  14
HETATM   14  C   UNL     1     -11.564   8.425  71.590  1.00  0.00    -0.289 A  
HETATM   15  N   UNL     1     -11.474   9.712  71.324  1.00  0.00    -0.369 NA 
HETATM   16  C   UNL     1     -12.694  10.320  71.572  1.00  0.00    -0.452 A  
HETATM   17  S   UNL     1     -13.158   7.855  71.921  1.00  0.00    -0.252 SA 
HETATM   18  C   UNL     1     -13.734   9.460  71.864  1.00  0.00    -0.368 A  
BRANCH  16  19
HETATM   19  C   UNL     1     -12.842  11.765  71.520  1.00  0.00    -0.450 A  
HETATM   20  C   UNL     1     -13.632  12.453  72.440  1.00  0.00    -0.262 A  
HETATM   21  C   UNL     1     -13.765  13.831  72.333  1.00  0.00    -0.591 A  
HETATM   22  C   UNL     1     -13.327  15.965  71.224  1.00  0.00     0.091 C  
HETATM   23  N   UNL     1     -13.137  14.513  71.351  1.00  0.00    -0.336 NA 
HETATM   24  C   UNL     1     -12.184  12.494  70.531  1.00  0.00    -0.382 A  
HETATM   25  C   UNL     1     -12.339  13.869  70.467  1.00  0.00    -0.369 A  
ENDBRANCH  16  19
ENDBRANCH  13  14
ENDBRANCH   4  13
BRANCH   6  26
HETATM   26  N   UNL     1      -7.550  10.080  66.071  1.00  0.00    -0.106 N  
HETATM   27  H   UNL     1      -6.914  10.763  65.661  1.00  0.00     0.000 HD 
HETATM   28  C   UNL     1      -8.910  10.224  65.887  1.00  0.00    -0.159 C  
HETATM   29  O   UNL     1      -9.743   9.537  66.466  1.00  0.00    -0.189 OA 
BRANCH  28  30
HETATM   30  C   UNL     1      -9.365  11.304  64.898  1.00  0.00    -0.159 C  
BRANCH  30  31
HETATM   31  C   UNL     1      -9.933  12.551  65.432  1.00  0.00    -0.219 A  
HETATM   32  S   UNL     1     -11.058  14.125  66.897  1.00  0.00    -0.316 SA 
HETATM   33  N   UNL     1      -9.799  13.781  64.743  1.00  0.00    -0.078 NA 
HETATM   34  N   UNL     1     -10.559  12.571  66.617  1.00  0.00    -0.235 NA 
HETATM   35  C   UNL     1     -10.388  14.730  65.433  1.00  0.00    -0.386 A  
BRANCH  35  36
HETATM   36  N   UNL     1     -10.467  16.041  65.095  1.00  0.00    -0.574 NA 
HETATM   37  H   UNL     1     -10.806  16.344  64.182  1.00  0.00     0.000 HD 
HETATM   38  P   UNL     1      -9.990  17.101  66.230  1.00  0.00    -0.261 P  
HETATM   39  O   UNL     1     -10.727  18.447  65.766  1.00  0.00    -0.482 OA 
HETATM   40  O   UNL     1     -10.804  16.791  67.572  1.00  0.00    -0.307 OA 
HETATM   41  O   UNL     1      -8.531  17.319  66.460  1.00  0.00    -0.236 OA 
ENDBRANCH  35  36
ENDBRANCH  30  31
BRANCH  30  42
HETATM   42  N   UNL     1      -9.297  11.211  63.597  1.00  0.00    -0.334 NA 
HETATM   43  H   UNL     1     -10.096  11.374  62.983  1.00  0.00     0.000 HD 
BRANCH  42  44
HETATM   44  O   UNL     1      -8.023  10.867  63.123  1.00  0.00    -0.003 OA 
BRANCH  44  45
HETATM   45  C   UNL     1      -8.126   9.632  62.410  1.00  0.00    -0.128 C  
HETATM   46  C   UNL     1      -6.984   8.724  62.826  1.00  0.00    -0.089 C  
ENDBRANCH  44  45
ENDBRANCH  42  44
ENDBRANCH  30  42
ENDBRANCH  28  30
ENDBRANCH   6  26
TORSDOF 10
ENDMDL
MODEL       49
REMARK 921   NORMALIZED FREE ENERGY PREDICTED BY IDOCK:   -4.69 KCAL/MOL
REMARK 922        TOTAL FREE ENERGY PREDICTED BY IDOCK:   -9.24 KCAL/MOL
REMARK 923 INTER-LIGAND FREE ENERGY PREDICTED BY IDOCK:   -7.36 KCAL/MOL
REMARK 924 INTRA-LIGAND FREE ENERGY PREDICTED BY IDOCK:   -1.88 KCAL/MOL
REMARK 927      BINDING AFFINITY PREDICTED BY RF-SCORE:    0.00 PKD
ROOT
HETATM    1  C   UNL     1      -7.968  10.293  65.304  1.00  0.00    -0.148 C  
HETATM    2  S   UNL     1      -9.115   9.630  64.081  1.00  0.00    -0.146 SA 
HETATM    3  C   UNL     1     -10.308  10.978  64.179  1.00  0.00    -0.369 C  
HETATM    4  C   UNL     1     -10.488  11.695  65.513  1.00  0.00    -0.273 C  
HETATM    5  CA  UNL     1      -9.727  11.460  66.612  1.00  0.00    -0.200 C  
HETATM    6  CA  UNL     1      -7.135   9.260  66.135  1.00  0.00    -0.091 C  
HETATM    7  O   UNL     1      -7.903   9.636  68.548  1.00  0.00    -0.084 OA 
HETATM    8  C   UNL     1      -9.943  12.175  68.001  1.00  0.00    -0.203 C  
HETATM    9  N   UNL     1      -8.699  10.559  66.518  1.00  0.00    -0.136 N  
HETATM   10  C   UNL     1      -7.913   9.853  67.359  1.00  0.00    -0.106 C  
HETATM   11  O   UNL     1      -8.884  12.708  68.466  1.00  0.00    -0.146 OA 
HETATM   12  OXT UNL     1     -11.117  12.191  68.455  1.00  0.00    -0.219 OA 
ENDROOT
BRANCH   4  13
HETATM   13  S   UNL     1     -11.951  12.673  65.484  1.00  0.00    -0.453 SA 
BRANCH  13  14
HETATM   14  C   UNL     1     -11.370  14.317  65.418  1.00  0.00    -0.329 A  
HETATM   15  N   UNL     1     -10.404  14.826  66.153  1.00  0.00    -0.291 NA 
HETATM   16  C   UNL     1     -10.296  16.183  65.895  1.00  0.00    -0.367 A  
HETATM   17  S   UNL     1     -12.027  15.380  64.230  1.00  0.00    -0.013 SA 
HETATM   18  C   UNL     1     -11.069  16.649  64.851  1.00  0.00    -0.129 A  
BRANCH  16  19
HETATM   19  C   UNL     1      -9.420  17.035  66.683  1.00  0.00    -0.279 A  
HETATM   20  C   UNL     1      -8.048  17.096  66.443  1.00  0.00    -0.337 A  
HETATM   21  C   UNL     1      -7.249  17.904  67.240  1.00  0.00    -0.184 A  
HETATM   22  C   UNL     1      -6.916  19.448  69.106  1.00  0.00    -0.355 C  
HETATM   23  N   UNL     1      -7.784  18.634  68.242  1.00  0.00    -0.288 NA 
HETATM   24  C   UNL     1      -9.952  17.818  67.706  1.00  0.00    -0.322 A  
HETATM   25  C   UNL     1      -9.118  18.617  68.471  1.00  0.00    -0.329 A  
ENDBRANCH  16  19
ENDBRANCH  13  14
ENDBRANCH   4  13
BRANCH   6  26
HETATM   26  N   UNL     1      -7.355   7.795  65.904  1.00  0.00    -0.072 N  
HETATM   27  H   UNL     1      -8.197   7.486  65.418  1.00  0.00     0.000 HD 
HETATM   28  C   UNL     1      -6.440   6.857  66.337  1.00  0.00    -0.051 C  
HETATM   29  O   UNL     1      -5.485   7.133  67.052  1.00  0.00    -0.020 OA 
BRANCH  28  30
HETATM   30  C   UNL     1      -6.659   5.411  65.878  1.00  0.00    -0.045 C  
BRANCH  30  31
HETATM   31  C   UNL     1      -7.408   4.501  66.756  1.00  0.00    -0.081 A  
HETATM   32  S   UNL     1      -8.196   2.475  67.835  1.00  0.00    -0.065 SA 
HETATM   33  N   UNL     1      -8.347   4.985  67.698  1.00  0.00    -0.105 NA 
HETATM   34  N   UNL     1      -7.191   3.178  66.722  1.00  0.00    -0.058 NA 
HETATM   35  C   UNL     1      -8.867   3.972  68.352  1.00  0.00    -0.107 A  
BRANCH  35  36
HETATM   36  N   UNL     1      -9.800   4.040  69.333  1.00  0.00    -0.133 NA 
HETATM   37  H   UNL     1     -10.625   3.441  69.338  1.00  0.00     0.000 HD 
HETATM   38  P   UNL     1      -9.526   5.134  70.503  1.00  0.00    -0.196 P  
HETATM   39  O   UNL     1     -10.421   4.571  71.709  1.00  0.00    -0.152 OA 
HETATM   40  O   UNL     1      -8.065   4.868  71.098  1.00  0.00    -0.096 OA 
HETATM   41  O   UNL     1      -9.803   6.576  70.235  1.00  0.00    -0.167 OA 
ENDBRANCH  35  36
ENDBRANCH  30  31
BRANCH  30  42
HETATM   42  N   UNL     1      -6.226   4.904  64.755  1.00  0.00    -0.032 NA 
HETATM   43  H   UNL     1      -5.340   4.403  64.673  1.00  0.00     0.000 HD 
BRANCH  42  44
HETATM   44  O   UNL     1      -7.092   5.111  63.672  1.00  0.00    -0.046 OA 
BRANCH  44  45
HETATM   45  C   UNL     1      -7.199   3.887  62.940  1.00  0.00    -0.048 C  
HETATM   46  C   UNL     1      -8.524   3.227  63.271  1.00  0.00    -0.089 C  
ENDBRANCH  44  45
ENDBRANCH  42  44
ENDBRANCH  30  42
ENDBRANCH  28  30
ENDBRANCH   6  26
TORSDOF 10
ENDMDL
MODEL       50
REMARK 921   NORMALIZED FREE ENERGY PREDICTED BY IDOCK:   -4.68 KCAL/MOL
REMARK 922        TOTAL FREE ENERGY PREDICTED BY IDOCK:   -9.23 KCAL/MOL
REMARK 923 INTER-LIGAND FREE ENERGY PREDICTED BY IDOCK:   -7.53 KCAL/MOL
REMARK 924 INTRA-LIGAND FREE ENERGY PREDICTED BY IDOCK:   -1.70 KCAL/MOL
REMARK 927      BINDING AFFINITY PREDICTED BY RF-SCORE:    0.00 PKD
ROOT
HETATM    1  C   UNL     1      -8.575  11.144  65.153  1.00  0.00     0.069 C  
HETATM    2  S   UNL     1     -10.246  10.501  65.367  1.00  0.00    -0.235 SA 
HETATM    3  C   UNL     1     -10.963  12.024  66.011  1.00  0.00    -0.304 C  
HETATM    4  C   UNL     1     -10.077  12.952  66.836  1.00  0.00    -0.241 C  
HETATM    5  CA  UNL     1      -8.746  12.764  67.026  1.00  0.00    -0.197 C  
HETATM    6  CA  UNL     1      -7.395  10.124  65.296  1.00  0.00    -0.141 C  
HETATM    7  O   UNL     1      -6.077  10.979  67.317  1.00  0.00    -0.057 OA 
HETATM    8  C   UNL     1      -7.843  13.705  67.912  1.00  0.00    -0.159 C  
HETATM    9  N   UNL     1      -8.138  11.704  66.407  1.00  0.00    -0.084 N  
HETATM   10  C   UNL     1      -6.983  11.014  66.519  1.00  0.00    -0.138 C  
HETATM   11  O   UNL     1      -6.802  14.122  67.309  1.00  0.00    -0.226 OA 
HETATM   12  OXT UNL     1      -8.268  13.981  69.065  1.00  0.00    -0.033 OA 
ENDROOT
BRANCH   4  13
HETATM   13  S   UNL     1     -11.063  14.140  67.680  1.00  0.00    -0.292 SA 
BRANCH  13  14
HETATM   14  C   UNL     1     -11.621  13.304  69.107  1.00  0.00    -0.319 A  
HETATM   15  N   UNL     1     -11.439  12.028  69.376  1.00  0.00    -0.291 NA 
HETATM   16  C   UNL     1     -12.112  11.704  70.543  1.00  0.00    -0.366 A  
HETATM   17  S   UNL     1     -12.401  14.213  70.347  1.00  0.00    -0.368 SA 
HETATM   18  C   UNL     1     -12.656  12.772  71.228  1.00  0.00    -0.250 A  
BRANCH  16  19
HETATM   19  C   UNL     1     -12.221  10.327  70.995  1.00  0.00    -0.487 A  
HETATM   20  C   UNL     1     -13.299   9.893  71.766  1.00  0.00    -0.501 A  
HETATM   21  C   UNL     1     -13.345   8.574  72.197  1.00  0.00    -0.351 A  
HETATM   22  C   UNL     1     -12.404   6.325  72.380  1.00  0.00    -0.024 C  
HETATM   23  N   UNL     1     -12.363   7.706  71.876  1.00  0.00    -0.302 NA 
HETATM   24  C   UNL     1     -11.233   9.405  70.655  1.00  0.00    -0.345 A  
HETATM   25  C   UNL     1     -11.324   8.097  71.100  1.00  0.00    -0.269 A  
ENDBRANCH  16  19
ENDBRANCH  13  14
ENDBRANCH   4  13
BRANCH   6  26
HETATM   26  N   UNL     1      -7.704   8.698  65.636  1.00  0.00    -0.089 N  
HETATM   27  H   UNL     1      -8.234   8.488  66.481  1.00  0.00     0.000 HD 
HETATM   28  C   UNL     1      -7.283   7.662  64.826  1.00  0.00    -0.067 C  
HETATM   29  O   UNL     1      -6.520   7.819  63.880  1.00  0.00    -0.056 OA 
BRANCH  28  30
HETATM   30  C   UNL     1      -7.819   6.264  65.153  1.00  0.00    -0.109 C  
BRANCH  30  31
HETATM   31  C   UNL     1      -7.374   5.614  66.395  1.00  0.00    -0.078 A  
HETATM   32  S   UNL     1      -5.952   4.589  68.073  1.00  0.00    -0.028 SA 
HETATM   33  N   UNL     1      -8.272   5.349  67.456  1.00  0.00    -0.101 NA 
HETATM   34  N   UNL     1      -6.085   5.291  66.579  1.00  0.00    -0.026 NA 
HETATM   35  C   UNL     1      -7.622   4.771  68.440  1.00  0.00    -0.077 A  
BRANCH  35  36
HETATM   36  N   UNL     1      -8.145   4.371  69.626  1.00  0.00    -0.060 NA 
HETATM   37  H   UNL     1      -8.310   5.024  70.391  1.00  0.00     0.000 HD 
HETATM   38  P   UNL     1      -8.492   2.789  69.754  1.00  0.00    -0.064 P  
HETATM   39  O   UNL     1      -9.564   2.775  70.947  1.00  0.00    -0.151 OA 
HETATM   40  O   UNL     1      -9.439   2.388  68.529  1.00  0.00    -0.194 OA 
HETATM   41  O   UNL     1      -7.387   1.814  69.992  1.00  0.00    -0.036 OA 
ENDBRANCH  35  36
ENDBRANCH  30  31
BRANCH  30  42
HETATM   42  N   UNL     1      -8.648   5.582  64.410  1.00  0.00    -0.300 NA 
HETATM   43  H   UNL     1      -9.305   4.899  64.789  1.00  0.00     0.000 HD 
BRANCH  42  44
HETATM   44  O   UNL     1      -8.553   5.878  63.043  1.00  0.00    -0.004 OA 
BRANCH  44  45
HETATM   45  C   UNL     1      -8.351   4.655  62.330  1.00  0.00    -0.084 C  
HETATM   46  C   UNL     1      -9.128   3.548  63.018  1.00  0.00    -0.096 C  
ENDBRANCH  44  45
ENDBRANCH  42  44
ENDBRANCH  30  42
ENDBRANCH  28  30
ENDBRANCH   6  26
TORSDOF 10
ENDMDL
MODEL       51
REMARK 921   NORMALIZED FREE ENERGY PREDICTED BY IDOCK:   -4.67 KCAL/MOL
REMARK 922        TOTAL FREE ENERGY PREDICTED BY IDOCK:   -9.22 KCAL/MOL
REMARK 923 INTER-LIGAND FREE ENERGY PREDICTED BY IDOCK:   -7.75 KCAL/MOL
REMARK 924 INTRA-LIGAND FREE ENERGY PREDICTED BY IDOCK:   -1.46 KCAL/MOL
REMARK 927      BINDING AFFINITY PREDICTED BY RF-SCORE:    0.00 PKD
ROOT
HETATM    1  C   UNL     1      -9.754   7.927  67.321  1.00  0.00    -0.176 C  
HETATM    2  S   UNL     1      -8.925   8.324  68.873  1.00  0.00    -0.144 SA 
HETATM    3  C   UNL     1      -8.587  10.051  68.479  1.00  0.00    -0.119 C  
HETATM    4  C   UNL     1      -8.335  10.429  67.023  1.00  0.00    -0.127 C  
HETATM    5  CA  UNL     1      -8.460   9.568  65.981  1.00  0.00    -0.124 C  
HETATM    6  CA  UNL     1      -9.639   6.452  66.809  1.00  0.00    -0.155 C  
HETATM    7  O   UNL     1      -8.382   6.661  64.588  1.00  0.00    -0.087 OA 
HETATM    8  C   UNL     1      -8.160   9.954  64.482  1.00  0.00    -0.149 C  
HETATM    9  N   UNL     1      -8.881   8.289  66.232  1.00  0.00    -0.152 N  
HETATM   10  C   UNL     1      -8.884   7.098  65.596  1.00  0.00    -0.015 C  
HETATM   11  O   UNL     1      -9.114   9.671  63.686  1.00  0.00    -0.242 OA 
HETATM   12  OXT UNL     1      -7.068  10.538  64.252  1.00  0.00    -0.032 OA 
ENDROOT
BRANCH   4  13
HETATM   13  S   UNL     1      -7.643  12.044  66.926  1.00  0.00     0.003 SA 
BRANCH  13  14
HETATM   14  C   UNL     1      -8.963  13.106  67.346  1.00  0.00    -0.201 A  
HETATM   15  N   UNL     1      -9.320  13.450  68.565  1.00  0.00    -0.148 NA 
HETATM   16  C   UNL     1     -10.471  14.220  68.507  1.00  0.00    -0.253 A  
HETATM   17  S   UNL     1      -9.844  13.874  66.078  1.00  0.00    -0.259 SA 
HETATM   18  C   UNL     1     -10.874  14.584  67.238  1.00  0.00    -0.297 A  
BRANCH  16  19
HETATM   19  C   UNL     1     -11.184  14.606  69.714  1.00  0.00    -0.296 A  
HETATM   20  C   UNL     1     -10.987  15.848  70.315  1.00  0.00    -0.370 A  
HETATM   21  C   UNL     1     -11.671  16.160  71.482  1.00  0.00    -0.464 A  
HETATM   22  C   UNL     1     -13.209  15.606  73.300  1.00  0.00    -0.557 C  
HETATM   23  N   UNL     1     -12.528  15.277  72.039  1.00  0.00    -0.328 NA 
HETATM   24  C   UNL     1     -12.093  13.722  70.293  1.00  0.00    -0.425 A  
HETATM   25  C   UNL     1     -12.760  14.079  71.454  1.00  0.00    -0.364 A  
ENDBRANCH  16  19
ENDBRANCH  13  14
ENDBRANCH   4  13
BRANCH   6  26
HETATM   26  N   UNL     1      -8.829   5.469  67.598  1.00  0.00    -0.107 N  
HETATM   27  H   UNL     1      -8.190   5.809  68.316  1.00  0.00     0.000 HD 
HETATM   28  C   UNL     1      -8.931   4.112  67.370  1.00  0.00    -0.125 C  
HETATM   29  O   UNL     1      -9.559   3.635  66.432  1.00  0.00    -0.189 OA 
BRANCH  28  30
HETATM   30  C   UNL     1      -8.215   3.186  68.360  1.00  0.00    -0.068 C  
BRANCH  30  31
HETATM   31  C   UNL     1      -8.680   3.154  69.754  1.00  0.00    -0.073 A  
HETATM   32  S   UNL     1      -9.437   2.332  71.909  1.00  0.00    -0.127 SA 
HETATM   33  N   UNL     1      -8.817   4.338  70.518  1.00  0.00    -0.082 NA 
HETATM   34  N   UNL     1      -8.947   1.990  70.364  1.00  0.00    -0.072 NA 
HETATM   35  C   UNL     1      -9.242   4.030  71.722  1.00  0.00    -0.128 A  
BRANCH  35  36
HETATM   36  N   UNL     1      -9.489   4.897  72.734  1.00  0.00    -0.135 NA 
HETATM   37  H   UNL     1      -8.806   5.077  73.471  1.00  0.00     0.000 HD 
HETATM   38  P   UNL     1     -10.937   5.633  72.707  1.00  0.00    -0.300 P  
HETATM   39  O   UNL     1     -10.676   6.927  73.618  1.00  0.00    -0.343 OA 
HETATM   40  O   UNL     1     -11.111   6.333  71.279  1.00  0.00    -0.266 OA 
HETATM   41  O   UNL     1     -12.149   4.881  73.148  1.00  0.00    -0.146 OA 
ENDBRANCH  35  36
ENDBRANCH  30  31
BRANCH  30  42
HETATM   42  N   UNL     1      -7.204   2.412  68.071  1.00  0.00    -0.048 NA 
HETATM   43  H   UNL     1      -6.606   1.986  68.780  1.00  0.00     0.000 HD 
BRANCH  42  44
HETATM   44  O   UNL     1      -7.018   2.218  66.694  1.00  0.00    -0.043 OA 
BRANCH  44  45
HETATM   45  C   UNL     1      -5.667   1.803  66.476  1.00  0.00    -0.018 C  
HETATM   46  C   UNL     1      -5.388   1.793  64.984  1.00  0.00    -0.005 C  
ENDBRANCH  44  45
ENDBRANCH  42  44
ENDBRANCH  30  42
ENDBRANCH  28  30
ENDBRANCH   6  26
TORSDOF 10
ENDMDL
MODEL       52
REMARK 921   NORMALIZED FREE ENERGY PREDICTED BY IDOCK:   -4.66 KCAL/MOL
REMARK 922        TOTAL FREE ENERGY PREDICTED BY IDOCK:   -9.19 KCAL/MOL
REMARK 923 INTER-LIGAND FREE ENERGY PREDICTED BY IDOCK:   -9.07 KCAL/MOL
REMARK 924 INTRA-LIGAND FREE ENERGY PREDICTED BY IDOCK:   -0.13 KCAL/MOL
REMARK 927      BINDING AFFINITY PREDICTED BY RF-SCORE:    0.00 PKD
ROOT
HETATM    1  C   UNL     1      -6.990   6.941  69.763  1.00  0.00    -0.062 C  
HETATM    2  S   UNL     1      -8.055   8.356  69.425  1.00  0.00    -0.115 SA 
HETATM    3  C   UNL     1      -9.016   8.248  70.946  1.00  0.00    -0.151 C  
HETATM    4  C   UNL     1      -9.254   6.872  71.559  1.00  0.00    -0.151 C  
HETATM    5  CA  UNL     1      -8.694   5.725  71.096  1.00  0.00    -0.135 C  
HETATM    6  CA  UNL     1      -6.454   6.140  68.529  1.00  0.00    -0.053 C  
HETATM    7  O   UNL     1      -7.467   3.806  68.814  1.00  0.00    -0.054 OA 
HETATM    8  C   UNL     1      -8.975   4.299  71.709  1.00  0.00    -0.120 C  
HETATM    9  N   UNL     1      -7.823   5.799  70.041  1.00  0.00    -0.090 N  
HETATM   10  C   UNL     1      -7.282   4.956  69.136  1.00  0.00    -0.053 C  
HETATM   11  O   UNL     1      -7.916   3.658  72.005  1.00  0.00    -0.065 OA 
HETATM   12  OXT UNL     1     -10.182   3.986  71.890  1.00  0.00    -0.167 OA 
ENDROOT
BRANCH   4  13
HETATM   13  S   UNL     1     -10.521   6.961  72.777  1.00  0.00    -0.244 SA 
BRANCH  13  14
HETATM   14  C   UNL     1     -11.662   8.111  72.131  1.00  0.00    -0.359 A  
HETATM   15  N   UNL     1     -11.441   9.395  71.935  1.00  0.00    -0.333 NA 
HETATM   16  C   UNL     1     -12.610  10.004  71.509  1.00  0.00    -0.425 A  
HETATM   17  S   UNL     1     -13.200   7.542  71.595  1.00  0.00    -0.322 SA 
HETATM   18  C   UNL     1     -13.655   9.146  71.230  1.00  0.00    -0.213 A  
BRANCH  16  19
HETATM   19  C   UNL     1     -12.703  11.448  71.372  1.00  0.00    -0.489 A  
HETATM   20  C   UNL     1     -13.368  12.232  72.314  1.00  0.00    -0.375 A  
HETATM   21  C   UNL     1     -13.454  13.604  72.125  1.00  0.00    -0.512 A  
HETATM   22  C   UNL     1     -13.040  15.638  70.834  1.00  0.00    -0.367 C  
HETATM   23  N   UNL     1     -12.899  14.190  71.042  1.00  0.00    -0.343 NA 
HETATM   24  C   UNL     1     -12.116  12.079  70.276  1.00  0.00    -0.395 A  
HETATM   25  C   UNL     1     -12.220  13.453  70.132  1.00  0.00    -0.315 A  
ENDBRANCH  16  19
ENDBRANCH  13  14
ENDBRANCH   4  13
BRANCH   6  26
HETATM   26  N   UNL     1      -6.876   6.558  67.152  1.00  0.00    -0.064 N  
HETATM   27  H   UNL     1      -6.223   7.072  66.563  1.00  0.00     0.000 HD 
HETATM   28  C   UNL     1      -8.134   6.258  66.669  1.00  0.00    -0.110 C  
HETATM   29  O   UNL     1      -9.022   5.777  67.362  1.00  0.00    -0.111 OA 
BRANCH  28  30
HETATM   30  C   UNL     1      -8.395   6.552  65.187  1.00  0.00    -0.100 C  
BRANCH  30  31
HETATM   31  C   UNL     1      -8.278   7.939  64.714  1.00  0.00    -0.108 A  
HETATM   32  S   UNL     1      -7.968   9.854  63.257  1.00  0.00    -0.159 SA 
HETATM   33  N   UNL     1      -8.473   9.038  65.585  1.00  0.00    -0.141 NA 
HETATM   34  N   UNL     1      -8.027   8.208  63.425  1.00  0.00    -0.155 NA 
HETATM   35  C   UNL     1      -8.316  10.156  64.913  1.00  0.00    -0.164 A  
BRANCH  35  36
HETATM   36  N   UNL     1      -8.427  11.414  65.407  1.00  0.00    -0.382 NA 
HETATM   37  H   UNL     1      -7.647  12.071  65.391  1.00  0.00     0.000 HD 
HETATM   38  P   UNL     1      -9.876  11.813  66.024  1.00  0.00    -0.243 P  
HETATM   39  O   UNL     1      -9.841  13.415  65.960  1.00  0.00    -0.286 OA 
HETATM   40  O   UNL     1     -10.987  11.518  64.912  1.00  0.00    -0.298 OA 
HETATM   41  O   UNL     1     -10.253  11.321  67.382  1.00  0.00    -0.181 OA 
ENDBRANCH  35  36
ENDBRANCH  30  31
BRANCH  30  42
HETATM   42  N   UNL     1      -8.724   5.662  64.289  1.00  0.00    -0.347 NA 
HETATM   43  H   UNL     1      -9.401   5.841  63.547  1.00  0.00     0.000 HD 
BRANCH  42  44
HETATM   44  O   UNL     1      -8.058   4.437  64.441  1.00  0.00    -0.092 OA 
BRANCH  44  45
HETATM   45  C   UNL     1      -8.619   3.501  63.516  1.00  0.00    -0.090 C  
HETATM   46  C   UNL     1      -9.369   2.432  64.289  1.00  0.00    -0.130 C  
ENDBRANCH  44  45
ENDBRANCH  42  44
ENDBRANCH  30  42
ENDBRANCH  28  30
ENDBRANCH   6  26
TORSDOF 10
ENDMDL
MODEL       53
REMARK 921   NORMALIZED FREE ENERGY PREDICTED BY IDOCK:   -4.44 KCAL/MOL
REMARK 922        TOTAL FREE ENERGY PREDICTED BY IDOCK:   -8.84 KCAL/MOL
REMARK 923 INTER-LIGAND FREE ENERGY PREDICTED BY IDOCK:   -7.42 KCAL/MOL
REMARK 924 INTRA-LIGAND FREE ENERGY PREDICTED BY IDOCK:   -1.42 KCAL/MOL
REMARK 927      BINDING AFFINITY PREDICTED BY RF-SCORE:    0.00 PKD
ROOT
HETATM    1  C   UNL     1     -10.953  11.229  67.799  1.00  0.00    -0.252 C  
HETATM    2  S   UNL     1      -9.375  10.464  67.377  1.00  0.00    -0.146 SA 
HETATM    3  C   UNL     1      -9.844   8.783  67.832  1.00  0.00    -0.169 C  
HETATM    4  C   UNL     1     -10.839   8.589  68.971  1.00  0.00    -0.001 C  
HETATM    5  CA  UNL     1     -11.486   9.604  69.598  1.00  0.00    -0.001 C  
HETATM    6  CA  UNL     1     -10.918  12.720  68.275  1.00  0.00    -0.252 C  
HETATM    7  O   UNL     1     -11.793  12.626  70.679  1.00  0.00    -0.208 OA 
HETATM    8  C   UNL     1     -12.484   9.400  70.801  1.00  0.00    -0.081 C  
HETATM    9  N   UNL     1     -11.278  10.886  69.160  1.00  0.00    -0.233 N  
HETATM   10  C   UNL     1     -11.474  12.139  69.621  1.00  0.00    -0.238 C  
HETATM   11  O   UNL     1     -13.613   9.963  70.625  1.00  0.00    -0.183 OA 
HETATM   12  OXT UNL     1     -12.089   8.672  71.751  1.00  0.00    -0.298 OA 
ENDROOT
BRANCH   4  13
HETATM   13  S   UNL     1     -10.838   6.910  69.497  1.00  0.00    -0.248 SA 
BRANCH  13  14
HETATM   14  C   UNL     1      -9.429   6.776  70.518  1.00  0.00    -0.169 A  
HETATM   15  N   UNL     1      -8.837   5.656  70.876  1.00  0.00    -0.138 NA 
HETATM   16  C   UNL     1      -7.818   5.940  71.771  1.00  0.00    -0.103 A  
HETATM   17  S   UNL     1      -8.651   8.221  71.049  1.00  0.00    -0.157 SA 
HETATM   18  C   UNL     1      -7.547   7.282  71.951  1.00  0.00    -0.085 A  
BRANCH  16  19
HETATM   19  C   UNL     1      -7.099   4.881  72.459  1.00  0.00    -0.077 A  
HETATM   20  C   UNL     1      -6.319   3.956  71.765  1.00  0.00    -0.015 A  
HETATM   21  C   UNL     1      -5.673   2.945  72.464  1.00  0.00    -0.008 A  
HETATM   22  C   UNL     1      -5.134   1.745  74.524  1.00  0.00     0.000 C  
HETATM   23  N   UNL     1      -5.787   2.849  73.806  1.00  0.00     0.000 NA 
HETATM   24  C   UNL     1      -7.180   4.776  73.846  1.00  0.00    -0.078 A  
HETATM   25  C   UNL     1      -6.512   3.756  74.503  1.00  0.00    -0.039 A  
ENDBRANCH  16  19
ENDBRANCH  13  14
ENDBRANCH   4  13
BRANCH   6  26
HETATM   26  N   UNL     1      -9.595  13.415  68.393  1.00  0.00    -0.281 N  
HETATM   27  H   UNL     1      -9.208  13.600  69.318  1.00  0.00     0.000 HD 
HETATM   28  C   UNL     1      -8.891  13.808  67.272  1.00  0.00    -0.220 C  
HETATM   29  O   UNL     1      -9.353  13.756  66.139  1.00  0.00    -0.201 OA 
BRANCH  28  30
HETATM   30  C   UNL     1      -7.466  14.327  67.495  1.00  0.00    -0.182 C  
BRANCH  30  31
HETATM   31  C   UNL     1      -7.229  15.777  67.440  1.00  0.00    -0.202 A  
HETATM   32  S   UNL     1      -6.177  17.921  67.014  1.00  0.00    -0.163 SA 
HETATM   33  N   UNL     1      -8.199  16.704  67.893  1.00  0.00    -0.178 NA 
HETATM   34  N   UNL     1      -6.099  16.270  66.914  1.00  0.00    -0.321 NA 
HETATM   35  C   UNL     1      -7.740  17.924  67.729  1.00  0.00    -0.220 A  
BRANCH  35  36
HETATM   36  N   UNL     1      -8.385  19.075  68.043  1.00  0.00    -0.291 NA 
HETATM   37  H   UNL     1      -7.977  19.769  68.670  1.00  0.00     0.000 HD 
HETATM   38  P   UNL     1      -9.845  19.284  67.363  1.00  0.00    -0.385 P  
HETATM   39  O   UNL     1     -10.034  20.874  67.452  1.00  0.00    -0.397 OA 
HETATM   40  O   UNL     1      -9.683  19.115  65.780  1.00  0.00    -0.428 OA 
HETATM   41  O   UNL     1     -11.022  18.554  67.919  1.00  0.00    -0.286 OA 
ENDBRANCH  35  36
ENDBRANCH  30  31
BRANCH  30  42
HETATM   42  N   UNL     1      -6.421  13.580  67.729  1.00  0.00    -0.159 NA 
HETATM   43  H   UNL     1      -5.513  13.737  67.291  1.00  0.00     0.000 HD 
BRANCH  42  44
HETATM   44  O   UNL     1      -6.663  12.542  68.641  1.00  0.00    -0.075 OA 
BRANCH  44  45
HETATM   45  C   UNL     1      -5.455  12.282  69.360  1.00  0.00    -0.074 C  
HETATM   46  C   UNL     1      -5.521  12.979  70.706  1.00  0.00    -0.179 C  
ENDBRANCH  44  45
ENDBRANCH  42  44
ENDBRANCH  30  42
ENDBRANCH  28  30
ENDBRANCH   6  26
TORSDOF 10
ENDMDL
MODEL       54
REMARK 921   NORMALIZED FREE ENERGY PREDICTED BY IDOCK:   -4.39 KCAL/MOL
REMARK 922        TOTAL FREE ENERGY PREDICTED BY IDOCK:   -8.76 KCAL/MOL
REMARK 923 INTER-LIGAND FREE ENERGY PREDICTED BY IDOCK:   -7.41 KCAL/MOL
REMARK 924 INTRA-LIGAND FREE ENERGY PREDICTED BY IDOCK:   -1.35 KCAL/MOL
REMARK 927      BINDING AFFINITY PREDICTED BY RF-SCORE:    0.00 PKD
ROOT
HETATM    1  C   UNL     1     -11.110  10.260  67.694  1.00  0.00    -0.251 C  
HETATM    2  S   UNL     1     -10.448  10.990  69.204  1.00  0.00    -0.181 SA 
HETATM    3  C   UNL     1     -11.035  12.665  68.886  1.00  0.00    -0.229 C  
HETATM    4  C   UNL     1     -11.131  13.140  67.441  1.00  0.00    -0.275 C  
HETATM    5  CA  UNL     1     -10.910  12.345  66.362  1.00  0.00    -0.258 C  
HETATM    6  CA  UNL     1     -10.334   9.040  67.091  1.00  0.00    -0.272 C  
HETATM    7  O   UNL     1      -9.543   9.875  64.804  1.00  0.00    -0.289 OA 
HETATM    8  C   UNL     1     -10.972  12.851  64.870  1.00  0.00    -0.301 C  
HETATM    9  N   UNL     1     -10.627  11.021  66.569  1.00  0.00    -0.258 N  
HETATM   10  C   UNL     1     -10.103   9.993  65.868  1.00  0.00    -0.249 C  
HETATM   11  O   UNL     1     -11.731  12.147  64.128  1.00  0.00    -0.357 OA 
HETATM   12  OXT UNL     1     -10.331  13.901  64.598  1.00  0.00    -0.432 OA 
ENDROOT
BRANCH   4  13
HETATM   13  S   UNL     1     -11.330  14.887  67.387  1.00  0.00    -0.338 SA 
BRANCH  13  14
HETATM   14  C   UNL     1      -9.700  15.509  67.407  1.00  0.00    -0.218 A  
HETATM   15  N   UNL     1      -9.320  16.695  66.979  1.00  0.00    -0.219 NA 
HETATM   16  C   UNL     1      -7.940  16.792  67.058  1.00  0.00    -0.197 A  
HETATM   17  S   UNL     1      -8.459  14.558  68.133  1.00  0.00    -0.166 SA 
HETATM   18  C   UNL     1      -7.310  15.743  67.697  1.00  0.00    -0.164 A  
BRANCH  16  19
HETATM   19  C   UNL     1      -7.229  17.931  66.500  1.00  0.00    -0.273 A  
HETATM   20  C   UNL     1      -5.836  17.990  66.491  1.00  0.00    -0.199 A  
HETATM   21  C   UNL     1      -5.203  19.111  65.972  1.00  0.00    -0.151 A  
HETATM   22  C   UNL     1      -5.232  21.341  64.970  1.00  0.00    -0.147 C  
HETATM   23  N   UNL     1      -5.918  20.142  65.473  1.00  0.00    -0.186 NA 
HETATM   24  C   UNL     1      -7.945  18.995  65.956  1.00  0.00    -0.213 A  
HETATM   25  C   UNL     1      -7.271  20.090  65.441  1.00  0.00    -0.230 A  
ENDBRANCH  16  19
ENDBRANCH  13  14
ENDBRANCH   4  13
BRANCH   6  26
HETATM   26  N   UNL     1      -9.079   8.572  67.765  1.00  0.00    -0.135 N  
HETATM   27  H   UNL     1      -8.645   9.159  68.478  1.00  0.00     0.000 HD 
HETATM   28  C   UNL     1      -8.501   7.363  67.438  1.00  0.00    -0.119 C  
HETATM   29  O   UNL     1      -8.874   6.674  66.497  1.00  0.00    -0.128 OA 
BRANCH  28  30
HETATM   30  C   UNL     1      -7.341   6.888  68.321  1.00  0.00    -0.097 C  
BRANCH  30  31
HETATM   31  C   UNL     1      -7.641   6.414  69.680  1.00  0.00    -0.094 A  
HETATM   32  S   UNL     1      -8.754   6.098  71.813  1.00  0.00    -0.137 SA 
HETATM   33  N   UNL     1      -6.816   5.467  70.334  1.00  0.00    -0.050 NA 
HETATM   34  N   UNL     1      -8.737   6.833  70.329  1.00  0.00    -0.143 NA 
HETATM   35  C   UNL     1      -7.307   5.215  71.526  1.00  0.00    -0.086 A  
BRANCH  35  36
HETATM   36  N   UNL     1      -6.794   4.359  72.444  1.00  0.00    -0.052 NA 
HETATM   37  H   UNL     1      -6.119   4.661  73.147  1.00  0.00     0.000 HD 
HETATM   38  P   UNL     1      -7.315   2.823  72.357  1.00  0.00    -0.049 P  
HETATM   39  O   UNL     1      -7.006   2.277  73.833  1.00  0.00    -0.026 OA 
HETATM   40  O   UNL     1      -8.914   2.839  72.399  1.00  0.00    -0.079 OA 
HETATM   41  O   UNL     1      -6.760   1.920  71.305  1.00  0.00    -0.022 OA 
ENDBRANCH  35  36
ENDBRANCH  30  31
BRANCH  30  42
HETATM   42  N   UNL     1      -6.084   6.871  67.968  1.00  0.00    -0.031 NA 
HETATM   43  H   UNL     1      -5.320   6.732  68.630  1.00  0.00     0.000 HD 
BRANCH  42  44
HETATM   44  O   UNL     1      -5.883   7.060  66.593  1.00  0.00    -0.027 OA 
BRANCH  44  45
HETATM   45  C   UNL     1      -5.176   8.289  66.406  1.00  0.00    -0.028 C  
HETATM   46  C   UNL     1      -5.903   9.124  65.368  1.00  0.00    -0.054 C  
ENDBRANCH  44  45
ENDBRANCH  42  44
ENDBRANCH  30  42
ENDBRANCH  28  30
ENDBRANCH   6  26
TORSDOF 10
ENDMDL
MODEL       55
REMARK 921   NORMALIZED FREE ENERGY PREDICTED BY IDOCK:   -4.36 KCAL/MOL
REMARK 922        TOTAL FREE ENERGY PREDICTED BY IDOCK:   -8.72 KCAL/MOL
REMARK 923 INTER-LIGAND FREE ENERGY PREDICTED BY IDOCK:   -7.21 KCAL/MOL
REMARK 924 INTRA-LIGAND FREE ENERGY PREDICTED BY IDOCK:   -1.51 KCAL/MOL
REMARK 927      BINDING AFFINITY PREDICTED BY RF-SCORE:    0.00 PKD
ROOT
HETATM    1  C   UNL     1      -9.499  12.657  66.132  1.00  0.00    -0.175 C  
HETATM    2  S   UNL     1     -10.873  11.609  66.647  1.00  0.00    -0.293 SA 
HETATM    3  C   UNL     1     -11.794  12.900  67.505  1.00  0.00    -0.351 C  
HETATM    4  C   UNL     1     -11.014  14.023  68.180  1.00  0.00    -0.252 C  
HETATM    5  CA  UNL     1      -9.669  14.180  68.085  1.00  0.00    -0.225 C  
HETATM    6  CA  UNL     1      -8.099  11.972  65.976  1.00  0.00     0.529 C  
HETATM    7  O   UNL     1      -6.640  13.134  67.730  1.00  0.00    -0.119 OA 
HETATM    8  C   UNL     1      -8.862  15.320  68.818  1.00  0.00    -0.192 C  
HETATM    9  N   UNL     1      -8.960  13.310  67.299  1.00  0.00    -0.208 N  
HETATM   10  C   UNL     1      -7.673  12.937  67.136  1.00  0.00    -0.050 C  
HETATM   11  O   UNL     1      -8.110  15.989  68.038  1.00  0.00    -0.142 OA 
HETATM   12  OXT UNL     1      -9.090  15.478  70.047  1.00  0.00    -0.083 OA 
ENDROOT
BRANCH   4  13
HETATM   13  S   UNL     1     -12.064  14.920  69.271  1.00  0.00    -0.210 SA 
BRANCH  13  14
HETATM   14  C   UNL     1     -12.632  13.724  70.407  1.00  0.00    -0.256 A  
HETATM   15  N   UNL     1     -12.149  12.509  70.556  1.00  0.00    -0.345 NA 
HETATM   16  C   UNL     1     -12.920  11.817  71.477  1.00  0.00    -0.341 A  
HETATM   17  S   UNL     1     -13.873  14.163  71.520  1.00  0.00    -0.264 SA 
HETATM   18  C   UNL     1     -13.874  12.569  72.132  1.00  0.00    -0.093 A  
BRANCH  16  19
HETATM   19  C   UNL     1     -12.717  10.398  71.719  1.00  0.00    -0.525 A  
HETATM   20  C   UNL     1     -13.759   9.570  72.134  1.00  0.00    -0.447 A  
HETATM   21  C   UNL     1     -13.510   8.226  72.379  1.00  0.00    -0.127 A  
HETATM   22  C   UNL     1     -12.016   6.297  72.525  1.00  0.00    -0.102 C  
HETATM   23  N   UNL     1     -12.273   7.711  72.216  1.00  0.00    -0.259 NA 
HETATM   24  C   UNL     1     -11.455   9.837  71.533  1.00  0.00    -0.393 A  
HETATM   25  C   UNL     1     -11.254   8.489  71.781  1.00  0.00    -0.309 A  
ENDBRANCH  16  19
ENDBRANCH  13  14
ENDBRANCH   4  13
BRANCH   6  26
HETATM   26  N   UNL     1      -7.964  10.514  66.295  1.00  0.00    -0.138 N  
HETATM   27  H   UNL     1      -7.685  10.230  67.234  1.00  0.00     0.000 HD 
HETATM   28  C   UNL     1      -8.210   9.548  65.340  1.00  0.00    -0.127 C  
HETATM   29  O   UNL     1      -8.404   9.806  64.159  1.00  0.00    -0.144 OA 
BRANCH  28  30
HETATM   30  C   UNL     1      -8.239   8.092  65.819  1.00  0.00    -0.132 C  
BRANCH  30  31
HETATM   31  C   UNL     1      -7.374   7.113  65.144  1.00  0.00    -0.081 A  
HETATM   32  S   UNL     1      -5.571   6.155  63.833  1.00  0.00    -0.018 SA 
HETATM   33  N   UNL     1      -7.608   5.721  65.248  1.00  0.00    -0.081 NA 
HETATM   34  N   UNL     1      -6.303   7.510  64.441  1.00  0.00    -0.044 NA 
HETATM   35  C   UNL     1      -6.694   5.075  64.559  1.00  0.00    -0.047 A  
BRANCH  35  36
HETATM   36  N   UNL     1      -6.589   3.730  64.424  1.00  0.00    -0.041 NA 
HETATM   37  H   UNL     1      -6.587   3.277  63.510  1.00  0.00     0.000 HD 
HETATM   38  P   UNL     1      -6.466   2.882  65.804  1.00  0.00    -0.029 P  
HETATM   39  O   UNL     1      -5.799   1.513  65.301  1.00  0.00    -0.015 OA 
HETATM   40  O   UNL     1      -5.249   3.484  66.650  1.00  0.00    -0.011 OA 
HETATM   41  O   UNL     1      -7.690   2.634  66.622  1.00  0.00    -0.074 OA 
ENDBRANCH  35  36
ENDBRANCH  30  31
BRANCH  30  42
HETATM   42  N   UNL     1      -8.983   7.632  66.789  1.00  0.00    -0.137 NA 
HETATM   43  H   UNL     1      -8.632   7.472  67.733  1.00  0.00     0.000 HD 
BRANCH  42  44
HETATM   44  O   UNL     1     -10.310   7.380  66.411  1.00  0.00    -0.107 OA 
BRANCH  44  45
HETATM   45  C   UNL     1     -10.692   6.104  66.930  1.00  0.00    -0.340 C  
HETATM   46  C   UNL     1     -11.017   6.247  68.405  1.00  0.00    -0.409 C  
ENDBRANCH  44  45
ENDBRANCH  42  44
ENDBRANCH  30  42
ENDBRANCH  28  30
ENDBRANCH   6  26
TORSDOF 10
ENDMDL
MODEL       56
REMARK 921   NORMALIZED FREE ENERGY PREDICTED BY IDOCK:   -4.30 KCAL/MOL
REMARK 922        TOTAL FREE ENERGY PREDICTED BY IDOCK:   -8.62 KCAL/MOL
REMARK 923 INTER-LIGAND FREE ENERGY PREDICTED BY IDOCK:   -8.17 KCAL/MOL
REMARK 924 INTRA-LIGAND FREE ENERGY PREDICTED BY IDOCK:   -0.45 KCAL/MOL
REMARK 927      BINDING AFFINITY PREDICTED BY RF-SCORE:    0.00 PKD
ROOT
HETATM    1  C   UNL     1      -6.131   9.631  67.192  1.00  0.00    -0.063 C  
HETATM    2  S   UNL     1      -6.002   9.624  68.991  1.00  0.00    -0.038 SA 
HETATM    3  C   UNL     1      -7.193   8.301  69.269  1.00  0.00    -0.064 C  
HETATM    4  C   UNL     1      -8.358   8.154  68.296  1.00  0.00    -0.126 C  
HETATM    5  CA  UNL     1      -8.499   8.887  67.162  1.00  0.00    -0.106 C  
HETATM    6  CA  UNL     1      -5.881  10.994  66.464  1.00  0.00    -0.124 C  
HETATM    7  O   UNL     1      -8.119  11.518  65.336  1.00  0.00     0.322 OA 
HETATM    8  C   UNL     1      -9.726   8.759  66.179  1.00  0.00    -0.250 C  
HETATM    9  N   UNL     1      -7.519   9.787  66.835  1.00  0.00    -0.091 N  
HETATM   10  C   UNL     1      -7.376  10.849  66.015  1.00  0.00    -0.081 C  
HETATM   11  O   UNL     1      -9.386   8.574  64.966  1.00  0.00     0.136 OA 
HETATM   12  OXT UNL     1     -10.874   8.792  66.696  1.00  0.00    -0.079 OA 
ENDROOT
BRANCH   4  13
HETATM   13  S   UNL     1      -9.583   7.087  68.971  1.00  0.00    -0.141 SA 
BRANCH  13  14
HETATM   14  C   UNL     1     -10.508   8.112  70.039  1.00  0.00    -0.231 A  
HETATM   15  N   UNL     1     -10.995   9.298  69.743  1.00  0.00    -0.224 NA 
HETATM   16  C   UNL     1     -11.579   9.852  70.871  1.00  0.00    -0.373 A  
HETATM   17  S   UNL     1     -10.928   7.515  71.601  1.00  0.00    -0.236 SA 
HETATM   18  C   UNL     1     -11.671   9.009  71.961  1.00  0.00    -0.347 A  
BRANCH  16  19
HETATM   19  C   UNL     1     -12.055  11.225  70.880  1.00  0.00    -0.406 A  
HETATM   20  C   UNL     1     -11.749  12.112  69.849  1.00  0.00    -0.361 A  
HETATM   21  C   UNL     1     -12.204  13.422  69.916  1.00  0.00    -0.271 A  
HETATM   22  C   UNL     1     -13.374  15.249  71.042  1.00  0.00    -0.474 C  
HETATM   23  N   UNL     1     -12.941  13.846  70.965  1.00  0.00    -0.312 NA 
HETATM   24  C   UNL     1     -12.838  11.679  71.939  1.00  0.00    -0.354 A  
HETATM   25  C   UNL     1     -13.277  12.993  71.961  1.00  0.00    -0.444 A  
ENDBRANCH  16  19
ENDBRANCH  13  14
ENDBRANCH   4  13
BRANCH   6  26
HETATM   26  N   UNL     1      -5.589  12.214  67.285  1.00  0.00    -0.131 N  
HETATM   27  H   UNL     1      -4.621  12.467  67.479  1.00  0.00     0.000 HD 
HETATM   28  C   UNL     1      -6.608  13.001  67.782  1.00  0.00    -0.146 C  
HETATM   29  O   UNL     1      -7.791  12.686  67.720  1.00  0.00    -0.128 OA 
BRANCH  28  30
HETATM   30  C   UNL     1      -6.204  14.328  68.435  1.00  0.00    -0.103 C  
BRANCH  30  31
HETATM   31  C   UNL     1      -6.511  15.581  67.728  1.00  0.00    -0.164 A  
HETATM   32  S   UNL     1      -6.287  17.536  66.308  1.00  0.00    -0.233 SA 
HETATM   33  N   UNL     1      -7.786  16.189  67.819  1.00  0.00    -0.139 NA 
HETATM   34  N   UNL     1      -5.602  16.164  66.935  1.00  0.00    -0.312 NA 
HETATM   35  C   UNL     1      -7.795  17.285  67.095  1.00  0.00    -0.198 A  
BRANCH  35  36
HETATM   36  N   UNL     1      -8.840  18.135  66.934  1.00  0.00    -0.259 NA 
HETATM   37  H   UNL     1      -9.695  17.855  66.453  1.00  0.00     0.000 HD 
HETATM   38  P   UNL     1      -8.649  19.625  67.551  1.00  0.00    -0.328 P  
HETATM   39  O   UNL     1     -10.166  20.121  67.710  1.00  0.00    -0.407 OA 
HETATM   40  O   UNL     1      -8.247  19.476  69.092  1.00  0.00    -0.308 OA 
HETATM   41  O   UNL     1      -7.816  20.621  66.815  1.00  0.00    -0.249 OA 
ENDBRANCH  35  36
ENDBRANCH  30  31
BRANCH  30  42
HETATM   42  N   UNL     1      -5.594  14.448  69.583  1.00  0.00    -0.093 NA 
HETATM   43  H   UNL     1      -4.679  14.888  69.686  1.00  0.00     0.000 HD 
BRANCH  42  44
HETATM   44  O   UNL     1      -6.315  13.916  70.662  1.00  0.00    -0.109 OA 
BRANCH  44  45
HETATM   45  C   UNL     1      -5.387  13.547  71.686  1.00  0.00    -0.190 C  
HETATM   46  C   UNL     1      -5.234  12.037  71.693  1.00  0.00     0.066 C  
ENDBRANCH  44  45
ENDBRANCH  42  44
ENDBRANCH  30  42
ENDBRANCH  28  30
ENDBRANCH   6  26
TORSDOF 10
ENDMDL
MODEL       57
REMARK 921   NORMALIZED FREE ENERGY PREDICTED BY IDOCK:   -4.28 KCAL/MOL
REMARK 922        TOTAL FREE ENERGY PREDICTED BY IDOCK:   -8.60 KCAL/MOL
REMARK 923 INTER-LIGAND FREE ENERGY PREDICTED BY IDOCK:   -6.84 KCAL/MOL
REMARK 924 INTRA-LIGAND FREE ENERGY PREDICTED BY IDOCK:   -1.75 KCAL/MOL
REMARK 927      BINDING AFFINITY PREDICTED BY RF-SCORE:    0.00 PKD
ROOT
HETATM    1  C   UNL     1      -9.488  10.506  66.833  1.00  0.00    -0.165 C  
HETATM    2  S   UNL     1     -10.907  10.343  67.933  1.00  0.00    -0.295 SA 
HETATM    3  C   UNL     1     -10.989  12.080  68.409  1.00  0.00    -0.237 C  
HETATM    4  C   UNL     1      -9.691  12.878  68.474  1.00  0.00    -0.127 C  
HETATM    5  CA  UNL     1      -8.481  12.396  68.087  1.00  0.00    -0.180 C  
HETATM    6  CA  UNL     1      -8.549   9.262  66.690  1.00  0.00    -0.127 C  
HETATM    7  O   UNL     1      -6.299  10.073  67.603  1.00  0.00    -0.058 OA 
HETATM    8  C   UNL     1      -7.136  13.212  68.194  1.00  0.00    -0.109 C  
HETATM    9  N   UNL     1      -8.415  11.133  67.562  1.00  0.00    -0.124 N  
HETATM   10  C   UNL     1      -7.465  10.205  67.319  1.00  0.00    -0.091 C  
HETATM   11  O   UNL     1      -6.482  13.255  67.102  1.00  0.00    -0.224 OA 
HETATM   12  OXT UNL     1      -6.893  13.766  69.298  1.00  0.00    -0.112 OA 
ENDROOT
BRANCH   4  13
HETATM   13  S   UNL     1      -9.952  14.393  69.328  1.00  0.00     0.114 SA 
BRANCH  13  14
HETATM   14  C   UNL     1      -9.751  15.621  68.105  1.00  0.00    -0.204 A  
HETATM   15  N   UNL     1      -8.665  16.336  67.897  1.00  0.00    -0.174 NA 
HETATM   16  C   UNL     1      -8.915  17.278  66.913  1.00  0.00    -0.240 A  
HETATM   17  S   UNL     1     -11.031  15.887  66.980  1.00  0.00    -0.114 SA 
HETATM   18  C   UNL     1     -10.133  17.155  66.274  1.00  0.00    -0.320 A  
BRANCH  16  19
HETATM   19  C   UNL     1      -7.945  18.312  66.592  1.00  0.00    -0.273 A  
HETATM   20  C   UNL     1      -8.096  19.622  67.046  1.00  0.00    -0.315 A  
HETATM   21  C   UNL     1      -7.157  20.581  66.690  1.00  0.00    -0.259 A  
HETATM   22  C   UNL     1      -5.141  21.299  65.509  1.00  0.00    -0.171 C  
HETATM   23  N   UNL     1      -6.100  20.261  65.914  1.00  0.00    -0.190 NA 
HETATM   24  C   UNL     1      -6.832  18.000  65.814  1.00  0.00    -0.281 A  
HETATM   25  C   UNL     1      -5.916  18.988  65.491  1.00  0.00    -0.205 A  
ENDBRANCH  16  19
ENDBRANCH  13  14
ENDBRANCH   4  13
BRANCH   6  26
HETATM   26  N   UNL     1      -8.847   8.030  67.491  1.00  0.00    -0.127 N  
HETATM   27  H   UNL     1      -9.697   7.992  68.053  1.00  0.00     0.000 HD 
HETATM   28  C   UNL     1      -7.991   6.947  67.483  1.00  0.00    -0.112 C  
HETATM   29  O   UNL     1      -6.885   6.970  66.956  1.00  0.00    -0.063 OA 
BRANCH  28  30
HETATM   30  C   UNL     1      -8.484   5.669  68.171  1.00  0.00    -0.098 C  
BRANCH  30  31
HETATM   31  C   UNL     1      -9.453   5.792  69.270  1.00  0.00    -0.129 A  
HETATM   32  S   UNL     1     -11.492   6.269  70.496  1.00  0.00    -0.274 SA 
HETATM   33  N   UNL     1      -9.147   5.356  70.581  1.00  0.00    -0.141 NA 
HETATM   34  N   UNL     1     -10.682   6.282  69.052  1.00  0.00    -0.267 NA 
HETATM   35  C   UNL     1     -10.179   5.575  71.363  1.00  0.00    -0.215 A  
BRANCH  35  36
HETATM   36  N   UNL     1     -10.263   5.288  72.686  1.00  0.00    -0.177 NA 
HETATM   37  H   UNL     1     -10.530   5.990  73.375  1.00  0.00     0.000 HD 
HETATM   38  P   UNL     1      -9.913   3.758  73.107  1.00  0.00    -0.147 P  
HETATM   39  O   UNL     1     -10.643   3.625  74.529  1.00  0.00    -0.203 OA 
HETATM   40  O   UNL     1     -10.831   2.781  72.235  1.00  0.00     0.139 OA 
HETATM   41  O   UNL     1      -8.486   3.327  73.175  1.00  0.00    -0.079 OA 
ENDBRANCH  35  36
ENDBRANCH  30  31
BRANCH  30  42
HETATM   42  N   UNL     1      -8.107   4.456  67.866  1.00  0.00    -0.094 NA 
HETATM   43  H   UNL     1      -7.129   4.173  67.809  1.00  0.00     0.000 HD 
BRANCH  42  44
HETATM   44  O   UNL     1      -9.175   3.579  67.626  1.00  0.00    -0.155 OA 
BRANCH  44  45
HETATM   45  C   UNL     1      -8.863   2.795  66.472  1.00  0.00    -0.146 C  
HETATM   46  C   UNL     1      -7.375   2.898  66.192  1.00  0.00    -0.071 C  
ENDBRANCH  44  45
ENDBRANCH  42  44
ENDBRANCH  30  42
ENDBRANCH  28  30
ENDBRANCH   6  26
TORSDOF 10
ENDMDL
MODEL       58
REMARK 921   NORMALIZED FREE ENERGY PREDICTED BY IDOCK:   -4.18 KCAL/MOL
REMARK 922        TOTAL FREE ENERGY PREDICTED BY IDOCK:   -8.44 KCAL/MOL
REMARK 923 INTER-LIGAND FREE ENERGY PREDICTED BY IDOCK:   -8.08 KCAL/MOL
REMARK 924 INTRA-LIGAND FREE ENERGY PREDICTED BY IDOCK:   -0.35 KCAL/MOL
REMARK 927      BINDING AFFINITY PREDICTED BY RF-SCORE:    0.00 PKD
ROOT
HETATM    1  C   UNL     1     -10.147  13.153  66.133  1.00  0.00    -0.291 C  
HETATM    2  S   UNL     1     -11.367  12.003  66.797  1.00  0.00    -0.334 SA 
HETATM    3  C   UNL     1     -12.257  13.214  67.793  1.00  0.00    -0.076 C  
HETATM    4  C   UNL     1     -11.477  14.381  68.387  1.00  0.00    -0.301 C  
HETATM    5  CA  UNL     1     -10.170  14.636  68.124  1.00  0.00    -0.231 C  
HETATM    6  CA  UNL     1      -8.735  12.573  65.785  1.00  0.00     0.657 C  
HETATM    7  O   UNL     1      -7.146  13.816  67.362  1.00  0.00    -0.171 OA 
HETATM    8  C   UNL     1      -9.357  15.822  68.772  1.00  0.00    -0.218 C  
HETATM    9  N   UNL     1      -9.510  13.829  67.235  1.00  0.00    -0.228 N  
HETATM   10  C   UNL     1      -8.232  13.552  66.901  1.00  0.00     0.067 C  
HETATM   11  O   UNL     1      -8.760  16.553  67.917  1.00  0.00    -0.184 OA 
HETATM   12  OXT UNL     1      -9.435  15.948  70.023  1.00  0.00    -0.031 OA 
ENDROOT
BRANCH   4  13
HETATM   13  S   UNL     1     -12.437  15.187  69.622  1.00  0.00    -0.066 SA 
BRANCH  13  14
HETATM   14  C   UNL     1     -12.880  13.912  70.728  1.00  0.00    -0.259 A  
HETATM   15  N   UNL     1     -12.385  12.692  70.739  1.00  0.00    -0.353 NA 
HETATM   16  C   UNL     1     -13.051  11.934  71.688  1.00  0.00    -0.328 A  
HETATM   17  S   UNL     1     -13.990  14.266  71.999  1.00  0.00    -0.539 SA 
HETATM   18  C   UNL     1     -13.926  12.634  72.495  1.00  0.00     0.092 A  
BRANCH  16  19
HETATM   19  C   UNL     1     -12.825  10.503  71.807  1.00  0.00    -0.559 A  
HETATM   20  C   UNL     1     -11.552   9.949  71.676  1.00  0.00    -0.268 A  
HETATM   21  C   UNL     1     -11.391   8.574  71.771  1.00  0.00    -0.307 A  
HETATM   22  C   UNL     1     -12.268   6.308  72.042  1.00  0.00    -0.215 C  
HETATM   23  N   UNL     1     -12.450   7.766  71.992  1.00  0.00    -0.302 NA 
HETATM   24  C   UNL     1     -13.899   9.651  72.060  1.00  0.00    -0.312 A  
HETATM   25  C   UNL     1     -13.690   8.285  72.155  1.00  0.00    -0.282 A  
ENDBRANCH  16  19
ENDBRANCH  13  14
ENDBRANCH   4  13
BRANCH   6  26
HETATM   26  N   UNL     1      -8.459  11.124  66.053  1.00  0.00    -0.244 N  
HETATM   27  H   UNL     1      -8.403  10.472  65.270  1.00  0.00     0.000 HD 
HETATM   28  C   UNL     1      -8.277  10.656  67.339  1.00  0.00    -0.115 C  
HETATM   29  O   UNL     1      -8.473  11.341  68.335  1.00  0.00    -0.141 OA 
BRANCH  28  30
HETATM   30  C   UNL     1      -7.804   9.206  67.488  1.00  0.00    -0.100 C  
BRANCH  30  31
HETATM   31  C   UNL     1      -8.812   8.155  67.687  1.00  0.00    -0.136 A  
HETATM   32  S   UNL     1     -10.411   6.672  68.752  1.00  0.00    -0.210 SA 
HETATM   33  N   UNL     1      -9.329   7.408  66.601  1.00  0.00    -0.163 NA 
HETATM   34  N   UNL     1      -9.310   7.900  68.906  1.00  0.00    -0.150 NA 
HETATM   35  C   UNL     1     -10.210   6.544  67.050  1.00  0.00    -0.215 A  
BRANCH  35  36
HETATM   36  N   UNL     1     -10.918   5.657  66.307  1.00  0.00    -0.748 NA 
HETATM   37  H   UNL     1     -11.910   5.790  66.107  1.00  0.00     0.000 HD 
HETATM   38  P   UNL     1     -10.095   4.370  65.756  1.00  0.00    -0.172 P  
HETATM   39  O   UNL     1     -11.000   3.894  64.520  1.00  0.00    -0.246 OA 
HETATM   40  O   UNL     1      -8.811   4.904  64.965  1.00  0.00    -0.149 OA 
HETATM   41  O   UNL     1      -9.790   3.243  66.686  1.00  0.00     0.002 OA 
ENDBRANCH  35  36
ENDBRANCH  30  31
BRANCH  30  42
HETATM   42  N   UNL     1      -6.558   8.813  67.460  1.00  0.00    -0.061 NA 
HETATM   43  H   UNL     1      -6.195   8.067  68.052  1.00  0.00     0.000 HD 
BRANCH  42  44
HETATM   44  O   UNL     1      -5.768   9.514  66.537  1.00  0.00    -0.052 OA 
BRANCH  44  45
HETATM   45  C   UNL     1      -5.765   8.789  65.304  1.00  0.00    -0.047 C  
HETATM   46  C   UNL     1      -5.876   9.771  64.153  1.00  0.00    -0.100 C  
ENDBRANCH  44  45
ENDBRANCH  42  44
ENDBRANCH  30  42
ENDBRANCH  28  30
ENDBRANCH   6  26
TORSDOF 10
ENDMDL
MODEL       59
REMARK 921   NORMALIZED FREE ENERGY PREDICTED BY IDOCK:   -4.14 KCAL/MOL
REMARK 922        TOTAL FREE ENERGY PREDICTED BY IDOCK:   -8.37 KCAL/MOL
REMARK 923 INTER-LIGAND FREE ENERGY PREDICTED BY IDOCK:   -6.82 KCAL/MOL
REMARK 924 INTRA-LIGAND FREE ENERGY PREDICTED BY IDOCK:   -1.55 KCAL/MOL
REMARK 927      BINDING AFFINITY PREDICTED BY RF-SCORE:    0.00 PKD
ROOT
HETATM    1  C   UNL     1      -8.940   8.684  66.675  1.00  0.00    -0.145 C  
HETATM    2  S   UNL     1      -8.206   8.696  68.322  1.00  0.00    -0.123 SA 
HETATM    3  C   UNL     1      -7.272  10.223  68.111  1.00  0.00    -0.084 C  
HETATM    4  C   UNL     1      -6.748  10.569  66.722  1.00  0.00    -0.091 C  
HETATM    5  CA  UNL     1      -7.033   9.857  65.602  1.00  0.00    -0.108 C  
HETATM    6  CA  UNL     1      -9.264   7.287  66.048  1.00  0.00    -0.029 C  
HETATM    7  O   UNL     1      -7.768   7.173  63.974  1.00  0.00    -0.113 OA 
HETATM    8  C   UNL     1      -6.456  10.196  64.174  1.00  0.00    -0.119 C  
HETATM    9  N   UNL     1      -7.880   8.785  65.703  1.00  0.00    -0.094 N  
HETATM   10  C   UNL     1      -8.207   7.701  64.967  1.00  0.00    -0.113 C  
HETATM   11  O   UNL     1      -7.354  10.295  63.275  1.00  0.00    -0.145 OA 
HETATM   12  OXT UNL     1      -5.214  10.387  64.093  1.00  0.00    -0.114 OA 
ENDROOT
BRANCH   4  13
HETATM   13  S   UNL     1      -5.554  11.857  66.827  1.00  0.00     0.039 SA 
BRANCH  13  14
HETATM   14  C   UNL     1      -6.381  13.149  67.658  1.00  0.00    -0.160 A  
HETATM   15  N   UNL     1      -7.220  14.006  67.114  1.00  0.00    -0.025 NA 
HETATM   16  C   UNL     1      -7.594  14.947  68.059  1.00  0.00    -0.122 A  
HETATM   17  S   UNL     1      -6.189  13.293  69.365  1.00  0.00    -0.112 SA 
HETATM   18  C   UNL     1      -7.163  14.694  69.347  1.00  0.00    -0.146 A  
BRANCH  16  19
HETATM   19  C   UNL     1      -8.386  16.110  67.696  1.00  0.00    -0.163 A  
HETATM   20  C   UNL     1      -8.641  17.135  68.606  1.00  0.00    -0.260 A  
HETATM   21  C   UNL     1      -9.427  18.213  68.221  1.00  0.00    -0.307 A  
HETATM   22  C   UNL     1     -10.811  19.408  66.599  1.00  0.00    -0.362 C  
HETATM   23  N   UNL     1      -9.943  18.283  66.975  1.00  0.00    -0.325 NA 
HETATM   24  C   UNL     1      -8.909  16.218  66.409  1.00  0.00    -0.346 A  
HETATM   25  C   UNL     1      -9.681  17.316  66.065  1.00  0.00    -0.168 A  
ENDBRANCH  16  19
ENDBRANCH  13  14
ENDBRANCH   4  13
BRANCH   6  26
HETATM   26  N   UNL     1      -8.920   6.047  66.817  1.00  0.00    -0.119 N  
HETATM   27  H   UNL     1      -8.023   5.991  67.300  1.00  0.00     0.000 HD 
HETATM   28  C   UNL     1      -9.794   4.981  66.884  1.00  0.00    -0.188 C  
HETATM   29  O   UNL     1     -10.818   4.911  66.216  1.00  0.00    -0.259 OA 
BRANCH  28  30
HETATM   30  C   UNL     1      -9.435   3.850  67.855  1.00  0.00    -0.173 C  
BRANCH  30  31
HETATM   31  C   UNL     1      -9.760   4.018  69.279  1.00  0.00    -0.120 A  
HETATM   32  S   UNL     1      -9.871   3.638  71.673  1.00  0.00    -0.128 SA 
HETATM   33  N   UNL     1     -10.495   5.134  69.746  1.00  0.00    -0.265 NA 
HETATM   34  N   UNL     1      -9.327   3.136  70.192  1.00  0.00    -0.160 NA 
HETATM   35  C   UNL     1     -10.642   5.042  71.048  1.00  0.00    -0.076 A  
BRANCH  35  36
HETATM   36  N   UNL     1     -11.288   5.925  71.849  1.00  0.00    -0.270 NA 
HETATM   37  H   UNL     1     -12.046   5.638  72.469  1.00  0.00     0.000 HD 
HETATM   38  P   UNL     1     -10.784   7.466  71.765  1.00  0.00    -0.220 P  
HETATM   39  O   UNL     1     -11.297   8.067  73.161  1.00  0.00    -0.317 OA 
HETATM   40  O   UNL     1      -9.205   7.487  72.021  1.00  0.00    -0.130 OA 
HETATM   41  O   UNL     1     -11.207   8.312  70.610  1.00  0.00    -0.257 OA 
ENDBRANCH  35  36
ENDBRANCH  30  31
BRANCH  30  42
HETATM   42  N   UNL     1      -8.851   2.730  67.524  1.00  0.00    -0.124 NA 
HETATM   43  H   UNL     1      -8.240   2.212  68.156  1.00  0.00     0.000 HD 
BRANCH  42  44
HETATM   44  O   UNL     1      -9.142   2.307  66.219  1.00  0.00    -0.124 OA 
BRANCH  44  45
HETATM   45  C   UNL     1      -7.954   2.422  65.432  1.00  0.00    -0.079 C  
HETATM   46  C   UNL     1      -8.225   1.873  64.044  1.00  0.00    -0.077 C  
ENDBRANCH  44  45
ENDBRANCH  42  44
ENDBRANCH  30  42
ENDBRANCH  28  30
ENDBRANCH   6  26
TORSDOF 10
ENDMDL
MODEL       60
REMARK 921   NORMALIZED FREE ENERGY PREDICTED BY IDOCK:   -4.11 KCAL/MOL
REMARK 922        TOTAL FREE ENERGY PREDICTED BY IDOCK:   -8.33 KCAL/MOL
REMARK 923 INTER-LIGAND FREE ENERGY PREDICTED BY IDOCK:   -7.11 KCAL/MOL
REMARK 924 INTRA-LIGAND FREE ENERGY PREDICTED BY IDOCK:   -1.22 KCAL/MOL
REMARK 927      BINDING AFFINITY PREDICTED BY RF-SCORE:    0.00 PKD
ROOT
HETATM    1  C   UNL     1      -9.960  10.285  65.461  1.00  0.00    -0.296 C  
HETATM    2  S   UNL     1      -8.230  10.585  65.051  1.00  0.00    -0.073 SA 
HETATM    3  C   UNL     1      -7.796   8.860  64.755  1.00  0.00    -0.121 C  
HETATM    4  C   UNL     1      -8.518   7.781  65.555  1.00  0.00    -0.133 C  
HETATM    5  CA  UNL     1      -9.552   8.024  66.401  1.00  0.00    -0.197 C  
HETATM    6  CA  UNL     1     -10.639  11.280  66.462  1.00  0.00    -0.266 C  
HETATM    7  O   UNL     1     -11.251   9.818  68.473  1.00  0.00    -0.143 OA 
HETATM    8  C   UNL     1     -10.269   6.910  67.256  1.00  0.00    -0.220 C  
HETATM    9  N   UNL     1     -10.016   9.308  66.519  1.00  0.00    -0.256 N  
HETATM   10  C   UNL     1     -10.781  10.015  67.378  1.00  0.00    -0.274 C  
HETATM   11  O   UNL     1     -11.535   6.904  67.120  1.00  0.00    -0.166 OA 
HETATM   12  OXT UNL     1      -9.528   6.132  67.914  1.00  0.00    -0.117 OA 
ENDROOT
BRANCH   4  13
HETATM   13  S   UNL     1      -7.673   6.246  65.404  1.00  0.00    -0.104 SA 
BRANCH  13  14
HETATM   14  C   UNL     1      -6.677   6.156  66.833  1.00  0.00    -0.061 A  
HETATM   15  N   UNL     1      -6.552   5.112  67.625  1.00  0.00    -0.052 NA 
HETATM   16  C   UNL     1      -5.760   5.449  68.711  1.00  0.00    -0.015 A  
HETATM   17  S   UNL     1      -5.672   7.501  67.228  1.00  0.00    -0.032 SA 
HETATM   18  C   UNL     1      -5.162   6.692  68.642  1.00  0.00    -0.015 A  
BRANCH  16  19
HETATM   19  C   UNL     1      -5.585   4.540  69.831  1.00  0.00    -0.012 A  
HETATM   20  C   UNL     1      -5.617   3.156  69.662  1.00  0.00    -0.017 A  
HETATM   21  C   UNL     1      -5.472   2.328  70.767  1.00  0.00    -0.012 A  
HETATM   22  C   UNL     1      -5.194   1.955  73.167  1.00  0.00     0.000 C  
HETATM   23  N   UNL     1      -5.298   2.846  72.002  1.00  0.00    -0.003 NA 
HETATM   24  C   UNL     1      -5.378   5.050  71.111  1.00  0.00    -0.004 A  
HETATM   25  C   UNL     1      -5.231   4.186  72.184  1.00  0.00     0.000 A  
ENDBRANCH  16  19
ENDBRANCH  13  14
ENDBRANCH   4  13
BRANCH   6  26
HETATM   26  N   UNL     1      -9.822  12.390  67.050  1.00  0.00    -0.208 N  
HETATM   27  H   UNL     1      -9.432  12.282  67.986  1.00  0.00     0.000 HD 
HETATM   28  C   UNL     1      -9.587  13.555  66.348  1.00  0.00    -0.259 C  
HETATM   29  O   UNL     1     -10.139  13.821  65.287  1.00  0.00    -0.325 OA 
BRANCH  28  30
HETATM   30  C   UNL     1      -8.580  14.539  66.954  1.00  0.00    -0.179 C  
BRANCH  30  31
HETATM   31  C   UNL     1      -9.071  15.834  67.447  1.00  0.00    -0.197 A  
HETATM   32  S   UNL     1     -10.346  17.494  68.675  1.00  0.00    -0.349 SA 
HETATM   33  N   UNL     1      -8.492  17.055  67.028  1.00  0.00    -0.200 NA 
HETATM   34  N   UNL     1     -10.060  15.895  68.351  1.00  0.00    -0.220 NA 
HETATM   35  C   UNL     1      -9.110  18.053  67.617  1.00  0.00    -0.255 A  
BRANCH  35  36
HETATM   36  N   UNL     1      -8.835  19.372  67.467  1.00  0.00    -0.298 NA 
HETATM   37  H   UNL     1      -9.499  20.097  67.741  1.00  0.00     0.000 HD 
HETATM   38  P   UNL     1      -7.387  19.730  66.825  1.00  0.00    -0.263 P  
HETATM   39  O   UNL     1      -7.164  21.241  67.316  1.00  0.00    -0.508 OA 
HETATM   40  O   UNL     1      -6.264  18.992  67.691  1.00  0.00    -0.200 OA 
HETATM   41  O   UNL     1      -7.186  19.592  65.352  1.00  0.00    -0.403 OA 
ENDBRANCH  35  36
ENDBRANCH  30  31
BRANCH  30  42
HETATM   42  N   UNL     1      -7.296  14.327  67.068  1.00  0.00    -0.335 NA 
HETATM   43  H   UNL     1      -6.590  14.984  66.735  1.00  0.00     0.000 HD 
BRANCH  42  44
HETATM   44  O   UNL     1      -6.979  13.112  67.693  1.00  0.00    -0.127 OA 
BRANCH  44  45
HETATM   45  C   UNL     1      -6.424  13.399  68.980  1.00  0.00    -0.105 C  
HETATM   46  C   UNL     1      -5.530  14.620  68.871  1.00  0.00    -0.087 C  
ENDBRANCH  44  45
ENDBRANCH  42  44
ENDBRANCH  30  42
ENDBRANCH  28  30
ENDBRANCH   6  26
TORSDOF 10
ENDMDL
MODEL       61
REMARK 921   NORMALIZED FREE ENERGY PREDICTED BY IDOCK:   -4.01 KCAL/MOL
REMARK 922        TOTAL FREE ENERGY PREDICTED BY IDOCK:   -8.16 KCAL/MOL
REMARK 923 INTER-LIGAND FREE ENERGY PREDICTED BY IDOCK:   -7.10 KCAL/MOL
REMARK 924 INTRA-LIGAND FREE ENERGY PREDICTED BY IDOCK:   -1.06 KCAL/MOL
REMARK 927      BINDING AFFINITY PREDICTED BY RF-SCORE:    0.00 PKD
ROOT
HETATM    1  C   UNL     1      -9.162  10.309  66.437  1.00  0.00    -0.158 C  
HETATM    2  S   UNL     1      -9.754  10.788  64.803  1.00  0.00    -0.311 SA 
HETATM    3  C   UNL     1      -9.276   9.265  63.966  1.00  0.00     0.164 C  
HETATM    4  C   UNL     1      -8.043   8.518  64.463  1.00  0.00    -0.158 C  
HETATM    5  CA  UNL     1      -7.339   8.863  65.571  1.00  0.00    -0.085 C  
HETATM    6  CA  UNL     1      -8.672  11.456  67.384  1.00  0.00    -0.145 C  
HETATM    7  O   UNL     1      -6.192  10.940  67.754  1.00  0.00    -0.050 OA 
HETATM    8  C   UNL     1      -6.042   8.111  66.059  1.00  0.00    -0.041 C  
HETATM    9  N   UNL     1      -7.779   9.919  66.326  1.00  0.00    -0.103 N  
HETATM   10  C   UNL     1      -7.284  10.734  67.281  1.00  0.00    -0.096 C  
HETATM   11  O   UNL     1      -6.093   7.751  67.279  1.00  0.00    -0.046 OA 
HETATM   12  OXT UNL     1      -5.148   7.902  65.196  1.00  0.00    -0.028 OA 
ENDROOT
BRANCH   4  13
HETATM   13  S   UNL     1      -7.542   7.317  63.278  1.00  0.00    -0.118 SA 
BRANCH  13  14
HETATM   14  C   UNL     1      -7.960   5.788  64.008  1.00  0.00    -0.121 A  
HETATM   15  N   UNL     1      -8.241   5.589  65.279  1.00  0.00    -0.129 NA 
HETATM   16  C   UNL     1      -8.421   4.234  65.504  1.00  0.00    -0.114 A  
HETATM   17  S   UNL     1      -8.128   4.404  62.994  1.00  0.00    -0.089 SA 
HETATM   18  C   UNL     1      -8.436   3.444  64.371  1.00  0.00    -0.093 A  
BRANCH  16  19
HETATM   19  C   UNL     1      -8.582   3.705  66.848  1.00  0.00    -0.112 A  
HETATM   20  C   UNL     1      -9.188   2.471  67.081  1.00  0.00    -0.141 A  
HETATM   21  C   UNL     1      -9.343   2.021  68.385  1.00  0.00    -0.194 A  
HETATM   22  C   UNL     1      -9.127   2.290  70.805  1.00  0.00    -0.100 C  
HETATM   23  N   UNL     1      -8.912   2.761  69.429  1.00  0.00    -0.097 NA 
HETATM   24  C   UNL     1      -8.122   4.438  67.940  1.00  0.00    -0.094 A  
HETATM   25  C   UNL     1      -8.291   3.946  69.224  1.00  0.00    -0.060 A  
ENDBRANCH  16  19
ENDBRANCH  13  14
ENDBRANCH   4  13
BRANCH   6  26
HETATM   26  N   UNL     1      -8.682  12.868  66.880  1.00  0.00    -0.331 N  
HETATM   27  H   UNL     1      -7.805  13.303  66.593  1.00  0.00     0.000 HD 
HETATM   28  C   UNL     1      -9.855  13.590  66.799  1.00  0.00    -0.267 C  
HETATM   29  O   UNL     1     -10.919  13.194  67.260  1.00  0.00    -0.260 OA 
BRANCH  28  30
HETATM   30  C   UNL     1      -9.787  14.946  66.087  1.00  0.00    -0.308 C  
BRANCH  30  31
HETATM   31  C   UNL     1      -9.621  16.159  66.901  1.00  0.00    -0.230 A  
HETATM   32  S   UNL     1     -10.103  18.236  68.059  1.00  0.00    -0.383 SA 
HETATM   33  N   UNL     1      -8.393  16.463  67.537  1.00  0.00    -0.159 NA 
HETATM   34  N   UNL     1     -10.648  16.997  67.104  1.00  0.00    -0.287 NA 
HETATM   35  C   UNL     1      -8.515  17.591  68.198  1.00  0.00    -0.254 A  
BRANCH  35  36
HETATM   36  N   UNL     1      -7.553  18.202  68.932  1.00  0.00    -0.254 NA 
HETATM   37  H   UNL     1      -7.436  18.019  69.929  1.00  0.00     0.000 HD 
HETATM   38  P   UNL     1      -6.598  19.244  68.132  1.00  0.00    -0.249 P  
HETATM   39  O   UNL     1      -5.304  19.310  69.077  1.00  0.00    -0.194 OA 
HETATM   40  O   UNL     1      -5.977  18.479  66.871  1.00  0.00    -0.152 OA 
HETATM   41  O   UNL     1      -7.114  20.605  67.803  1.00  0.00    -0.302 OA 
ENDBRANCH  35  36
ENDBRANCH  30  31
BRANCH  30  42
HETATM   42  N   UNL     1      -9.870  15.124  64.796  1.00  0.00    -0.368 NA 
HETATM   43  H   UNL     1      -9.197  15.676  64.264  1.00  0.00     0.000 HD 
BRANCH  42  44
HETATM   44  O   UNL     1     -10.972  14.484  64.209  1.00  0.00    -0.200 OA 
BRANCH  44  45
HETATM   45  C   UNL     1     -12.164  15.123  64.673  1.00  0.00    -0.211 C  
HETATM   46  C   UNL     1     -13.097  14.072  65.247  1.00  0.00    -0.176 C  
ENDBRANCH  44  45
ENDBRANCH  42  44
ENDBRANCH  30  42
ENDBRANCH  28  30
ENDBRANCH   6  26
TORSDOF 10
ENDMDL
MODEL       62
REMARK 921   NORMALIZED FREE ENERGY PREDICTED BY IDOCK:   -3.93 KCAL/MOL
REMARK 922        TOTAL FREE ENERGY PREDICTED BY IDOCK:   -8.04 KCAL/MOL
REMARK 923 INTER-LIGAND FREE ENERGY PREDICTED BY IDOCK:   -6.07 KCAL/MOL
REMARK 924 INTRA-LIGAND FREE ENERGY PREDICTED BY IDOCK:   -1.97 KCAL/MOL
REMARK 927      BINDING AFFINITY PREDICTED BY RF-SCORE:    0.00 PKD
ROOT
HETATM    1  C   UNL     1      -9.390  11.904  67.323  1.00  0.00    -0.177 C  
HETATM    2  S   UNL     1     -10.650  11.936  68.613  1.00  0.00    -0.224 SA 
HETATM    3  C   UNL     1     -10.430  13.669  69.059  1.00  0.00    -0.078 C  
HETATM    4  C   UNL     1      -9.041  14.283  68.928  1.00  0.00    -0.031 C  
HETATM    5  CA  UNL     1      -7.973  13.642  68.388  1.00  0.00    -0.147 C  
HETATM    6  CA  UNL     1      -8.656  10.543  67.078  1.00  0.00    -0.127 C  
HETATM    7  O   UNL     1      -6.211  11.043  67.654  1.00  0.00    -0.050 OA 
HETATM    8  C   UNL     1      -6.529  14.267  68.291  1.00  0.00    -0.116 C  
HETATM    9  N   UNL     1      -8.151  12.380  67.884  1.00  0.00    -0.149 N  
HETATM   10  C   UNL     1      -7.378  11.331  67.532  1.00  0.00    -0.105 C  
HETATM   11  O   UNL     1      -6.034  14.218  67.119  1.00  0.00    -0.192 OA 
HETATM   12  OXT UNL     1      -6.061  14.785  69.340  1.00  0.00    -0.099 OA 
ENDROOT
BRANCH   4  13
HETATM   13  S   UNL     1      -8.974  15.821  69.779  1.00  0.00     0.238 SA 
BRANCH  13  14
HETATM   14  C   UNL     1      -9.114  17.020  68.519  1.00  0.00    -0.259 A  
HETATM   15  N   UNL     1      -8.153  17.401  67.704  1.00  0.00    -0.195 NA 
HETATM   16  C   UNL     1      -8.608  18.442  66.911  1.00  0.00    -0.271 A  
HETATM   17  S   UNL     1     -10.658  17.725  68.215  1.00  0.00    -0.261 SA 
HETATM   18  C   UNL     1      -9.955  18.724  67.022  1.00  0.00    -0.341 A  
BRANCH  16  19
HETATM   19  C   UNL     1      -7.710  19.170  66.029  1.00  0.00    -0.267 A  
HETATM   20  C   UNL     1      -7.854  20.539  65.806  1.00  0.00     0.117 A  
HETATM   21  C   UNL     1      -6.988  21.184  64.933  1.00  0.00     0.376 A  
HETATM   22  C   UNL     1      -5.129  21.195  63.347  1.00  0.00    -0.200 C  
HETATM   23  N   UNL     1      -6.007  20.505  64.303  1.00  0.00    -0.259 NA 
HETATM   24  C   UNL     1      -6.674  18.495  65.387  1.00  0.00    -0.215 A  
HETATM   25  C   UNL     1      -5.828  19.182  64.531  1.00  0.00    -0.284 A  
ENDBRANCH  16  19
ENDBRANCH  13  14
ENDBRANCH   4  13
BRANCH   6  26
HETATM   26  N   UNL     1      -9.002   9.365  67.938  1.00  0.00    -0.124 N  
HETATM   27  H   UNL     1      -8.481   9.204  68.800  1.00  0.00     0.000 HD 
HETATM   28  C   UNL     1     -10.012   8.493  67.584  1.00  0.00    -0.198 C  
HETATM   29  O   UNL     1     -10.581   8.532  66.499  1.00  0.00    -0.200 OA 
BRANCH  28  30
HETATM   30  C   UNL     1     -10.418   7.443  68.624  1.00  0.00    -0.189 C  
BRANCH  30  31
HETATM   31  C   UNL     1      -9.591   6.235  68.763  1.00  0.00    -0.121 A  
HETATM   32  S   UNL     1      -8.768   4.087  69.534  1.00  0.00    -0.086 SA 
HETATM   33  N   UNL     1      -8.471   6.004  67.928  1.00  0.00    -0.115 NA 
HETATM   34  N   UNL     1      -9.902   5.288  69.659  1.00  0.00    -0.184 NA 
HETATM   35  C   UNL     1      -7.916   4.860  68.257  1.00  0.00    -0.086 A  
BRANCH  35  36
HETATM   36  N   UNL     1      -6.823   4.300  67.680  1.00  0.00    -0.051 NA 
HETATM   37  H   UNL     1      -5.916   4.281  68.146  1.00  0.00     0.000 HD 
HETATM   38  P   UNL     1      -7.044   3.662  66.203  1.00  0.00    -0.065 P  
HETATM   39  O   UNL     1      -5.816   2.637  66.090  1.00  0.00    -0.021 OA 
HETATM   40  O   UNL     1      -8.260   2.625  66.287  1.00  0.00    -0.082 OA 
HETATM   41  O   UNL     1      -7.120   4.568  65.019  1.00  0.00    -0.060 OA 
ENDBRANCH  35  36
ENDBRANCH  30  31
BRANCH  30  42
HETATM   42  N   UNL     1     -11.457   7.525  69.411  1.00  0.00    -0.359 NA 
HETATM   43  H   UNL     1     -12.143   6.776  69.509  1.00  0.00     0.000 HD 
BRANCH  42  44
HETATM   44  O   UNL     1     -11.541   8.739  70.108  1.00  0.00    -0.111 OA 
BRANCH  44  45
HETATM   45  C   UNL     1     -12.322   8.527  71.287  1.00  0.00    -0.271 C  
HETATM   46  C   UNL     1     -12.461   7.035  71.528  1.00  0.00    -0.426 C  
ENDBRANCH  44  45
ENDBRANCH  42  44
ENDBRANCH  30  42
ENDBRANCH  28  30
ENDBRANCH   6  26
TORSDOF 10
ENDMDL
MODEL       63
REMARK 921   NORMALIZED FREE ENERGY PREDICTED BY IDOCK:   -3.92 KCAL/MOL
REMARK 922        TOTAL FREE ENERGY PREDICTED BY IDOCK:   -8.02 KCAL/MOL
REMARK 923 INTER-LIGAND FREE ENERGY PREDICTED BY IDOCK:   -7.17 KCAL/MOL
REMARK 924 INTRA-LIGAND FREE ENERGY PREDICTED BY IDOCK:   -0.85 KCAL/MOL
REMARK 927      BINDING AFFINITY PREDICTED BY RF-SCORE:    0.00 PKD
ROOT
HETATM    1  C   UNL     1      -9.598  14.787  65.091  1.00  0.00     0.217 C  
HETATM    2  S   UNL     1      -9.006  14.149  66.670  1.00  0.00    -0.108 SA 
HETATM    3  C   UNL     1      -9.345  12.413  66.320  1.00  0.00    -0.189 C  
HETATM    4  C   UNL     1     -10.527  12.070  65.421  1.00  0.00    -0.275 C  
HETATM    5  CA  UNL     1     -11.282  12.992  64.771  1.00  0.00    -0.317 C  
HETATM    6  CA  UNL     1     -10.198  16.234  65.085  1.00  0.00    -0.005 C  
HETATM    7  O   UNL     1     -12.639  15.892  64.393  1.00  0.00    -0.194 OA 
HETATM    8  C   UNL     1     -12.529  12.633  63.874  1.00  0.00    -0.407 C  
HETATM    9  N   UNL     1     -10.944  14.315  64.883  1.00  0.00    -0.383 N  
HETATM   10  C   UNL     1     -11.523  15.513  64.658  1.00  0.00    -0.324 C  
HETATM   11  O   UNL     1     -12.479  13.145  62.709  1.00  0.00    -0.211 OA 
HETATM   12  OXT UNL     1     -13.383  11.853  64.373  1.00  0.00    -0.524 OA 
ENDROOT
BRANCH   4  13
HETATM   13  S   UNL     1     -10.905  10.356  65.544  1.00  0.00     0.435 SA 
BRANCH  13  14
HETATM   14  C   UNL     1     -10.870  10.026  67.257  1.00  0.00    -0.217 A  
HETATM   15  N   UNL     1     -10.257   9.016  67.838  1.00  0.00    -0.208 NA 
HETATM   16  C   UNL     1     -10.538   9.025  69.194  1.00  0.00    -0.203 A  
HETATM   17  S   UNL     1     -11.611  11.152  68.333  1.00  0.00    -0.286 SA 
HETATM   18  C   UNL     1     -11.225  10.134  69.648  1.00  0.00    -0.261 A  
BRANCH  16  19
HETATM   19  C   UNL     1     -10.126   7.932  70.060  1.00  0.00    -0.199 A  
HETATM   20  C   UNL     1     -10.833   7.609  71.218  1.00  0.00    -0.252 A  
HETATM   21  C   UNL     1     -10.384   6.574  72.026  1.00  0.00    -0.199 A  
HETATM   22  C   UNL     1      -8.789   4.812  72.597  1.00  0.00    -0.114 C  
HETATM   23  N   UNL     1      -9.276   5.874  71.704  1.00  0.00    -0.146 NA 
HETATM   24  C   UNL     1      -9.000   7.179  69.735  1.00  0.00    -0.142 A  
HETATM   25  C   UNL     1      -8.594   6.149  70.568  1.00  0.00    -0.138 A  
ENDBRANCH  16  19
ENDBRANCH  13  14
ENDBRANCH   4  13
BRANCH   6  26
HETATM   26  N   UNL     1     -10.286  16.989  66.377  1.00  0.00    -0.319 N  
HETATM   27  H   UNL     1     -11.194  17.112  66.824  1.00  0.00     0.000 HD 
HETATM   28  C   UNL     1      -9.160  17.521  66.972  1.00  0.00    -0.248 C  
HETATM   29  O   UNL     1      -8.062  17.545  66.428  1.00  0.00    -0.249 OA 
BRANCH  28  30
HETATM   30  C   UNL     1      -9.327  18.098  68.382  1.00  0.00    -0.309 C  
BRANCH  30  31
HETATM   31  C   UNL     1     -10.138  17.351  69.355  1.00  0.00    -0.075 A  
HETATM   32  S   UNL     1     -11.439  16.806  71.330  1.00  0.00     0.745 SA 
HETATM   33  N   UNL     1     -10.543  16.016  69.112  1.00  0.00    -0.240 NA 
HETATM   34  N   UNL     1     -10.559  17.929  70.489  1.00  0.00     1.322 NA 
HETATM   35  C   UNL     1     -11.255  15.588  70.130  1.00  0.00    -0.318 A  
BRANCH  35  36
HETATM   36  N   UNL     1     -11.818  14.361  70.259  1.00  0.00    -0.297 NA 
HETATM   37  H   UNL     1     -11.618  13.603  69.607  1.00  0.00     0.000 HD 
HETATM   38  P   UNL     1     -12.832  14.170  71.514  1.00  0.00    -0.379 P  
HETATM   39  O   UNL     1     -12.835  12.577  71.706  1.00  0.00    -0.317 OA 
HETATM   40  O   UNL     1     -12.060  14.605  72.846  1.00  0.00    -0.204 OA 
HETATM   41  O   UNL     1     -14.217  14.720  71.426  1.00  0.00    -0.435 OA 
ENDBRANCH  35  36
ENDBRANCH  30  31
BRANCH  30  42
HETATM   42  N   UNL     1      -8.807  19.219  68.804  1.00  0.00    -0.364 NA 
HETATM   43  H   UNL     1      -9.295  20.114  68.757  1.00  0.00     0.000 HD 
BRANCH  42  44
HETATM   44  O   UNL     1      -7.515  19.077  69.331  1.00  0.00    -0.199 OA 
BRANCH  44  45
HETATM   45  C   UNL     1      -6.725  20.185  68.890  1.00  0.00    -0.263 C  
HETATM   46  C   UNL     1      -5.748  20.563  69.988  1.00  0.00    -0.371 C  
ENDBRANCH  44  45
ENDBRANCH  42  44
ENDBRANCH  30  42
ENDBRANCH  28  30
ENDBRANCH   6  26
TORSDOF 10
ENDMDL
MODEL       64
REMARK 921   NORMALIZED FREE ENERGY PREDICTED BY IDOCK:   -3.75 KCAL/MOL
REMARK 922        TOTAL FREE ENERGY PREDICTED BY IDOCK:   -7.75 KCAL/MOL
REMARK 923 INTER-LIGAND FREE ENERGY PREDICTED BY IDOCK:   -6.58 KCAL/MOL
REMARK 924 INTRA-LIGAND FREE ENERGY PREDICTED BY IDOCK:   -1.17 KCAL/MOL
REMARK 927      BINDING AFFINITY PREDICTED BY RF-SCORE:    0.00 PKD
ROOT
HETATM    1  C   UNL     1      -9.582  10.351  69.396  1.00  0.00    -0.192 C  
HETATM    2  S   UNL     1     -10.209   9.108  68.250  1.00  0.00    -0.214 SA 
HETATM    3  C   UNL     1      -9.416   7.695  69.040  1.00  0.00    -0.150 C  
HETATM    4  C   UNL     1      -8.075   7.907  69.734  1.00  0.00    -0.116 C  
HETATM    5  CA  UNL     1      -7.486   9.119  69.896  1.00  0.00    -0.070 C  
HETATM    6  CA  UNL     1      -9.355  11.793  68.830  1.00  0.00    -0.009 C  
HETATM    7  O   UNL     1      -6.834  12.167  69.070  1.00  0.00    -0.097 OA 
HETATM    8  C   UNL     1      -6.080   9.329  70.580  1.00  0.00    -0.050 C  
HETATM    9  N   UNL     1      -8.147  10.235  69.454  1.00  0.00    -0.154 N  
HETATM   10  C   UNL     1      -7.850  11.522  69.173  1.00  0.00     0.072 C  
HETATM   11  O   UNL     1      -6.095  10.195  71.513  1.00  0.00    -0.310 OA 
HETATM   12  OXT UNL     1      -5.138   8.595  70.179  1.00  0.00    -0.022 OA 
ENDROOT
BRANCH   4  13
HETATM   13  S   UNL     1      -7.313   6.357  70.071  1.00  0.00    -0.088 SA 
BRANCH  13  14
HETATM   14  C   UNL     1      -8.323   5.192  69.254  1.00  0.00    -0.087 A  
HETATM   15  N   UNL     1      -8.291   4.907  67.969  1.00  0.00    -0.099 NA 
HETATM   16  C   UNL     1      -9.306   4.012  67.670  1.00  0.00    -0.181 A  
HETATM   17  S   UNL     1      -9.409   4.235  70.191  1.00  0.00    -0.176 SA 
HETATM   18  C   UNL     1      -9.988   3.508  68.760  1.00  0.00     0.411 A  
BRANCH  16  19
HETATM   19  C   UNL     1      -9.611   3.646  66.297  1.00  0.00    -0.146 A  
HETATM   20  C   UNL     1     -10.371   4.473  65.471  1.00  0.00    -0.254 A  
HETATM   21  C   UNL     1     -10.659   4.067  64.175  1.00  0.00    -0.177 A  
HETATM   22  C   UNL     1     -10.565   2.448  62.345  1.00  0.00    -0.131 C  
HETATM   23  N   UNL     1     -10.211   2.884  63.704  1.00  0.00    -0.167 NA 
HETATM   24  C   UNL     1      -9.138   2.441  65.780  1.00  0.00    -0.088 A  
HETATM   25  C   UNL     1      -9.444   2.080  64.478  1.00  0.00    -0.110 A  
ENDBRANCH  16  19
ENDBRANCH  13  14
ENDBRANCH   4  13
BRANCH   6  26
HETATM   26  N   UNL     1      -9.629  12.056  67.379  1.00  0.00    -0.174 N  
HETATM   27  H   UNL     1      -8.853  12.065  66.717  1.00  0.00     0.000 HD 
HETATM   28  C   UNL     1     -10.911  12.287  66.924  1.00  0.00    -0.267 C  
HETATM   29  O   UNL     1     -11.870  12.440  67.670  1.00  0.00    -0.394 OA 
BRANCH  28  30
HETATM   30  C   UNL     1     -11.107  12.346  65.405  1.00  0.00    -0.306 C  
BRANCH  30  31
HETATM   31  C   UNL     1     -11.480  13.630  64.793  1.00  0.00    -0.352 A  
HETATM   32  S   UNL     1     -12.597  15.280  63.408  1.00  0.00     2.184 SA 
HETATM   33  N   UNL     1     -10.876  14.845  65.194  1.00  0.00    -0.384 NA 
HETATM   34  N   UNL     1     -12.444  13.695  63.863  1.00  0.00    -0.709 NA 
HETATM   35  C   UNL     1     -11.389  15.834  64.498  1.00  0.00    -0.316 A  
BRANCH  35  36
HETATM   36  N   UNL     1     -11.062  17.146  64.603  1.00  0.00    -1.007 NA 
HETATM   37  H   UNL     1     -11.399  17.842  63.937  1.00  0.00     0.000 HD 
HETATM   38  P   UNL     1     -10.103  17.546  65.851  1.00  0.00    -0.005 P  
HETATM   39  O   UNL     1     -10.394  19.115  66.012  1.00  0.00    -0.444 OA 
HETATM   40  O   UNL     1     -10.782  17.001  67.193  1.00  0.00    -0.282 OA 
HETATM   41  O   UNL     1      -8.640  17.260  65.770  1.00  0.00    -0.532 OA 
ENDBRANCH  35  36
ENDBRANCH  30  31
BRANCH  30  42
HETATM   42  N   UNL     1     -10.975  11.335  64.589  1.00  0.00    -0.261 NA 
HETATM   43  H   UNL     1     -11.726  10.671  64.396  1.00  0.00     0.000 HD 
BRANCH  42  44
HETATM   44  O   UNL     1      -9.704  11.247  64.003  1.00  0.00    -0.237 OA 
BRANCH  44  45
HETATM   45  C   UNL     1      -9.281   9.882  64.046  1.00  0.00    -0.253 C  
HETATM   46  C   UNL     1      -8.761   9.482  62.678  1.00  0.00    -0.233 C  
ENDBRANCH  44  45
ENDBRANCH  42  44
ENDBRANCH  30  42
ENDBRANCH  28  30
ENDBRANCH   6  26
TORSDOF 10
ENDMDL
MODEL       65
REMARK 921   NORMALIZED FREE ENERGY PREDICTED BY IDOCK:   -3.75 KCAL/MOL
REMARK 922        TOTAL FREE ENERGY PREDICTED BY IDOCK:   -7.75 KCAL/MOL
REMARK 923 INTER-LIGAND FREE ENERGY PREDICTED BY IDOCK:   -5.22 KCAL/MOL
REMARK 924 INTRA-LIGAND FREE ENERGY PREDICTED BY IDOCK:   -2.53 KCAL/MOL
REMARK 927      BINDING AFFINITY PREDICTED BY RF-SCORE:    0.00 PKD
ROOT
HETATM    1  C   UNL     1      -5.752   5.590  69.886  1.00  0.00    -0.016 C  
HETATM    2  S   UNL     1      -5.516   6.504  68.350  1.00  0.00    -0.012 SA 
HETATM    3  C   UNL     1      -5.486   8.144  69.100  1.00  0.00    -0.031 C  
HETATM    4  C   UNL     1      -6.320   8.386  70.353  1.00  0.00    -0.035 C  
HETATM    5  CA  UNL     1      -7.002   7.415  71.012  1.00  0.00    -0.059 C  
HETATM    6  CA  UNL     1      -6.537   4.238  69.798  1.00  0.00    -0.033 C  
HETATM    7  O   UNL     1      -8.625   4.637  71.225  1.00  0.00    -0.108 OA 
HETATM    8  C   UNL     1      -7.896   7.677  72.285  1.00  0.00    -0.102 C  
HETATM    9  N   UNL     1      -6.907   6.124  70.562  1.00  0.00    -0.053 N  
HETATM   10  C   UNL     1      -7.577   4.963  70.720  1.00  0.00    -0.066 C  
HETATM   11  O   UNL     1      -7.613   6.919  73.268  1.00  0.00    -0.085 OA 
HETATM   12  OXT UNL     1      -8.726   8.622  72.211  1.00  0.00    -0.306 OA 
ENDROOT
BRANCH   4  13
HETATM   13  S   UNL     1      -6.457  10.111  70.667  1.00  0.00    -0.035 SA 
BRANCH  13  14
HETATM   14  C   UNL     1      -6.821  10.807  69.109  1.00  0.00    -0.084 A  
HETATM   15  N   UNL     1      -8.022  10.951  68.587  1.00  0.00    -0.131 NA 
HETATM   16  C   UNL     1      -7.907  11.444  67.297  1.00  0.00    -0.149 A  
HETATM   17  S   UNL     1      -5.531  11.469  68.175  1.00  0.00    -0.043 SA 
HETATM   18  C   UNL     1      -6.634  11.822  66.920  1.00  0.00    -0.114 A  
BRANCH  16  19
HETATM   19  C   UNL     1      -9.063  11.549  66.422  1.00  0.00    -0.206 A  
HETATM   20  C   UNL     1      -9.039  11.061  65.116  1.00  0.00    -0.199 A  
HETATM   21  C   UNL     1     -10.159  11.209  64.310  1.00  0.00    -0.326 A  
HETATM   22  C   UNL     1     -12.432  12.006  63.892  1.00  0.00    -0.436 C  
HETATM   23  N   UNL     1     -11.272  11.816  64.775  1.00  0.00    -0.297 NA 
HETATM   24  C   UNL     1     -10.232  12.148  66.888  1.00  0.00    -0.228 A  
HETATM   25  C   UNL     1     -11.329  12.267  66.050  1.00  0.00    -0.350 A  
ENDBRANCH  16  19
ENDBRANCH  13  14
ENDBRANCH   4  13
BRANCH   6  26
HETATM   26  N   UNL     1      -7.078   3.797  68.471  1.00  0.00    -0.050 N  
HETATM   27  H   UNL     1      -8.024   4.068  68.201  1.00  0.00     0.000 HD 
HETATM   28  C   UNL     1      -6.321   3.030  67.609  1.00  0.00    -0.036 C  
HETATM   29  O   UNL     1      -5.240   2.542  67.919  1.00  0.00    -0.011 OA 
BRANCH  28  30
HETATM   30  C   UNL     1      -6.888   2.803  66.203  1.00  0.00    -0.048 C  
BRANCH  30  31
HETATM   31  C   UNL     1      -8.113   3.516  65.816  1.00  0.00    -0.093 A  
HETATM   32  S   UNL     1     -10.310   3.985  64.896  1.00  0.00    -0.118 SA 
HETATM   33  N   UNL     1      -8.321   4.874  66.160  1.00  0.00    -0.111 NA 
HETATM   34  N   UNL     1      -9.099   2.886  65.160  1.00  0.00    -0.145 NA 
HETATM   35  C   UNL     1      -9.488   5.263  65.700  1.00  0.00    -0.081 A  
BRANCH  35  36
HETATM   36  N   UNL     1     -10.035   6.497  65.835  1.00  0.00    -0.264 NA 
HETATM   37  H   UNL     1     -10.769   6.833  65.212  1.00  0.00     0.000 HD 
HETATM   38  P   UNL     1      -9.453   7.407  67.048  1.00  0.00    -0.178 P  
HETATM   39  O   UNL     1     -10.640   8.461  67.279  1.00  0.00    -0.302 OA 
HETATM   40  O   UNL     1      -9.568   6.563  68.401  1.00  0.00    -0.124 OA 
HETATM   41  O   UNL     1      -8.134   8.087  66.884  1.00  0.00    -0.105 OA 
ENDBRANCH  35  36
ENDBRANCH  30  31
BRANCH  30  42
HETATM   42  N   UNL     1      -6.371   2.011  65.302  1.00  0.00    -0.023 NA 
HETATM   43  H   UNL     1      -6.666   1.042  65.175  1.00  0.00     0.000 HD 
BRANCH  42  44
HETATM   44  O   UNL     1      -5.375   2.618  64.524  1.00  0.00    -0.008 OA 
BRANCH  44  45
HETATM   45  C   UNL     1      -5.900   2.837  63.211  1.00  0.00    -0.010 C  
HETATM   46  C   UNL     1      -6.495   1.540  62.695  1.00  0.00    -0.009 C  
ENDBRANCH  44  45
ENDBRANCH  42  44
ENDBRANCH  30  42
ENDBRANCH  28  30
ENDBRANCH   6  26
TORSDOF 10
ENDMDL
MODEL       66
REMARK 921   NORMALIZED FREE ENERGY PREDICTED BY IDOCK:   -3.67 KCAL/MOL
REMARK 922        TOTAL FREE ENERGY PREDICTED BY IDOCK:   -7.62 KCAL/MOL
REMARK 923 INTER-LIGAND FREE ENERGY PREDICTED BY IDOCK:   -6.86 KCAL/MOL
REMARK 924 INTRA-LIGAND FREE ENERGY PREDICTED BY IDOCK:   -0.76 KCAL/MOL
REMARK 927      BINDING AFFINITY PREDICTED BY RF-SCORE:    0.00 PKD
ROOT
HETATM    1  C   UNL     1     -11.917   9.982  69.524  1.00  0.00     0.165 C  
HETATM    2  S   UNL     1     -10.280  10.497  68.967  1.00  0.00    -0.227 SA 
HETATM    3  C   UNL     1      -9.590   8.838  68.826  1.00  0.00    -0.158 C  
HETATM    4  C   UNL     1     -10.087   7.759  69.782  1.00  0.00    -0.194 C  
HETATM    5  CA  UNL     1     -11.101   7.935  70.667  1.00  0.00    -0.259 C  
HETATM    6  CA  UNL     1     -12.695  10.968  70.459  1.00  0.00    -0.247 C  
HETATM    7  O   UNL     1     -12.959   9.670  72.650  1.00  0.00    -0.249 OA 
HETATM    8  C   UNL     1     -11.585   6.829  71.681  1.00  0.00    -0.295 C  
HETATM    9  N   UNL     1     -11.760   9.136  70.680  1.00  0.00    -0.249 N  
HETATM   10  C   UNL     1     -12.584   9.811  71.510  1.00  0.00    -0.398 C  
HETATM   11  O   UNL     1     -12.839   6.611  71.633  1.00  0.00    -0.323 OA 
HETATM   12  OXT UNL     1     -10.695   6.256  72.365  1.00  0.00    -0.208 OA 
ENDROOT
BRANCH   4  13
HETATM   13  S   UNL     1      -9.014   6.365  69.735  1.00  0.00    -0.141 SA 
BRANCH  13  14
HETATM   14  C   UNL     1      -8.521   6.254  68.065  1.00  0.00    -0.117 A  
HETATM   15  N   UNL     1      -7.777   7.127  67.418  1.00  0.00    -0.108 NA 
HETATM   16  C   UNL     1      -7.684   6.756  66.087  1.00  0.00    -0.091 A  
HETATM   17  S   UNL     1      -8.942   4.842  67.169  1.00  0.00    -0.112 SA 
HETATM   18  C   UNL     1      -8.220   5.521  65.779  1.00  0.00    -0.124 A  
BRANCH  16  19
HETATM   19  C   UNL     1      -7.058   7.623  65.102  1.00  0.00    -0.060 A  
HETATM   20  C   UNL     1      -6.186   7.123  64.136  1.00  0.00    -0.040 A  
HETATM   21  C   UNL     1      -5.591   7.994  63.234  1.00  0.00    -0.058 A  
HETATM   22  C   UNL     1      -5.175  10.233  62.345  1.00  0.00    -0.102 C  
HETATM   23  N   UNL     1      -5.850   9.319  63.278  1.00  0.00    -0.087 NA 
HETATM   24  C   UNL     1      -7.329   8.990  65.111  1.00  0.00    -0.096 A  
HETATM   25  C   UNL     1      -6.719   9.821  64.186  1.00  0.00    -0.120 A  
ENDBRANCH  16  19
ENDBRANCH  13  14
ENDBRANCH   4  13
BRANCH   6  26
HETATM   26  N   UNL     1     -12.038  12.252  70.870  1.00  0.00    -0.425 N  
HETATM   27  H   UNL     1     -11.034  12.266  71.047  1.00  0.00     0.000 HD 
HETATM   28  C   UNL     1     -12.768  13.414  71.014  1.00  0.00    -0.307 C  
HETATM   29  O   UNL     1     -13.991  13.448  70.965  1.00  0.00     0.379 OA 
BRANCH  28  30
HETATM   30  C   UNL     1     -11.975  14.707  71.240  1.00  0.00    -0.343 C  
BRANCH  30  31
HETATM   31  C   UNL     1     -11.057  15.162  70.186  1.00  0.00    -0.274 A  
HETATM   32  S   UNL     1     -10.207  15.896  68.035  1.00  0.00    -0.243 SA 
HETATM   33  N   UNL     1      -9.689  15.409  70.451  1.00  0.00     0.220 NA 
HETATM   34  N   UNL     1     -11.500  15.402  68.943  1.00  0.00    -0.321 NA 
HETATM   35  C   UNL     1      -9.098  15.806  69.347  1.00  0.00    -0.254 A  
BRANCH  35  36
HETATM   36  N   UNL     1      -7.791  16.138  69.207  1.00  0.00    -0.234 NA 
HETATM   37  H   UNL     1      -7.496  17.091  68.995  1.00  0.00     0.000 HD 
HETATM   38  P   UNL     1      -6.723  14.929  69.396  1.00  0.00    -0.177 P  
HETATM   39  O   UNL     1      -5.373  15.722  69.743  1.00  0.00    -0.110 OA 
HETATM   40  O   UNL     1      -7.005  14.235  70.810  1.00  0.00     0.297 OA 
HETATM   41  O   UNL     1      -6.521  13.951  68.287  1.00  0.00    -0.088 OA 
ENDBRANCH  35  36
ENDBRANCH  30  31
BRANCH  30  42
HETATM   42  N   UNL     1     -12.041  15.453  72.310  1.00  0.00    -0.372 NA 
HETATM   43  H   UNL     1     -11.703  16.415  72.341  1.00  0.00     0.000 HD 
BRANCH  42  44
HETATM   44  O   UNL     1     -12.620  14.808  73.412  1.00  0.00    -0.459 OA 
BRANCH  44  45
HETATM   45  C   UNL     1     -12.656  15.728  74.506  1.00  0.00    -0.468 C  
HETATM   46  C   UNL     1     -12.307  17.114  73.996  1.00  0.00     0.215 C  
ENDBRANCH  44  45
ENDBRANCH  42  44
ENDBRANCH  30  42
ENDBRANCH  28  30
ENDBRANCH   6  26
TORSDOF 10
ENDMDL
MODEL       67
REMARK 921   NORMALIZED FREE ENERGY PREDICTED BY IDOCK:   -3.56 KCAL/MOL
REMARK 922        TOTAL FREE ENERGY PREDICTED BY IDOCK:   -7.45 KCAL/MOL
REMARK 923 INTER-LIGAND FREE ENERGY PREDICTED BY IDOCK:   -7.47 KCAL/MOL
REMARK 924 INTRA-LIGAND FREE ENERGY PREDICTED BY IDOCK:    0.02 KCAL/MOL
REMARK 927      BINDING AFFINITY PREDICTED BY RF-SCORE:    0.00 PKD
ROOT
HETATM    1  C   UNL     1      -9.680  12.739  66.144  1.00  0.00    -0.246 C  
HETATM    2  S   UNL     1     -10.919  11.589  66.772  1.00  0.00    -0.294 SA 
HETATM    3  C   UNL     1     -11.875  12.810  67.690  1.00  0.00    -0.339 C  
HETATM    4  C   UNL     1     -11.142  14.003  68.295  1.00  0.00    -0.254 C  
HETATM    5  CA  UNL     1      -9.826  14.269  68.093  1.00  0.00    -0.226 C  
HETATM    6  CA  UNL     1      -8.245  12.170  65.885  1.00  0.00     0.706 C  
HETATM    7  O   UNL     1      -6.756  13.473  67.511  1.00  0.00    -0.166 OA 
HETATM    8  C   UNL     1      -9.064  15.481  68.753  1.00  0.00    -0.207 C  
HETATM    9  N   UNL     1      -9.110  13.450  67.261  1.00  0.00    -0.212 N  
HETATM   10  C   UNL     1      -7.813  13.183  67.001  1.00  0.00     0.049 C  
HETATM   11  O   UNL     1      -8.432  16.200  67.913  1.00  0.00    -0.161 OA 
HETATM   12  OXT UNL     1      -9.209  15.637  69.995  1.00  0.00    -0.086 OA 
ENDROOT
BRANCH   4  13
HETATM   13  S   UNL     1     -12.176  14.825  69.457  1.00  0.00    -0.198 SA 
BRANCH  13  14
HETATM   14  C   UNL     1     -12.638  13.576  70.584  1.00  0.00    -0.275 A  
HETATM   15  N   UNL     1     -12.174  12.344  70.607  1.00  0.00    -0.352 NA 
HETATM   16  C   UNL     1     -12.849  11.615  71.573  1.00  0.00    -0.364 A  
HETATM   17  S   UNL     1     -13.727  13.974  71.861  1.00  0.00    -0.461 SA 
HETATM   18  C   UNL     1     -13.699  12.348  72.378  1.00  0.00    -0.091 A  
BRANCH  16  19
HETATM   19  C   UNL     1     -12.658  10.181  71.709  1.00  0.00    -0.500 A  
HETATM   20  C   UNL     1     -11.410   9.588  71.522  1.00  0.00    -0.456 A  
HETATM   21  C   UNL     1     -11.283   8.210  71.636  1.00  0.00    -0.261 A  
HETATM   22  C   UNL     1     -12.208   5.977  72.000  1.00  0.00    -0.029 C  
HETATM   23  N   UNL     1     -12.351   7.438  71.929  1.00  0.00    -0.312 NA 
HETATM   24  C   UNL     1     -13.740   9.366  72.036  1.00  0.00    -0.466 A  
HETATM   25  C   UNL     1     -13.566   7.996  72.148  1.00  0.00    -0.170 A  
ENDBRANCH  16  19
ENDBRANCH  13  14
ENDBRANCH   4  13
BRANCH   6  26
HETATM   26  N   UNL     1      -7.964  10.732  66.202  1.00  0.00    -0.155 N  
HETATM   27  H   UNL     1      -7.739  10.466  67.160  1.00  0.00     0.000 HD 
HETATM   28  C   UNL     1      -8.005   9.763  65.220  1.00  0.00    -0.123 C  
HETATM   29  O   UNL     1      -8.121  10.020  64.028  1.00  0.00    -0.142 OA 
BRANCH  28  30
HETATM   30  C   UNL     1      -7.901   8.305  65.682  1.00  0.00    -0.104 C  
BRANCH  30  31
HETATM   31  C   UNL     1      -7.869   7.246  64.662  1.00  0.00    -0.123 A  
HETATM   32  S   UNL     1      -7.512   6.086  62.561  1.00  0.00    -0.066 SA 
HETATM   33  N   UNL     1      -8.276   5.922  64.955  1.00  0.00    -0.136 NA 
HETATM   34  N   UNL     1      -7.405   7.492  63.428  1.00  0.00    -0.080 NA 
HETATM   35  C   UNL     1      -8.145   5.180  63.879  1.00  0.00    -0.119 A  
BRANCH  35  36
HETATM   36  N   UNL     1      -8.433   3.860  63.771  1.00  0.00    -0.092 NA 
HETATM   37  H   UNL     1      -7.775   3.194  63.366  1.00  0.00     0.000 HD 
HETATM   38  P   UNL     1      -9.890   3.400  64.324  1.00  0.00    -0.167 P  
HETATM   39  O   UNL     1      -9.673   1.832  64.582  1.00  0.00    -0.082 OA 
HETATM   40  O   UNL     1     -10.031   3.910  65.833  1.00  0.00    -0.167 OA 
HETATM   41  O   UNL     1     -11.103   3.661  63.494  1.00  0.00    -0.222 OA 
ENDBRANCH  35  36
ENDBRANCH  30  31
BRANCH  30  42
HETATM   42  N   UNL     1      -7.843   7.910  66.926  1.00  0.00    -0.102 NA 
HETATM   43  H   UNL     1      -7.760   6.930  67.197  1.00  0.00     0.000 HD 
BRANCH  42  44
HETATM   44  O   UNL     1      -7.905   8.961  67.853  1.00  0.00    -0.100 OA 
BRANCH  44  45
HETATM   45  C   UNL     1      -6.745   8.895  68.686  1.00  0.00    -0.059 C  
HETATM   46  C   UNL     1      -7.172   9.011  70.138  1.00  0.00    -0.062 C  
ENDBRANCH  44  45
ENDBRANCH  42  44
ENDBRANCH  30  42
ENDBRANCH  28  30
ENDBRANCH   6  26
TORSDOF 10
ENDMDL
MODEL       68
REMARK 921   NORMALIZED FREE ENERGY PREDICTED BY IDOCK:   -3.49 KCAL/MOL
REMARK 922        TOTAL FREE ENERGY PREDICTED BY IDOCK:   -7.33 KCAL/MOL
REMARK 923 INTER-LIGAND FREE ENERGY PREDICTED BY IDOCK:   -5.91 KCAL/MOL
REMARK 924 INTRA-LIGAND FREE ENERGY PREDICTED BY IDOCK:   -1.42 KCAL/MOL
REMARK 927      BINDING AFFINITY PREDICTED BY RF-SCORE:    0.00 PKD
ROOT
HETATM    1  C   UNL     1      -9.842   8.899  72.364  1.00  0.00     0.016 C  
HETATM    2  S   UNL     1      -8.910   9.169  70.844  1.00  0.00    -0.200 SA 
HETATM    3  C   UNL     1     -10.061  10.349  70.114  1.00  0.00     0.080 C  
HETATM    4  C   UNL     1     -11.547  10.205  70.428  1.00  0.00    -0.316 C  
HETATM    5  CA  UNL     1     -12.054   9.311  71.315  1.00  0.00    -0.337 C  
HETATM    6  CA  UNL     1      -9.709   7.494  73.042  1.00  0.00    -0.225 C  
HETATM    7  O   UNL     1     -12.078   6.529  72.944  1.00  0.00     0.169 OA 
HETATM    8  C   UNL     1     -13.594   9.139  71.606  1.00  0.00    -0.390 C  
HETATM    9  N   UNL     1     -11.186   8.513  72.013  1.00  0.00    -0.324 N  
HETATM   10  C   UNL     1     -11.243   7.376  72.738  1.00  0.00    -0.332 C  
HETATM   11  O   UNL     1     -13.885   9.199  72.845  1.00  0.00    -0.364 OA 
HETATM   12  OXT UNL     1     -14.353   9.025  70.607  1.00  0.00     0.186 OA 
ENDROOT
BRANCH   4  13
HETATM   13  S   UNL     1     -12.499  11.182  69.318  1.00  0.00     0.296 SA 
BRANCH  13  14
HETATM   14  C   UNL     1     -11.789  12.773  69.422  1.00  0.00    -0.300 A  
HETATM   15  N   UNL     1     -10.861  13.259  68.625  1.00  0.00    -0.255 NA 
HETATM   16  C   UNL     1     -10.473  14.509  69.079  1.00  0.00    -0.237 A  
HETATM   17  S   UNL     1     -12.397  13.875  70.600  1.00  0.00    -0.387 SA 
HETATM   18  C   UNL     1     -11.228  15.021  70.116  1.00  0.00    -0.260 A  
BRANCH  16  19
HETATM   19  C   UNL     1      -9.348  15.213  68.487  1.00  0.00    -0.192 A  
HETATM   20  C   UNL     1      -8.288  15.681  69.263  1.00  0.00    -0.256 A  
HETATM   21  C   UNL     1      -7.248  16.373  68.655  1.00  0.00    -0.178 A  
HETATM   22  C   UNL     1      -6.164  17.368  66.703  1.00  0.00    -0.204 C  
HETATM   23  N   UNL     1      -7.249  16.594  67.323  1.00  0.00    -0.150 NA 
HETATM   24  C   UNL     1      -9.313  15.431  67.111  1.00  0.00    -0.225 A  
HETATM   25  C   UNL     1      -8.252  16.119  66.546  1.00  0.00    -0.308 A  
ENDBRANCH  16  19
ENDBRANCH  13  14
ENDBRANCH   4  13
BRANCH   6  26
HETATM   26  N   UNL     1      -8.859   6.447  72.386  1.00  0.00    -0.134 N  
HETATM   27  H   UNL     1      -8.670   6.511  71.386  1.00  0.00     0.000 HD 
HETATM   28  C   UNL     1      -8.329   5.400  73.111  1.00  0.00    -0.118 C  
HETATM   29  O   UNL     1      -8.628   5.171  74.277  1.00  0.00    -0.113 OA 
BRANCH  28  30
HETATM   30  C   UNL     1      -7.316   4.502  72.392  1.00  0.00    -0.081 C  
BRANCH  30  31
HETATM   31  C   UNL     1      -6.768   4.952  71.104  1.00  0.00    -0.035 A  
HETATM   32  S   UNL     1      -5.202   5.448  69.317  1.00  0.00    -0.004 SA 
HETATM   33  N   UNL     1      -7.603   5.453  70.077  1.00  0.00    -0.068 NA 
HETATM   34  N   UNL     1      -5.455   4.859  70.844  1.00  0.00    -0.004 NA 
HETATM   35  C   UNL     1      -6.866   5.779  69.039  1.00  0.00    -0.062 A  
BRANCH  35  36
HETATM   36  N   UNL     1      -7.311   6.291  67.865  1.00  0.00    -0.086 NA 
HETATM   37  H   UNL     1      -7.974   5.790  67.274  1.00  0.00     0.000 HD 
HETATM   38  P   UNL     1      -6.725   7.749  67.455  1.00  0.00    -0.071 P  
HETATM   39  O   UNL     1      -7.827   8.276  66.415  1.00  0.00    -0.092 OA 
HETATM   40  O   UNL     1      -6.994   8.752  68.672  1.00  0.00    -0.062 OA 
HETATM   41  O   UNL     1      -5.344   7.852  66.897  1.00  0.00    -0.030 OA 
ENDBRANCH  35  36
ENDBRANCH  30  31
BRANCH  30  42
HETATM   42  N   UNL     1      -6.892   3.346  72.827  1.00  0.00    -0.036 NA 
HETATM   43  H   UNL     1      -6.199   3.249  73.569  1.00  0.00     0.000 HD 
BRANCH  42  44
HETATM   44  O   UNL     1      -7.479   2.250  72.178  1.00  0.00    -0.041 OA 
BRANCH  44  45
HETATM   45  C   UNL     1      -8.181   1.473  73.153  1.00  0.00    -0.052 C  
HETATM   46  C   UNL     1      -9.670   1.720  73.002  1.00  0.00    -0.127 C  
ENDBRANCH  44  45
ENDBRANCH  42  44
ENDBRANCH  30  42
ENDBRANCH  28  30
ENDBRANCH   6  26
TORSDOF 10
ENDMDL
MODEL       69
REMARK 921   NORMALIZED FREE ENERGY PREDICTED BY IDOCK:   -3.47 KCAL/MOL
REMARK 922        TOTAL FREE ENERGY PREDICTED BY IDOCK:   -7.31 KCAL/MOL
REMARK 923 INTER-LIGAND FREE ENERGY PREDICTED BY IDOCK:   -7.15 KCAL/MOL
REMARK 924 INTRA-LIGAND FREE ENERGY PREDICTED BY IDOCK:   -0.17 KCAL/MOL
REMARK 927      BINDING AFFINITY PREDICTED BY RF-SCORE:    0.00 PKD
ROOT
HETATM    1  C   UNL     1      -8.097  11.271  69.126  1.00  0.00     0.026 C  
HETATM    2  S   UNL     1      -9.879  11.012  69.031  1.00  0.00    -0.096 SA 
HETATM    3  C   UNL     1      -9.871   9.336  69.696  1.00  0.00    -0.186 C  
HETATM    4  C   UNL     1      -8.661   8.450  69.419  1.00  0.00    -0.137 C  
HETATM    5  CA  UNL     1      -7.532   8.876  68.797  1.00  0.00    -0.083 C  
HETATM    6  CA  UNL     1      -7.458  12.229  68.065  1.00  0.00    -0.115 C  
HETATM    7  O   UNL     1      -5.866  10.722  66.743  1.00  0.00    -0.059 OA 
HETATM    8  C   UNL     1      -6.300   7.946  68.478  1.00  0.00    -0.048 C  
HETATM    9  N   UNL     1      -7.442  10.193  68.429  1.00  0.00    -0.084 N  
HETATM   10  C   UNL     1      -6.686  10.946  67.602  1.00  0.00    -0.069 C  
HETATM   11  O   UNL     1      -5.191   8.414  68.893  1.00  0.00    -0.030 OA 
HETATM   12  OXT UNL     1      -6.548   6.845  67.917  1.00  0.00    -0.054 OA 
ENDROOT
BRANCH   4  13
HETATM   13  S   UNL     1      -9.035   6.775  69.804  1.00  0.00    -0.144 SA 
BRANCH  13  14
HETATM   14  C   UNL     1      -9.583   6.096  68.293  1.00  0.00    -0.120 A  
HETATM   15  N   UNL     1      -8.968   5.164  67.595  1.00  0.00    -0.109 NA 
HETATM   16  C   UNL     1      -9.647   4.956  66.406  1.00  0.00    -0.172 A  
HETATM   17  S   UNL     1     -11.113   6.591  67.669  1.00  0.00    -0.190 SA 
HETATM   18  C   UNL     1     -10.856   5.614  66.293  1.00  0.00    -0.011 A  
BRANCH  16  19
HETATM   19  C   UNL     1      -9.105   4.098  65.365  1.00  0.00    -0.139 A  
HETATM   20  C   UNL     1      -8.886   4.568  64.070  1.00  0.00    -0.144 A  
HETATM   21  C   UNL     1      -8.391   3.703  63.104  1.00  0.00    -0.089 A  
HETATM   22  C   UNL     1      -7.638   1.501  62.354  1.00  0.00    -0.037 C  
HETATM   23  N   UNL     1      -8.117   2.415  63.402  1.00  0.00    -0.072 NA 
HETATM   24  C   UNL     1      -8.790   2.772  65.655  1.00  0.00    -0.133 A  
HETATM   25  C   UNL     1      -8.290   1.947  64.660  1.00  0.00    -0.084 A  
ENDBRANCH  16  19
ENDBRANCH  13  14
ENDBRANCH   4  13
BRANCH   6  26
HETATM   26  N   UNL     1      -8.337  12.844  67.018  1.00  0.00    -0.337 N  
HETATM   27  H   UNL     1      -8.944  12.244  66.460  1.00  0.00     0.000 HD 
HETATM   28  C   UNL     1      -8.338  14.206  66.794  1.00  0.00     0.086 C  
HETATM   29  O   UNL     1      -7.536  14.971  67.315  1.00  0.00    -0.198 OA 
BRANCH  28  30
HETATM   30  C   UNL     1      -9.411  14.752  65.846  1.00  0.00    -0.231 C  
BRANCH  30  31
HETATM   31  C   UNL     1      -9.678  16.198  65.845  1.00  0.00    -0.340 A  
HETATM   32  S   UNL     1     -10.754  18.339  65.460  1.00  0.00     0.408 SA 
HETATM   33  N   UNL     1      -8.811  17.112  66.490  1.00  0.00    -0.249 NA 
HETATM   34  N   UNL     1     -10.781  16.694  65.267  1.00  0.00    -0.579 NA 
HETATM   35  C   UNL     1      -9.278  18.331  66.342  1.00  0.00    -0.263 A  
BRANCH  35  36
HETATM   36  N   UNL     1      -8.723  19.470  66.824  1.00  0.00    -0.304 NA 
HETATM   37  H   UNL     1      -9.282  20.199  67.267  1.00  0.00     0.000 HD 
HETATM   38  P   UNL     1      -7.113  19.606  66.654  1.00  0.00    -0.237 P  
HETATM   39  O   UNL     1      -6.745  20.690  67.778  1.00  0.00    -0.293 OA 
HETATM   40  O   UNL     1      -6.435  18.306  67.294  1.00  0.00    -0.175 OA 
HETATM   41  O   UNL     1      -6.546  19.975  65.323  1.00  0.00    -0.264 OA 
ENDBRANCH  35  36
ENDBRANCH  30  31
BRANCH  30  42
HETATM   42  N   UNL     1     -10.129  14.032  65.026  1.00  0.00    -0.577 NA 
HETATM   43  H   UNL     1     -10.348  14.324  64.073  1.00  0.00     0.000 HD 
BRANCH  42  44
HETATM   44  O   UNL     1     -10.569  12.821  65.578  1.00  0.00    -0.271 OA 
BRANCH  44  45
HETATM   45  C   UNL     1     -11.961  12.671  65.282  1.00  0.00    -0.439 C  
HETATM   46  C   UNL     1     -12.230  13.206  63.888  1.00  0.00    -0.503 C  
ENDBRANCH  44  45
ENDBRANCH  42  44
ENDBRANCH  30  42
ENDBRANCH  28  30
ENDBRANCH   6  26
TORSDOF 10
ENDMDL
MODEL       70
REMARK 921   NORMALIZED FREE ENERGY PREDICTED BY IDOCK:   -3.34 KCAL/MOL
REMARK 922        TOTAL FREE ENERGY PREDICTED BY IDOCK:   -7.11 KCAL/MOL
REMARK 923 INTER-LIGAND FREE ENERGY PREDICTED BY IDOCK:   -6.85 KCAL/MOL
REMARK 924 INTRA-LIGAND FREE ENERGY PREDICTED BY IDOCK:   -0.25 KCAL/MOL
REMARK 927      BINDING AFFINITY PREDICTED BY RF-SCORE:    0.00 PKD
ROOT
HETATM    1  C   UNL     1     -10.371  13.178  66.026  1.00  0.00    -0.287 C  
HETATM    2  S   UNL     1     -11.387  11.969  66.895  1.00  0.00    -0.338 SA 
HETATM    3  C   UNL     1     -12.336  13.164  67.856  1.00  0.00     0.145 C  
HETATM    4  C   UNL     1     -11.658  14.464  68.272  1.00  0.00    -0.328 C  
HETATM    5  CA  UNL     1     -10.415  14.837  67.871  1.00  0.00    -0.246 C  
HETATM    6  CA  UNL     1      -8.931  12.729  65.606  1.00  0.00     0.600 C  
HETATM    7  O   UNL     1      -7.384  14.291  66.918  1.00  0.00     0.093 OA 
HETATM    8  C   UNL     1      -9.703  16.165  68.337  1.00  0.00    -0.219 C  
HETATM    9  N   UNL     1      -9.735  14.026  67.002  1.00  0.00    -0.248 N  
HETATM   10  C   UNL     1      -8.462  13.863  66.581  1.00  0.00     0.158 C  
HETATM   11  O   UNL     1      -9.267  16.871  67.370  1.00  0.00    -0.219 OA 
HETATM   12  OXT UNL     1      -9.697  16.404  69.573  1.00  0.00    -0.198 OA 
ENDROOT
BRANCH   4  13
HETATM   13  S   UNL     1     -12.608  15.275  69.511  1.00  0.00     0.135 SA 
BRANCH  13  14
HETATM   14  C   UNL     1     -13.064  13.999  70.611  1.00  0.00    -0.116 A  
HETATM   15  N   UNL     1     -12.562  12.782  70.635  1.00  0.00    -0.225 NA 
HETATM   16  C   UNL     1     -13.241  12.022  71.572  1.00  0.00    -0.178 A  
HETATM   17  S   UNL     1     -14.202  14.348  71.858  1.00  0.00    -0.533 SA 
HETATM   18  C   UNL     1     -14.137  12.717  72.359  1.00  0.00     0.004 A  
BRANCH  16  19
HETATM   19  C   UNL     1     -13.009  10.592  71.699  1.00  0.00    -0.582 A  
HETATM   20  C   UNL     1     -13.958   9.744  72.267  1.00  0.00    -0.117 A  
HETATM   21  C   UNL     1     -13.678   8.390  72.392  1.00  0.00    -0.214 A  
HETATM   22  C   UNL     1     -12.202   6.456  72.149  1.00  0.00    -0.229 C  
HETATM   23  N   UNL     1     -12.501   7.884  71.966  1.00  0.00    -0.311 NA 
HETATM   24  C   UNL     1     -11.811  10.043  71.244  1.00  0.00    -0.471 A  
HETATM   25  C   UNL     1     -11.578   8.684  71.381  1.00  0.00    -0.293 A  
ENDBRANCH  16  19
ENDBRANCH  13  14
ENDBRANCH   4  13
BRANCH   6  26
HETATM   26  N   UNL     1      -8.461  11.354  65.974  1.00  0.00    -0.337 N  
HETATM   27  H   UNL     1      -8.388  10.639  65.250  1.00  0.00     0.000 HD 
HETATM   28  C   UNL     1      -8.128  11.037  67.276  1.00  0.00    -0.126 C  
HETATM   29  O   UNL     1      -8.329  11.789  68.221  1.00  0.00    -0.147 OA 
BRANCH  28  30
HETATM   30  C   UNL     1      -7.473   9.671  67.511  1.00  0.00    -0.091 C  
BRANCH  30  31
HETATM   31  C   UNL     1      -7.078   9.308  68.880  1.00  0.00    -0.068 A  
HETATM   32  S   UNL     1      -5.722   8.706  70.800  1.00  0.00    -0.033 SA 
HETATM   33  N   UNL     1      -8.026   9.230  69.928  1.00  0.00    -0.098 NA 
HETATM   34  N   UNL     1      -5.793   9.082  69.188  1.00  0.00    -0.039 NA 
HETATM   35  C   UNL     1      -7.414   8.892  71.041  1.00  0.00    -0.110 A  
BRANCH  35  36
HETATM   36  N   UNL     1      -7.990   8.721  72.256  1.00  0.00    -0.373 NA 
HETATM   37  H   UNL     1      -8.280   9.512  72.832  1.00  0.00     0.000 HD 
HETATM   38  P   UNL     1      -8.191   7.184  72.742  1.00  0.00    -0.110 P  
HETATM   39  O   UNL     1      -9.350   7.326  73.842  1.00  0.00    -0.222 OA 
HETATM   40  O   UNL     1      -8.992   6.404  71.598  1.00  0.00    -0.143 OA 
HETATM   41  O   UNL     1      -7.019   6.424  73.268  1.00  0.00    -0.077 OA 
ENDBRANCH  35  36
ENDBRANCH  30  31
BRANCH  30  42
HETATM   42  N   UNL     1      -7.224   8.785  66.584  1.00  0.00    -0.080 NA 
HETATM   43  H   UNL     1      -6.279   8.513  66.312  1.00  0.00     0.000 HD 
BRANCH  42  44
HETATM   44  O   UNL     1      -8.377   8.244  65.998  1.00  0.00    -0.114 OA 
BRANCH  44  45
HETATM   45  C   UNL     1      -9.111   7.546  67.009  1.00  0.00    -0.135 C  
HETATM   46  C   UNL     1     -10.578   7.915  66.898  1.00  0.00    -0.333 C  
ENDBRANCH  44  45
ENDBRANCH  42  44
ENDBRANCH  30  42
ENDBRANCH  28  30
ENDBRANCH   6  26
TORSDOF 10
ENDMDL
MODEL       71
REMARK 921   NORMALIZED FREE ENERGY PREDICTED BY IDOCK:   -3.30 KCAL/MOL
REMARK 922        TOTAL FREE ENERGY PREDICTED BY IDOCK:   -7.04 KCAL/MOL
REMARK 923 INTER-LIGAND FREE ENERGY PREDICTED BY IDOCK:   -7.02 KCAL/MOL
REMARK 924 INTRA-LIGAND FREE ENERGY PREDICTED BY IDOCK:   -0.02 KCAL/MOL
REMARK 927      BINDING AFFINITY PREDICTED BY RF-SCORE:    0.00 PKD
ROOT
HETATM    1  C   UNL     1     -11.705   9.969  68.610  1.00  0.00     0.307 C  
HETATM    2  S   UNL     1     -11.124  10.640  70.180  1.00  0.00    -0.215 SA 
HETATM    3  C   UNL     1     -11.704  12.324  69.901  1.00  0.00    -0.273 C  
HETATM    4  C   UNL     1     -11.730  12.856  68.472  1.00  0.00    -0.339 C  
HETATM    5  CA  UNL     1     -11.451  12.107  67.375  1.00  0.00    -0.345 C  
HETATM    6  CA  UNL     1     -10.893   8.778  67.999  1.00  0.00     0.008 C  
HETATM    7  O   UNL     1      -9.993   9.707  65.790  1.00  0.00    -0.293 OA 
HETATM    8  C   UNL     1     -11.440  12.672  65.903  1.00  0.00    -0.363 C  
HETATM    9  N   UNL     1     -11.170  10.776  67.543  1.00  0.00    -0.311 N  
HETATM   10  C   UNL     1     -10.606   9.780  66.828  1.00  0.00    -0.138 C  
HETATM   11  O   UNL     1     -12.157  11.996  65.096  1.00  0.00    -0.367 OA 
HETATM   12  OXT UNL     1     -10.793  13.735  65.706  1.00  0.00    -0.274 OA 
ENDROOT
BRANCH   4  13
HETATM   13  S   UNL     1     -11.936  14.604  68.480  1.00  0.00    -0.212 SA 
BRANCH  13  14
HETATM   14  C   UNL     1     -10.308  15.232  68.499  1.00  0.00    -0.231 A  
HETATM   15  N   UNL     1      -9.961  16.487  68.307  1.00  0.00    -0.242 NA 
HETATM   16  C   UNL     1      -8.580  16.586  68.292  1.00  0.00    -0.200 A  
HETATM   17  S   UNL     1      -9.014  14.165  68.899  1.00  0.00     0.106 SA 
HETATM   18  C   UNL     1      -7.901  15.433  68.636  1.00  0.00    -0.142 A  
BRANCH  16  19
HETATM   19  C   UNL     1      -7.914  17.828  67.936  1.00  0.00    -0.233 A  
HETATM   20  C   UNL     1      -8.291  18.565  66.814  1.00  0.00    -0.279 A  
HETATM   21  C   UNL     1      -7.606  19.731  66.500  1.00  0.00    -0.278 A  
HETATM   22  C   UNL     1      -5.840  21.375  66.895  1.00  0.00    -0.328 C  
HETATM   23  N   UNL     1      -6.584  20.163  67.269  1.00  0.00    -0.208 NA 
HETATM   24  C   UNL     1      -6.873  18.307  68.729  1.00  0.00    -0.268 A  
HETATM   25  C   UNL     1      -6.223  19.481  68.382  1.00  0.00    -0.236 A  
ENDBRANCH  16  19
ENDBRANCH  13  14
ENDBRANCH   4  13
BRANCH   6  26
HETATM   26  N   UNL     1      -9.671   8.287  68.716  1.00  0.00    -0.154 N  
HETATM   27  H   UNL     1      -9.740   7.470  69.321  1.00  0.00     0.000 HD 
HETATM   28  C   UNL     1      -8.454   8.923  68.572  1.00  0.00    -0.129 C  
HETATM   29  O   UNL     1      -8.320   9.990  67.985  1.00  0.00    -0.115 OA 
BRANCH  28  30
HETATM   30  C   UNL     1      -7.232   8.228  69.184  1.00  0.00    -0.072 C  
BRANCH  30  31
HETATM   31  C   UNL     1      -6.778   6.959  68.596  1.00  0.00    -0.060 A  
HETATM   32  S   UNL     1      -5.343   5.244  67.652  1.00  0.00    -0.012 SA 
HETATM   33  N   UNL     1      -7.667   5.877  68.391  1.00  0.00    -0.093 NA 
HETATM   34  N   UNL     1      -5.489   6.771  68.278  1.00  0.00    -0.015 NA 
HETATM   35  C   UNL     1      -7.009   4.871  67.861  1.00  0.00    -0.061 A  
BRANCH  35  36
HETATM   36  N   UNL     1      -7.522   3.662  67.524  1.00  0.00    -0.066 NA 
HETATM   37  H   UNL     1      -7.833   2.992  68.228  1.00  0.00     0.000 HD 
HETATM   38  P   UNL     1      -7.610   3.342  65.934  1.00  0.00    -0.082 P  
HETATM   39  O   UNL     1      -8.728   2.193  65.882  1.00  0.00    -0.111 OA 
HETATM   40  O   UNL     1      -8.411   4.535  65.232  1.00  0.00    -0.115 OA 
HETATM   41  O   UNL     1      -6.373   2.945  65.198  1.00  0.00    -0.026 OA 
ENDBRANCH  35  36
ENDBRANCH  30  31
BRANCH  30  42
HETATM   42  N   UNL     1      -6.548   8.669  70.205  1.00  0.00    -0.038 NA 
HETATM   43  H   UNL     1      -5.531   8.617  70.259  1.00  0.00     0.000 HD 
BRANCH  42  44
HETATM   44  O   UNL     1      -7.344   9.222  71.219  1.00  0.00    -0.272 OA 
BRANCH  44  45
HETATM   45  C   UNL     1      -7.840   8.156  72.033  1.00  0.00    -0.118 C  
HETATM   46  C   UNL     1      -7.420   8.396  73.471  1.00  0.00    -0.124 C  
ENDBRANCH  44  45
ENDBRANCH  42  44
ENDBRANCH  30  42
ENDBRANCH  28  30
ENDBRANCH   6  26
TORSDOF 10
ENDMDL
MODEL       72
REMARK 921   NORMALIZED FREE ENERGY PREDICTED BY IDOCK:   -3.29 KCAL/MOL
REMARK 922        TOTAL FREE ENERGY PREDICTED BY IDOCK:   -7.02 KCAL/MOL
REMARK 923 INTER-LIGAND FREE ENERGY PREDICTED BY IDOCK:   -8.34 KCAL/MOL
REMARK 924 INTRA-LIGAND FREE ENERGY PREDICTED BY IDOCK:    1.32 KCAL/MOL
REMARK 927      BINDING AFFINITY PREDICTED BY RF-SCORE:    0.00 PKD
ROOT
HETATM    1  C   UNL     1      -6.739   9.470  69.055  1.00  0.00    -0.050 C  
HETATM    2  S   UNL     1      -8.409  10.030  68.668  1.00  0.00    -0.122 SA 
HETATM    3  C   UNL     1      -9.198   9.316  70.123  1.00  0.00    -0.225 C  
HETATM    4  C   UNL     1      -8.627   8.025  70.701  1.00  0.00    -0.130 C  
HETATM    5  CA  UNL     1      -7.488   7.432  70.259  1.00  0.00    -0.083 C  
HETATM    6  CA  UNL     1      -5.785   9.183  67.846  1.00  0.00    -0.038 C  
HETATM    7  O   UNL     1      -5.278   6.680  68.035  1.00  0.00    -0.007 OA 
HETATM    8  C   UNL     1      -6.923   6.077  70.833  1.00  0.00    -0.067 C  
HETATM    9  N   UNL     1      -6.773   8.044  69.263  1.00  0.00    -0.039 N  
HETATM   10  C   UNL     1      -5.805   7.710  68.383  1.00  0.00    -0.031 C  
HETATM   11  O   UNL     1      -5.702   6.147  71.188  1.00  0.00    -0.024 OA 
HETATM   12  OXT UNL     1      -7.735   5.118  70.932  1.00  0.00    -0.083 OA 
ENDROOT
BRANCH   4  13
HETATM   13  S   UNL     1      -9.766   7.311  71.836  1.00  0.00    -0.154 SA 
BRANCH  13  14
HETATM   14  C   UNL     1     -11.175   8.335  71.736  1.00  0.00    -0.283 A  
HETATM   15  N   UNL     1     -11.173   9.637  71.537  1.00  0.00    -0.362 NA 
HETATM   16  C   UNL     1     -12.470  10.118  71.623  1.00  0.00    -0.409 A  
HETATM   17  S   UNL     1     -12.736   7.605  71.802  1.00  0.00    -0.315 SA 
HETATM   18  C   UNL     1     -13.452   9.153  71.723  1.00  0.00    -0.416 A  
BRANCH  16  19
HETATM   19  C   UNL     1     -12.750  11.544  71.606  1.00  0.00    -0.396 A  
HETATM   20  C   UNL     1     -13.740  12.105  72.411  1.00  0.00    -0.002 A  
HETATM   21  C   UNL     1     -13.989  13.469  72.339  1.00  0.00    -0.536 A  
HETATM   22  C   UNL     1     -13.592  15.693  71.404  1.00  0.00    -0.347 C  
HETATM   23  N   UNL     1     -13.283  14.259  71.502  1.00  0.00    -0.332 NA 
HETATM   24  C   UNL     1     -12.017  12.384  70.769  1.00  0.00    -0.087 A  
HETATM   25  C   UNL     1     -12.294  13.741  70.736  1.00  0.00    -0.379 A  
ENDBRANCH  16  19
ENDBRANCH  13  14
ENDBRANCH   4  13
BRANCH   6  26
HETATM   26  N   UNL     1      -6.309   9.347  66.452  1.00  0.00    -0.065 N  
HETATM   27  H   UNL     1      -6.905  10.145  66.232  1.00  0.00     0.000 HD 
HETATM   28  C   UNL     1      -6.000   8.439  65.460  1.00  0.00    -0.045 C  
HETATM   29  O   UNL     1      -5.417   7.383  65.676  1.00  0.00    -0.028 OA 
BRANCH  28  30
HETATM   30  C   UNL     1      -6.417   8.803  64.031  1.00  0.00    -0.076 C  
BRANCH  30  31
HETATM   31  C   UNL     1      -7.610   9.640  63.839  1.00  0.00    -0.127 A  
HETATM   32  S   UNL     1      -9.240  11.126  62.826  1.00  0.00    -0.304 SA 
HETATM   33  N   UNL     1      -8.610   9.745  64.835  1.00  0.00    -0.154 NA 
HETATM   34  N   UNL     1      -7.811  10.299  62.689  1.00  0.00    -0.140 NA 
HETATM   35  C   UNL     1      -9.561  10.546  64.412  1.00  0.00    -0.300 A  
BRANCH  35  36
HETATM   36  N   UNL     1     -10.686  10.888  65.088  1.00  0.00    -0.197 NA 
HETATM   37  H   UNL     1     -10.934  10.456  65.979  1.00  0.00     0.000 HD 
HETATM   38  P   UNL     1     -11.616  12.026  64.396  1.00  0.00    -0.291 P  
HETATM   39  O   UNL     1     -12.459  12.577  65.644  1.00  0.00    -0.648 OA 
HETATM   40  O   UNL     1     -10.699  13.302  64.098  1.00  0.00    -0.405 OA 
HETATM   41  O   UNL     1     -12.500  11.652  63.253  1.00  0.00    -0.471 OA 
ENDBRANCH  35  36
ENDBRANCH  30  31
BRANCH  30  42
HETATM   42  N   UNL     1      -5.797   8.425  62.945  1.00  0.00    -0.074 NA 
HETATM   43  H   UNL     1      -4.994   8.922  62.559  1.00  0.00     0.000 HD 
BRANCH  42  44
HETATM   44  O   UNL     1      -6.338   7.270  62.362  1.00  0.00    -0.058 OA 
BRANCH  44  45
HETATM   45  C   UNL     1      -5.363   6.227  62.437  1.00  0.00    -0.022 C  
HETATM   46  C   UNL     1      -5.975   5.027  63.136  1.00  0.00    -0.017 C  
ENDBRANCH  44  45
ENDBRANCH  42  44
ENDBRANCH  30  42
ENDBRANCH  28  30
ENDBRANCH   6  26
TORSDOF 10
ENDMDL
MODEL       73
REMARK 921   NORMALIZED FREE ENERGY PREDICTED BY IDOCK:   -3.27 KCAL/MOL
REMARK 922        TOTAL FREE ENERGY PREDICTED BY IDOCK:   -7.00 KCAL/MOL
REMARK 923 INTER-LIGAND FREE ENERGY PREDICTED BY IDOCK:   -7.33 KCAL/MOL
REMARK 924 INTRA-LIGAND FREE ENERGY PREDICTED BY IDOCK:    0.34 KCAL/MOL
REMARK 927      BINDING AFFINITY PREDICTED BY RF-SCORE:    0.00 PKD
ROOT
HETATM    1  C   UNL     1     -11.137  10.255  67.127  1.00  0.00    -0.091 C  
HETATM    2  S   UNL     1     -10.352  11.042  68.546  1.00  0.00    -0.199 SA 
HETATM    3  C   UNL     1     -11.318  12.563  68.487  1.00  0.00    -0.297 C  
HETATM    4  C   UNL     1     -11.793  13.070  67.129  1.00  0.00    -0.373 C  
HETATM    5  CA  UNL     1     -11.633  12.391  65.965  1.00  0.00    -0.401 C  
HETATM    6  CA  UNL     1     -10.264   9.260  66.290  1.00  0.00    -0.203 C  
HETATM    7  O   UNL     1     -10.128  10.347  63.976  1.00  0.00    -0.307 OA 
HETATM    8  C   UNL     1     -12.091  12.938  64.558  1.00  0.00    -0.413 C  
HETATM    9  N   UNL     1     -11.051  11.151  66.002  1.00  0.00    -0.123 N  
HETATM   10  C   UNL     1     -10.479  10.293  65.131  1.00  0.00     0.001 C  
HETATM   11  O   UNL     1     -12.822  12.120  63.911  1.00  0.00    -0.687 OA 
HETATM   12  OXT UNL     1     -11.743  14.112  64.264  1.00  0.00    -0.389 OA 
ENDROOT
BRANCH   4  13
HETATM   13  S   UNL     1     -12.350  14.734  67.263  1.00  0.00     0.470 SA 
BRANCH  13  14
HETATM   14  C   UNL     1     -10.908  15.692  67.044  1.00  0.00    -0.294 A  
HETATM   15  N   UNL     1     -10.016  15.970  67.971  1.00  0.00    -0.227 NA 
HETATM   16  C   UNL     1      -9.069  16.839  67.453  1.00  0.00    -0.216 A  
HETATM   17  S   UNL     1     -10.527  16.266  65.463  1.00  0.00    -0.310 SA 
HETATM   18  C   UNL     1      -9.165  17.076  66.097  1.00  0.00    -0.210 A  
BRANCH  16  19
HETATM   19  C   UNL     1      -8.054  17.444  68.300  1.00  0.00    -0.249 A  
HETATM   20  C   UNL     1      -6.947  16.722  68.745  1.00  0.00    -0.197 A  
HETATM   21  C   UNL     1      -6.019  17.336  69.575  1.00  0.00    -0.241 A  
HETATM   22  C   UNL     1      -5.205  19.243  70.871  1.00  0.00    -0.233 C  
HETATM   23  N   UNL     1      -6.173  18.623  69.954  1.00  0.00    -0.215 NA 
HETATM   24  C   UNL     1      -8.178  18.778  68.684  1.00  0.00    -0.363 A  
HETATM   25  C   UNL     1      -7.223  19.352  69.507  1.00  0.00    -0.164 A  
ENDBRANCH  16  19
ENDBRANCH  13  14
ENDBRANCH   4  13
BRANCH   6  26
HETATM   26  N   UNL     1      -8.833   9.044  66.679  1.00  0.00    -0.129 N  
HETATM   27  H   UNL     1      -8.392   9.683  67.340  1.00  0.00     0.000 HD 
HETATM   28  C   UNL     1      -8.101   7.997  66.158  1.00  0.00    -0.111 C  
HETATM   29  O   UNL     1      -8.508   7.279  65.253  1.00  0.00    -0.133 OA 
BRANCH  28  30
HETATM   30  C   UNL     1      -6.717   7.747  66.769  1.00  0.00    -0.067 C  
BRANCH  30  31
HETATM   31  C   UNL     1      -6.523   8.011  68.202  1.00  0.00    -0.055 A  
HETATM   32  S   UNL     1      -6.261   9.183  70.311  1.00  0.00    -0.050 SA 
HETATM   33  N   UNL     1      -6.420   6.958  69.142  1.00  0.00    -0.042 NA 
HETATM   34  N   UNL     1      -6.485   9.266  68.672  1.00  0.00    -0.052 NA 
HETATM   35  C   UNL     1      -6.256   7.464  70.343  1.00  0.00    -0.034 A  
BRANCH  35  36
HETATM   36  N   UNL     1      -6.122   6.767  71.499  1.00  0.00    -0.037 NA 
HETATM   37  H   UNL     1      -5.375   6.085  71.635  1.00  0.00     0.000 HD 
HETATM   38  P   UNL     1      -7.218   7.083  72.655  1.00  0.00    -0.073 P  
HETATM   39  O   UNL     1      -6.465   6.585  73.980  1.00  0.00    -0.069 OA 
HETATM   40  O   UNL     1      -7.222   8.661  72.917  1.00  0.00    -0.305 OA 
HETATM   41  O   UNL     1      -8.587   6.498  72.543  1.00  0.00    -0.122 OA 
ENDBRANCH  35  36
ENDBRANCH  30  31
BRANCH  30  42
HETATM   42  N   UNL     1      -5.671   7.317  66.115  1.00  0.00    -0.031 NA 
HETATM   43  H   UNL     1      -4.721   7.634  66.310  1.00  0.00     0.000 HD 
BRANCH  42  44
HETATM   44  O   UNL     1      -5.977   6.378  65.119  1.00  0.00    -0.028 OA 
BRANCH  44  45
HETATM   45  C   UNL     1      -5.684   6.959  63.846  1.00  0.00    -0.032 C  
HETATM   46  C   UNL     1      -6.515   6.265  62.783  1.00  0.00    -0.033 C  
ENDBRANCH  44  45
ENDBRANCH  42  44
ENDBRANCH  30  42
ENDBRANCH  28  30
ENDBRANCH   6  26
TORSDOF 10
ENDMDL
MODEL       74
REMARK 921   NORMALIZED FREE ENERGY PREDICTED BY IDOCK:   -3.26 KCAL/MOL
REMARK 922        TOTAL FREE ENERGY PREDICTED BY IDOCK:   -6.97 KCAL/MOL
REMARK 923 INTER-LIGAND FREE ENERGY PREDICTED BY IDOCK:   -5.86 KCAL/MOL
REMARK 924 INTRA-LIGAND FREE ENERGY PREDICTED BY IDOCK:   -1.11 KCAL/MOL
REMARK 927      BINDING AFFINITY PREDICTED BY RF-SCORE:    0.00 PKD
ROOT
HETATM    1  C   UNL     1      -8.830   9.499  67.224  1.00  0.00    -0.128 C  
HETATM    2  S   UNL     1      -8.029   9.652  68.832  1.00  0.00    -0.093 SA 
HETATM    3  C   UNL     1      -7.043  11.104  68.423  1.00  0.00    -0.076 C  
HETATM    4  C   UNL     1      -6.562  11.276  66.986  1.00  0.00    -0.116 C  
HETATM    5  CA  UNL     1      -6.922  10.462  65.961  1.00  0.00    -0.129 C  
HETATM    6  CA  UNL     1      -9.237   8.058  66.764  1.00  0.00    -0.165 C  
HETATM    7  O   UNL     1      -7.833   7.656  64.661  1.00  0.00    -0.114 OA 
HETATM    8  C   UNL     1      -6.391  10.620  64.485  1.00  0.00     0.112 C  
HETATM    9  N   UNL     1      -7.808   9.447  66.208  1.00  0.00    -0.100 N  
HETATM   10  C   UNL     1      -8.209   8.306  65.607  1.00  0.00    -0.134 C  
HETATM   11  O   UNL     1      -7.320  10.663  63.614  1.00  0.00     0.018 OA 
HETATM   12  OXT UNL     1      -5.146  10.745  64.338  1.00  0.00    -0.153 OA 
ENDROOT
BRANCH   4  13
HETATM   13  S   UNL     1      -5.312  12.512  66.908  1.00  0.00     0.481 SA 
BRANCH  13  14
HETATM   14  C   UNL     1      -5.966  13.848  67.820  1.00  0.00    -0.108 A  
HETATM   15  N   UNL     1      -6.825  14.741  67.375  1.00  0.00    -0.254 NA 
HETATM   16  C   UNL     1      -7.032  15.705  68.348  1.00  0.00    -0.115 A  
HETATM   17  S   UNL     1      -5.552  13.994  69.487  1.00  0.00    -0.091 SA 
HETATM   18  C   UNL     1      -6.454  15.441  69.574  1.00  0.00    -0.158 A  
BRANCH  16  19
HETATM   19  C   UNL     1      -7.808  16.903  68.073  1.00  0.00    -0.180 A  
HETATM   20  C   UNL     1      -8.988  16.856  67.332  1.00  0.00    -0.215 A  
HETATM   21  C   UNL     1      -9.680  18.031  67.072  1.00  0.00    -0.303 A  
HETATM   22  C   UNL     1      -9.948  20.457  67.206  1.00  0.00    -0.424 C  
HETATM   23  N   UNL     1      -9.227  19.217  67.530  1.00  0.00    -0.295 NA 
HETATM   24  C   UNL     1      -7.375  18.136  68.557  1.00  0.00    -0.285 A  
HETATM   25  C   UNL     1      -8.102  19.282  68.280  1.00  0.00    -0.332 A  
ENDBRANCH  16  19
ENDBRANCH  13  14
ENDBRANCH   4  13
BRANCH   6  26
HETATM   26  N   UNL     1      -8.913   6.893  67.650  1.00  0.00    -0.117 N  
HETATM   27  H   UNL     1      -8.075   6.924  68.231  1.00  0.00     0.000 HD 
HETATM   28  C   UNL     1      -9.727   5.780  67.694  1.00  0.00    -0.119 C  
HETATM   29  O   UNL     1     -10.664   5.603  66.924  1.00  0.00    -0.283 OA 
BRANCH  28  30
HETATM   30  C   UNL     1      -9.418   4.737  68.774  1.00  0.00    -0.148 C  
BRANCH  30  31
HETATM   31  C   UNL     1      -9.916   4.968  70.137  1.00  0.00    -0.258 A  
HETATM   32  S   UNL     1     -10.870   6.059  72.084  1.00  0.00    -0.264 SA 
HETATM   33  N   UNL     1      -9.950   3.931  71.100  1.00  0.00    -0.150 NA 
HETATM   34  N   UNL     1     -10.401   6.165  70.499  1.00  0.00    -0.204 NA 
HETATM   35  C   UNL     1     -10.440   4.400  72.225  1.00  0.00    -0.122 A  
BRANCH  35  36
HETATM   36  N   UNL     1     -10.628   3.704  73.374  1.00  0.00    -0.177 NA 
HETATM   37  H   UNL     1     -10.964   4.150  74.227  1.00  0.00     0.000 HD 
HETATM   38  P   UNL     1     -10.285   2.117  73.311  1.00  0.00    -0.137 P  
HETATM   39  O   UNL     1     -11.127   1.541  74.548  1.00  0.00    -0.110 OA 
HETATM   40  O   UNL     1     -11.108   1.480  72.097  1.00  0.00     0.085 OA 
HETATM   41  O   UNL     1      -8.860   1.674  73.357  1.00  0.00    -0.060 OA 
ENDBRANCH  35  36
ENDBRANCH  30  31
BRANCH  30  42
HETATM   42  N   UNL     1      -8.732   3.641  68.588  1.00  0.00    -0.095 NA 
HETATM   43  H   UNL     1      -7.780   3.513  68.930  1.00  0.00     0.000 HD 
BRANCH  42  44
HETATM   44  O   UNL     1      -9.429   2.655  67.875  1.00  0.00    -0.211 OA 
BRANCH  44  45
HETATM   45  C   UNL     1      -8.595   1.498  67.773  1.00  0.00    -0.081 C  
HETATM   46  C   UNL     1      -7.143   1.924  67.883  1.00  0.00    -0.046 C  
ENDBRANCH  44  45
ENDBRANCH  42  44
ENDBRANCH  30  42
ENDBRANCH  28  30
ENDBRANCH   6  26
TORSDOF 10
ENDMDL
MODEL       75
REMARK 921   NORMALIZED FREE ENERGY PREDICTED BY IDOCK:   -2.98 KCAL/MOL
REMARK 922        TOTAL FREE ENERGY PREDICTED BY IDOCK:   -6.53 KCAL/MOL
REMARK 923 INTER-LIGAND FREE ENERGY PREDICTED BY IDOCK:   -6.94 KCAL/MOL
REMARK 924 INTRA-LIGAND FREE ENERGY PREDICTED BY IDOCK:    0.41 KCAL/MOL
REMARK 927      BINDING AFFINITY PREDICTED BY RF-SCORE:    0.00 PKD
ROOT
HETATM    1  C   UNL     1     -11.899   9.915  69.516  1.00  0.00     0.173 C  
HETATM    2  S   UNL     1     -10.342  10.569  68.883  1.00  0.00    -0.221 SA 
HETATM    3  C   UNL     1      -9.537   8.972  68.655  1.00  0.00    -0.153 C  
HETATM    4  C   UNL     1      -9.893   7.835  69.607  1.00  0.00    -0.182 C  
HETATM    5  CA  UNL     1     -10.865   7.910  70.551  1.00  0.00    -0.241 C  
HETATM    6  CA  UNL     1     -12.695  10.815  70.521  1.00  0.00    -0.305 C  
HETATM    7  O   UNL     1     -12.732   9.447  72.685  1.00  0.00    -0.265 OA 
HETATM    8  C   UNL     1     -11.203   6.745  71.559  1.00  0.00    -0.260 C  
HETATM    9  N   UNL     1     -11.612   9.056  70.637  1.00  0.00    -0.256 N  
HETATM   10  C   UNL     1     -12.435   9.644  71.531  1.00  0.00    -0.386 C  
HETATM   11  O   UNL     1     -12.437   6.432  71.576  1.00  0.00    -0.246 OA 
HETATM   12  OXT UNL     1     -10.234   6.227  72.175  1.00  0.00    -0.183 OA 
ENDROOT
BRANCH   4  13
HETATM   13  S   UNL     1      -8.722   6.530  69.460  1.00  0.00    -0.134 SA 
BRANCH  13  14
HETATM   14  C   UNL     1      -8.540   6.304  67.739  1.00  0.00    -0.115 A  
HETATM   15  N   UNL     1      -8.110   5.211  67.144  1.00  0.00    -0.104 NA 
HETATM   16  C   UNL     1      -8.001   5.440  65.782  1.00  0.00    -0.106 A  
HETATM   17  S   UNL     1      -9.050   7.564  66.679  1.00  0.00    -0.164 SA 
HETATM   18  C   UNL     1      -8.506   6.648  65.345  1.00  0.00    -0.107 A  
BRANCH  16  19
HETATM   19  C   UNL     1      -7.395   4.460  64.896  1.00  0.00    -0.072 A  
HETATM   20  C   UNL     1      -8.161   3.695  64.018  1.00  0.00    -0.090 A  
HETATM   21  C   UNL     1      -7.539   2.752  63.211  1.00  0.00    -0.063 A  
HETATM   22  C   UNL     1      -5.567   1.534  62.435  1.00  0.00    -0.003 C  
HETATM   23  N   UNL     1      -6.203   2.569  63.263  1.00  0.00    -0.010 NA 
HETATM   24  C   UNL     1      -6.014   4.271  64.913  1.00  0.00    -0.022 A  
HETATM   25  C   UNL     1      -5.436   3.325  64.084  1.00  0.00    -0.009 A  
ENDBRANCH  16  19
ENDBRANCH  13  14
ENDBRANCH   4  13
BRANCH   6  26
HETATM   26  N   UNL     1     -12.115  12.135  70.931  1.00  0.00    -0.418 N  
HETATM   27  H   UNL     1     -11.106  12.276  70.878  1.00  0.00     0.000 HD 
HETATM   28  C   UNL     1     -12.921  13.161  71.378  1.00  0.00    -0.298 C  
HETATM   29  O   UNL     1     -14.116  13.024  71.610  1.00  0.00     0.171 OA 
BRANCH  28  30
HETATM   30  C   UNL     1     -12.256  14.528  71.581  1.00  0.00    -0.331 C  
BRANCH  30  31
HETATM   31  C   UNL     1     -11.703  15.220  70.408  1.00  0.00    -0.310 A  
HETATM   32  S   UNL     1     -11.175  15.789  68.108  1.00  0.00    -0.325 SA 
HETATM   33  N   UNL     1     -10.943  16.408  70.538  1.00  0.00    -0.246 NA 
HETATM   34  N   UNL     1     -11.941  14.771  69.167  1.00  0.00    -0.299 NA 
HETATM   35  C   UNL     1     -10.576  16.820  69.346  1.00  0.00    -0.318 A  
BRANCH  35  36
HETATM   36  N   UNL     1      -9.839  17.924  69.068  1.00  0.00    -0.279 NA 
HETATM   37  H   UNL     1     -10.174  18.864  69.276  1.00  0.00     0.000 HD 
HETATM   38  P   UNL     1      -8.390  17.660  68.382  1.00  0.00    -0.281 P  
HETATM   39  O   UNL     1      -7.603  19.015  68.724  1.00  0.00    -0.324 OA 
HETATM   40  O   UNL     1      -7.583  16.634  69.306  1.00  0.00    -0.227 OA 
HETATM   41  O   UNL     1      -8.318  17.330  66.928  1.00  0.00    -0.205 OA 
ENDBRANCH  35  36
ENDBRANCH  30  31
BRANCH  30  42
HETATM   42  N   UNL     1     -12.129  15.141  72.727  1.00  0.00    -0.380 NA 
HETATM   43  H   UNL     1     -11.633  14.740  73.523  1.00  0.00     0.000 HD 
BRANCH  42  44
HETATM   44  O   UNL     1     -12.738  16.404  72.759  1.00  0.00    -0.341 OA 
BRANCH  44  45
HETATM   45  C   UNL     1     -12.636  16.919  74.089  1.00  0.00     0.169 C  
HETATM   46  C   UNL     1     -11.429  17.835  74.174  1.00  0.00     0.822 C  
ENDBRANCH  44  45
ENDBRANCH  42  44
ENDBRANCH  30  42
ENDBRANCH  28  30
ENDBRANCH   6  26
TORSDOF 10
ENDMDL
MODEL       76
REMARK 921   NORMALIZED FREE ENERGY PREDICTED BY IDOCK:   -2.92 KCAL/MOL
REMARK 922        TOTAL FREE ENERGY PREDICTED BY IDOCK:   -6.44 KCAL/MOL
REMARK 923 INTER-LIGAND FREE ENERGY PREDICTED BY IDOCK:   -5.34 KCAL/MOL
REMARK 924 INTRA-LIGAND FREE ENERGY PREDICTED BY IDOCK:   -1.10 KCAL/MOL
REMARK 927      BINDING AFFINITY PREDICTED BY RF-SCORE:    0.00 PKD
ROOT
HETATM    1  C   UNL     1      -9.391  11.905  67.324  1.00  0.00    -0.177 C  
HETATM    2  S   UNL     1     -10.621  11.923  68.642  1.00  0.00    -0.224 SA 
HETATM    3  C   UNL     1     -10.377  13.645  69.115  1.00  0.00     0.063 C  
HETATM    4  C   UNL     1      -8.986  14.251  68.964  1.00  0.00     0.061 C  
HETATM    5  CA  UNL     1      -7.936  13.611  68.388  1.00  0.00    -0.147 C  
HETATM    6  CA  UNL     1      -8.673  10.543  67.037  1.00  0.00    -0.130 C  
HETATM    7  O   UNL     1      -6.213  11.012  67.566  1.00  0.00    -0.051 OA 
HETATM    8  C   UNL     1      -6.488  14.226  68.270  1.00  0.00    -0.116 C  
HETATM    9  N   UNL     1      -8.135  12.360  67.865  1.00  0.00    -0.149 N  
HETATM   10  C   UNL     1      -7.379  11.312  67.475  1.00  0.00    -0.105 C  
HETATM   11  O   UNL     1      -6.021  14.196  67.086  1.00  0.00    -0.195 OA 
HETATM   12  OXT UNL     1      -5.993  14.721  69.318  1.00  0.00    -0.099 OA 
ENDROOT
BRANCH   4  13
HETATM   13  S   UNL     1      -8.887  15.772  69.842  1.00  0.00     0.502 SA 
BRANCH  13  14
HETATM   14  C   UNL     1      -9.053  16.995  68.609  1.00  0.00    -0.271 A  
HETATM   15  N   UNL     1      -8.111  17.387  67.776  1.00  0.00    -0.211 NA 
HETATM   16  C   UNL     1      -8.580  18.445  67.015  1.00  0.00    -0.262 A  
HETATM   17  S   UNL     1     -10.600  17.715  68.358  1.00  0.00    -0.257 SA 
HETATM   18  C   UNL     1      -9.922  18.732  67.167  1.00  0.00    -0.336 A  
BRANCH  16  19
HETATM   19  C   UNL     1      -7.701  19.185  66.124  1.00  0.00    -0.296 A  
HETATM   20  C   UNL     1      -7.843  20.558  65.930  1.00  0.00     0.069 A  
HETATM   21  C   UNL     1      -6.996  21.215  65.048  1.00  0.00     0.386 A  
HETATM   22  C   UNL     1      -5.179  21.246  63.414  1.00  0.00    -0.209 C  
HETATM   23  N   UNL     1      -6.036  20.543  64.379  1.00  0.00    -0.260 NA 
HETATM   24  C   UNL     1      -6.686  18.517  65.442  1.00  0.00    -0.215 A  
HETATM   25  C   UNL     1      -5.858  19.215  64.578  1.00  0.00    -0.284 A  
ENDBRANCH  16  19
ENDBRANCH  13  14
ENDBRANCH   4  13
BRANCH   6  26
HETATM   26  N   UNL     1      -9.010   9.351  67.882  1.00  0.00    -0.124 N  
HETATM   27  H   UNL     1      -8.471   9.171  68.729  1.00  0.00     0.000 HD 
HETATM   28  C   UNL     1     -10.035   8.495  67.534  1.00  0.00    -0.200 C  
HETATM   29  O   UNL     1     -10.627   8.558  66.464  1.00  0.00    -0.200 OA 
BRANCH  28  30
HETATM   30  C   UNL     1     -10.426   7.429  68.564  1.00  0.00    -0.186 C  
BRANCH  30  31
HETATM   31  C   UNL     1      -9.606   6.212  68.662  1.00  0.00    -0.127 A  
HETATM   32  S   UNL     1      -8.324   4.246  68.046  1.00  0.00    -0.094 SA 
HETATM   33  N   UNL     1      -9.143   5.729  69.909  1.00  0.00    -0.142 NA 
HETATM   34  N   UNL     1      -9.231   5.544  67.561  1.00  0.00    -0.110 NA 
HETATM   35  C   UNL     1      -8.435   4.640  69.716  1.00  0.00    -0.073 A  
BRANCH  35  36
HETATM   36  N   UNL     1      -7.826   3.895  70.672  1.00  0.00    -0.054 NA 
HETATM   37  H   UNL     1      -8.038   2.906  70.802  1.00  0.00     0.000 HD 
HETATM   38  P   UNL     1      -6.740   4.671  71.597  1.00  0.00    -0.037 P  
HETATM   39  O   UNL     1      -5.849   3.461  72.159  1.00  0.00    -0.008 OA 
HETATM   40  O   UNL     1      -5.674   5.370  70.630  1.00  0.00    -0.018 OA 
HETATM   41  O   UNL     1      -7.218   5.563  72.694  1.00  0.00    -0.086 OA 
ENDBRANCH  35  36
ENDBRANCH  30  31
BRANCH  30  42
HETATM   42  N   UNL     1     -11.447   7.503  69.375  1.00  0.00    -0.359 NA 
HETATM   43  H   UNL     1     -12.391   7.734  69.064  1.00  0.00     0.000 HD 
BRANCH  42  44
HETATM   44  O   UNL     1     -11.124   7.236  70.713  1.00  0.00    -0.252 OA 
BRANCH  44  45
HETATM   45  C   UNL     1     -12.329   6.915  71.412  1.00  0.00    -0.376 C  
HETATM   46  C   UNL     1     -13.428   7.859  70.961  1.00  0.00     0.022 C  
ENDBRANCH  44  45
ENDBRANCH  42  44
ENDBRANCH  30  42
ENDBRANCH  28  30
ENDBRANCH   6  26
TORSDOF 10
ENDMDL
MODEL       77
REMARK 921   NORMALIZED FREE ENERGY PREDICTED BY IDOCK:   -2.83 KCAL/MOL
REMARK 922        TOTAL FREE ENERGY PREDICTED BY IDOCK:   -6.29 KCAL/MOL
REMARK 923 INTER-LIGAND FREE ENERGY PREDICTED BY IDOCK:   -4.54 KCAL/MOL
REMARK 924 INTRA-LIGAND FREE ENERGY PREDICTED BY IDOCK:   -1.76 KCAL/MOL
REMARK 927      BINDING AFFINITY PREDICTED BY RF-SCORE:    0.00 PKD
ROOT
HETATM    1  C   UNL     1      -5.396   6.509  68.117  1.00  0.00    -0.008 C  
HETATM    2  S   UNL     1      -6.185   7.612  66.930  1.00  0.00    -0.050 SA 
HETATM    3  C   UNL     1      -6.278   9.043  68.023  1.00  0.00    -0.051 C  
HETATM    4  C   UNL     1      -6.454   8.805  69.518  1.00  0.00    -0.044 C  
HETATM    5  CA  UNL     1      -6.433   7.580  70.102  1.00  0.00    -0.034 C  
HETATM    6  CA  UNL     1      -5.704   4.979  67.983  1.00  0.00    -0.017 C  
HETATM    7  O   UNL     1      -6.888   4.388  70.175  1.00  0.00    -0.033 OA 
HETATM    8  C   UNL     1      -6.656   7.336  71.644  1.00  0.00    -0.047 C  
HETATM    9  N   UNL     1      -6.195   6.482  69.317  1.00  0.00    -0.032 N  
HETATM   10  C   UNL     1      -6.346   5.144  69.404  1.00  0.00    -0.034 C  
HETATM   11  O   UNL     1      -5.739   6.636  72.183  1.00  0.00    -0.036 OA 
HETATM   12  OXT UNL     1      -7.654   7.895  72.170  1.00  0.00    -0.077 OA 
ENDROOT
BRANCH   4  13
HETATM   13  S   UNL     1      -6.917  10.301  70.321  1.00  0.00    -0.062 SA 
BRANCH  13  14
HETATM   14  C   UNL     1      -7.497  11.323  69.030  1.00  0.00    -0.116 A  
HETATM   15  N   UNL     1      -8.635  11.181  68.383  1.00  0.00    -0.146 NA 
HETATM   16  C   UNL     1      -8.702  12.114  67.361  1.00  0.00    -0.177 A  
HETATM   17  S   UNL     1      -6.574  12.713  68.596  1.00  0.00    -0.090 SA 
HETATM   18  C   UNL     1      -7.691  13.054  67.351  1.00  0.00    -0.155 A  
BRANCH  16  19
HETATM   19  C   UNL     1      -9.774  12.084  66.380  1.00  0.00    -0.239 A  
HETATM   20  C   UNL     1     -11.068  12.498  66.696  1.00  0.00    -0.327 A  
HETATM   21  C   UNL     1     -12.064  12.425  65.733  1.00  0.00    -0.311 A  
HETATM   22  C   UNL     1     -12.875  11.848  63.500  1.00  0.00    -0.305 C  
HETATM   23  N   UNL     1     -11.797  11.962  64.493  1.00  0.00    -0.268 NA 
HETATM   24  C   UNL     1      -9.517  11.634  65.086  1.00  0.00    -0.152 A  
HETATM   25  C   UNL     1     -10.541  11.586  64.154  1.00  0.00    -0.363 A  
ENDBRANCH  16  19
ENDBRANCH  13  14
ENDBRANCH   4  13
BRANCH   6  26
HETATM   26  N   UNL     1      -6.653   4.519  66.918  1.00  0.00    -0.049 N  
HETATM   27  H   UNL     1      -7.581   4.192  67.182  1.00  0.00     0.000 HD 
HETATM   28  C   UNL     1      -6.292   4.530  65.586  1.00  0.00    -0.036 C  
HETATM   29  O   UNL     1      -5.153   4.767  65.201  1.00  0.00    -0.008 OA 
BRANCH  28  30
HETATM   30  C   UNL     1      -7.396   4.232  64.566  1.00  0.00    -0.071 C  
BRANCH  30  31
HETATM   31  C   UNL     1      -8.798   4.375  64.986  1.00  0.00    -0.141 A  
HETATM   32  S   UNL     1     -11.195   4.033  65.158  1.00  0.00     1.175 SA 
HETATM   33  N   UNL     1      -9.180   5.290  65.997  1.00  0.00    -0.155 NA 
HETATM   34  N   UNL     1      -9.758   3.605  64.454  1.00  0.00    -0.165 NA 
HETATM   35  C   UNL     1     -10.478   5.215  66.181  1.00  0.00    -0.250 A  
BRANCH  35  36
HETATM   36  N   UNL     1     -11.208   5.936  67.068  1.00  0.00    -0.493 NA 
HETATM   37  H   UNL     1     -12.146   6.272  66.849  1.00  0.00     0.000 HD 
HETATM   38  P   UNL     1     -10.501   6.234  68.500  1.00  0.00    -0.289 P  
HETATM   39  O   UNL     1     -11.762   6.547  69.440  1.00  0.00    -0.295 OA 
HETATM   40  O   UNL     1     -10.034   4.836  69.122  1.00  0.00    -0.191 OA 
HETATM   41  O   UNL     1      -9.461   7.300  68.594  1.00  0.00    -0.139 OA 
ENDBRANCH  35  36
ENDBRANCH  30  31
BRANCH  30  42
HETATM   42  N   UNL     1      -7.200   3.851  63.332  1.00  0.00    -0.049 NA 
HETATM   43  H   UNL     1      -6.717   2.986  63.086  1.00  0.00     0.000 HD 
BRANCH  42  44
HETATM   44  O   UNL     1      -7.716   4.740  62.379  1.00  0.00    -0.053 OA 
BRANCH  44  45
HETATM   45  C   UNL     1      -6.903   5.917  62.374  1.00  0.00    -0.040 C  
HETATM   46  C   UNL     1      -7.680   7.056  63.007  1.00  0.00    -0.115 C  
ENDBRANCH  44  45
ENDBRANCH  42  44
ENDBRANCH  30  42
ENDBRANCH  28  30
ENDBRANCH   6  26
TORSDOF 10
ENDMDL
MODEL       78
REMARK 921   NORMALIZED FREE ENERGY PREDICTED BY IDOCK:   -2.43 KCAL/MOL
REMARK 922        TOTAL FREE ENERGY PREDICTED BY IDOCK:   -5.66 KCAL/MOL
REMARK 923 INTER-LIGAND FREE ENERGY PREDICTED BY IDOCK:   -4.33 KCAL/MOL
REMARK 924 INTRA-LIGAND FREE ENERGY PREDICTED BY IDOCK:   -1.33 KCAL/MOL
REMARK 927      BINDING AFFINITY PREDICTED BY RF-SCORE:    0.00 PKD
ROOT
HETATM    1  C   UNL     1     -10.838  10.183  66.398  1.00  0.00     0.076 C  
HETATM    2  S   UNL     1     -10.344  11.192  67.808  1.00  0.00    -0.195 SA 
HETATM    3  C   UNL     1     -11.576  12.486  67.566  1.00  0.00    -0.361 C  
HETATM    4  C   UNL     1     -12.023  12.808  66.145  1.00  0.00    -0.414 C  
HETATM    5  CA  UNL     1     -11.636  12.108  65.048  1.00  0.00    -0.310 C  
HETATM    6  CA  UNL     1      -9.722   9.334  65.702  1.00  0.00    -0.232 C  
HETATM    7  O   UNL     1      -9.601  10.290  63.329  1.00  0.00    -0.304 OA 
HETATM    8  C   UNL     1     -12.069  12.470  63.575  1.00  0.00    -0.562 C  
HETATM    9  N   UNL     1     -10.831  11.012  65.219  1.00  0.00    -0.162 N  
HETATM   10  C   UNL     1     -10.032  10.235  64.457  1.00  0.00    -0.289 C  
HETATM   11  O   UNL     1     -12.571  11.488  62.939  1.00  0.00    -0.136 OA 
HETATM   12  OXT UNL     1     -11.931  13.671  63.221  1.00  0.00    -0.322 OA 
ENDROOT
BRANCH   4  13
HETATM   13  S   UNL     1     -12.899  14.334  66.115  1.00  0.00     0.318 SA 
BRANCH  13  14
HETATM   14  C   UNL     1     -11.654  15.546  65.961  1.00  0.00     0.209 A  
HETATM   15  N   UNL     1     -10.826  15.929  66.910  1.00  0.00    -0.286 NA 
HETATM   16  C   UNL     1     -10.051  16.981  66.448  1.00  0.00    -0.317 A  
HETATM   17  S   UNL     1     -11.382  16.264  64.417  1.00  0.00     0.172 SA 
HETATM   18  C   UNL     1     -10.188  17.270  65.105  1.00  0.00     0.544 A  
BRANCH  16  19
HETATM   19  C   UNL     1      -9.161  17.712  67.336  1.00  0.00    -0.247 A  
HETATM   20  C   UNL     1      -9.618  18.280  68.524  1.00  0.00    -0.358 A  
HETATM   21  C   UNL     1      -8.736  18.992  69.325  1.00  0.00     0.075 A  
HETATM   22  C   UNL     1      -6.533  19.936  69.807  1.00  0.00    -0.356 C  
HETATM   23  N   UNL     1      -7.442  19.138  68.970  1.00  0.00    -0.342 NA 
HETATM   24  C   UNL     1      -7.815  17.854  67.004  1.00  0.00    -0.234 A  
HETATM   25  C   UNL     1      -6.969  18.567  67.838  1.00  0.00    -0.220 A  
ENDBRANCH  16  19
ENDBRANCH  13  14
ENDBRANCH   4  13
BRANCH   6  26
HETATM   26  N   UNL     1      -8.314   9.429  66.208  1.00  0.00    -0.114 N  
HETATM   27  H   UNL     1      -7.599   9.858  65.620  1.00  0.00     0.000 HD 
HETATM   28  C   UNL     1      -7.968   8.947  67.453  1.00  0.00    -0.101 C  
HETATM   29  O   UNL     1      -8.729   8.290  68.154  1.00  0.00    -0.135 OA 
BRANCH  28  30
HETATM   30  C   UNL     1      -6.556   9.272  67.955  1.00  0.00    -0.063 C  
BRANCH  30  31
HETATM   31  C   UNL     1      -6.039  10.635  67.765  1.00  0.00    -0.047 A  
HETATM   32  S   UNL     1      -5.196  12.649  66.706  1.00  0.00     0.873 SA 
HETATM   33  N   UNL     1      -5.885  11.528  68.853  1.00  0.00    -0.047 NA 
HETATM   34  N   UNL     1      -5.739  11.093  66.541  1.00  0.00    -0.118 NA 
HETATM   35  C   UNL     1      -5.413  12.671  68.411  1.00  0.00    -0.058 A  
BRANCH  35  36
HETATM   36  N   UNL     1      -5.138  13.770  69.157  1.00  0.00    -0.074 NA 
HETATM   37  H   UNL     1      -4.268  14.293  69.048  1.00  0.00     0.000 HD 
HETATM   38  P   UNL     1      -6.273  14.205  70.234  1.00  0.00    -0.066 P  
HETATM   39  O   UNL     1      -5.927  15.751  70.484  1.00  0.00    -0.095 OA 
HETATM   40  O   UNL     1      -7.662  14.356  69.456  1.00  0.00    -0.019 OA 
HETATM   41  O   UNL     1      -6.392  13.450  71.516  1.00  0.00     0.167 OA 
ENDBRANCH  35  36
ENDBRANCH  30  31
BRANCH  30  42
HETATM   42  N   UNL     1      -5.753   8.427  68.544  1.00  0.00    -0.037 NA 
HETATM   43  H   UNL     1      -4.901   8.072  68.109  1.00  0.00     0.000 HD 
BRANCH  42  44
HETATM   44  O   UNL     1      -6.172   8.054  69.829  1.00  0.00    -0.029 OA 
BRANCH  44  45
HETATM   45  C   UNL     1      -6.336   6.633  69.855  1.00  0.00    -0.039 C  
HETATM   46  C   UNL     1      -7.265   6.263  70.996  1.00  0.00    -0.075 C  
ENDBRANCH  44  45
ENDBRANCH  42  44
ENDBRANCH  30  42
ENDBRANCH  28  30
ENDBRANCH   6  26
TORSDOF 10
ENDMDL
MODEL       79
REMARK 921   NORMALIZED FREE ENERGY PREDICTED BY IDOCK:   -2.23 KCAL/MOL
REMARK 922        TOTAL FREE ENERGY PREDICTED BY IDOCK:   -5.34 KCAL/MOL
REMARK 923 INTER-LIGAND FREE ENERGY PREDICTED BY IDOCK:   -6.20 KCAL/MOL
REMARK 924 INTRA-LIGAND FREE ENERGY PREDICTED BY IDOCK:    0.86 KCAL/MOL
REMARK 927      BINDING AFFINITY PREDICTED BY RF-SCORE:    0.00 PKD
ROOT
HETATM    1  C   UNL     1      -6.105  10.446  66.002  1.00  0.00    -0.105 C  
HETATM    2  S   UNL     1      -5.127   9.637  67.283  1.00  0.00    -0.035 SA 
HETATM    3  C   UNL     1      -5.822   7.990  67.050  1.00  0.00    -0.045 C  
HETATM    4  C   UNL     1      -7.274   7.870  66.599  1.00  0.00    -0.084 C  
HETATM    5  CA  UNL     1      -8.052   8.927  66.251  1.00  0.00    -0.110 C  
HETATM    6  CA  UNL     1      -6.445  11.960  66.214  1.00  0.00     0.591 C  
HETATM    7  O   UNL     1      -9.000  12.006  66.382  1.00  0.00    -0.203 OA 
HETATM    8  C   UNL     1      -9.565   8.801  65.824  1.00  0.00    -0.120 C  
HETATM    9  N   UNL     1      -7.499  10.180  66.256  1.00  0.00    -0.106 N  
HETATM   10  C   UNL     1      -7.930  11.459  66.251  1.00  0.00    -0.037 C  
HETATM   11  O   UNL     1      -9.827   9.371  64.715  1.00  0.00     0.023 OA 
HETATM   12  OXT UNL     1     -10.313   8.119  66.574  1.00  0.00    -0.273 OA 
ENDROOT
BRANCH   4  13
HETATM   13  S   UNL     1      -7.845   6.222  66.825  1.00  0.00    -0.105 SA 
BRANCH  13  14
HETATM   14  C   UNL     1      -8.582   6.232  68.407  1.00  0.00    -0.114 A  
HETATM   15  N   UNL     1      -9.739   6.779  68.717  1.00  0.00    -0.132 NA 
HETATM   16  C   UNL     1      -9.944   6.678  70.084  1.00  0.00    -0.173 A  
HETATM   17  S   UNL     1      -7.807   5.377  69.688  1.00  0.00    -0.078 SA 
HETATM   18  C   UNL     1      -9.018   5.913  70.765  1.00  0.00    -0.149 A  
BRANCH  16  19
HETATM   19  C   UNL     1     -11.064   7.340  70.732  1.00  0.00    -0.290 A  
HETATM   20  C   UNL     1     -11.001   8.679  71.115  1.00  0.00    -0.320 A  
HETATM   21  C   UNL     1     -12.087   9.260  71.756  1.00  0.00    -0.387 A  
HETATM   22  C   UNL     1     -14.327   9.163  72.729  1.00  0.00     0.136 C  
HETATM   23  N   UNL     1     -13.205   8.546  72.008  1.00  0.00    -0.355 NA 
HETATM   24  C   UNL     1     -12.238   6.631  70.980  1.00  0.00    -0.344 A  
HETATM   25  C   UNL     1     -13.301   7.254  71.615  1.00  0.00    -0.358 A  
ENDBRANCH  16  19
ENDBRANCH  13  14
ENDBRANCH   4  13
BRANCH   6  26
HETATM   26  N   UNL     1      -5.983  12.641  67.467  1.00  0.00    -0.147 N  
HETATM   27  H   UNL     1      -5.270  13.367  67.408  1.00  0.00     0.000 HD 
HETATM   28  C   UNL     1      -6.505  12.302  68.699  1.00  0.00    -0.073 C  
HETATM   29  O   UNL     1      -7.251  11.345  68.871  1.00  0.00    -0.099 OA 
BRANCH  28  30
HETATM   30  C   UNL     1      -6.114  13.190  69.885  1.00  0.00    -0.128 C  
BRANCH  30  31
HETATM   31  C   UNL     1      -6.194  14.650  69.727  1.00  0.00    -0.140 A  
HETATM   32  S   UNL     1      -5.633  17.009  69.825  1.00  0.00    -0.215 SA 
HETATM   33  N   UNL     1      -7.278  15.264  69.054  1.00  0.00    -0.137 NA 
HETATM   34  N   UNL     1      -5.213  15.446  70.176  1.00  0.00    -0.116 NA 
HETATM   35  C   UNL     1      -7.103  16.566  69.050  1.00  0.00    -0.213 A  
BRANCH  35  36
HETATM   36  N   UNL     1      -7.930  17.488  68.498  1.00  0.00    -0.264 NA 
HETATM   37  H   UNL     1      -8.534  18.081  69.066  1.00  0.00     0.000 HD 
HETATM   38  P   UNL     1      -7.903  17.590  66.877  1.00  0.00    -0.266 P  
HETATM   39  O   UNL     1      -8.487  19.063  66.622  1.00  0.00    -0.281 OA 
HETATM   40  O   UNL     1      -6.386  17.814  66.419  1.00  0.00    -0.173 OA 
HETATM   41  O   UNL     1      -8.621  16.563  66.066  1.00  0.00    -0.398 OA 
ENDBRANCH  35  36
ENDBRANCH  30  31
BRANCH  30  42
HETATM   42  N   UNL     1      -5.703  12.757  71.047  1.00  0.00    -0.448 NA 
HETATM   43  H   UNL     1      -5.215  11.871  71.171  1.00  0.00     0.000 HD 
BRANCH  42  44
HETATM   44  O   UNL     1      -5.997  13.627  72.107  1.00  0.00    -0.350 OA 
BRANCH  44  45
HETATM   45  C   UNL     1      -5.390  13.111  73.295  1.00  0.00     0.319 C  
HETATM   46  C   UNL     1      -5.336  14.209  74.341  1.00  0.00     0.105 C  
ENDBRANCH  44  45
ENDBRANCH  42  44
ENDBRANCH  30  42
ENDBRANCH  28  30
ENDBRANCH   6  26
TORSDOF 10
ENDMDL
MODEL       80
REMARK 921   NORMALIZED FREE ENERGY PREDICTED BY IDOCK:   -1.66 KCAL/MOL
REMARK 922        TOTAL FREE ENERGY PREDICTED BY IDOCK:   -4.45 KCAL/MOL
REMARK 923 INTER-LIGAND FREE ENERGY PREDICTED BY IDOCK:   -5.20 KCAL/MOL
REMARK 924 INTRA-LIGAND FREE ENERGY PREDICTED BY IDOCK:    0.76 KCAL/MOL
REMARK 927      BINDING AFFINITY PREDICTED BY RF-SCORE:    0.00 PKD
ROOT
HETATM    1  C   UNL     1      -9.926  10.040  65.211  1.00  0.00    -0.298 C  
HETATM    2  S   UNL     1      -8.214  10.561  64.991  1.00  0.00    -0.073 SA 
HETATM    3  C   UNL     1      -7.572   8.939  64.537  1.00  0.00    -0.109 C  
HETATM    4  C   UNL     1      -8.227   7.702  65.141  1.00  0.00    -0.128 C  
HETATM    5  CA  UNL     1      -9.341   7.733  65.916  1.00  0.00     0.041 C  
HETATM    6  CA  UNL     1     -10.783  10.829  66.257  1.00  0.00    -0.138 C  
HETATM    7  O   UNL     1     -11.377   9.076  68.026  1.00  0.00     0.271 OA 
HETATM    8  C   UNL     1      -9.992   6.455  66.571  1.00  0.00    -0.103 C  
HETATM    9  N   UNL     1      -9.952   8.939  66.140  1.00  0.00    -0.278 N  
HETATM   10  C   UNL     1     -10.852   9.453  67.005  1.00  0.00    -0.026 C  
HETATM   11  O   UNL     1     -11.236   6.338  66.326  1.00  0.00     0.185 OA 
HETATM   12  OXT UNL     1      -9.220   5.680  67.197  1.00  0.00    -0.114 OA 
ENDROOT
BRANCH   4  13
HETATM   13  S   UNL     1      -7.209   6.290  64.887  1.00  0.00    -0.071 SA 
BRANCH  13  14
HETATM   14  C   UNL     1      -6.564   5.931  66.468  1.00  0.00    -0.055 A  
HETATM   15  N   UNL     1      -6.782   6.622  67.567  1.00  0.00    -0.064 NA 
HETATM   16  C   UNL     1      -6.022   6.097  68.600  1.00  0.00    -0.020 A  
HETATM   17  S   UNL     1      -5.631   4.496  66.676  1.00  0.00    -0.014 SA 
HETATM   18  C   UNL     1      -5.367   4.917  68.309  1.00  0.00    -0.011 A  
BRANCH  16  19
HETATM   19  C   UNL     1      -5.939   6.760  69.891  1.00  0.00    -0.023 A  
HETATM   20  C   UNL     1      -6.583   6.252  71.018  1.00  0.00    -0.050 A  
HETATM   21  C   UNL     1      -6.496   6.936  72.222  1.00  0.00    -0.057 A  
HETATM   22  C   UNL     1      -5.751   8.821  73.589  1.00  0.00    -0.113 C  
HETATM   23  N   UNL     1      -5.793   8.085  72.317  1.00  0.00    -0.040 NA 
HETATM   24  C   UNL     1      -5.198   7.934  70.020  1.00  0.00    -0.023 A  
HETATM   25  C   UNL     1      -5.132   8.579  71.244  1.00  0.00    -0.029 A  
ENDBRANCH  16  19
ENDBRANCH  13  14
ENDBRANCH   4  13
BRANCH   6  26
HETATM   26  N   UNL     1     -10.139  11.935  67.039  1.00  0.00    -0.204 N  
HETATM   27  H   UNL     1     -10.179  11.916  68.058  1.00  0.00     0.000 HD 
HETATM   28  C   UNL     1      -9.494  12.977  66.404  1.00  0.00    -0.224 C  
HETATM   29  O   UNL     1      -9.529  13.149  65.192  1.00  0.00     0.128 OA 
BRANCH  28  30
HETATM   30  C   UNL     1      -8.700  13.943  67.291  1.00  0.00    -0.217 C  
BRANCH  30  31
HETATM   31  C   UNL     1      -9.399  15.102  67.868  1.00  0.00    -0.185 A  
HETATM   32  S   UNL     1     -10.613  16.517  69.421  1.00  0.00    -0.321 SA 
HETATM   33  N   UNL     1      -9.512  16.325  67.164  1.00  0.00    -0.221 NA 
HETATM   34  N   UNL     1      -9.914  15.049  69.105  1.00  0.00    -0.235 NA 
HETATM   35  C   UNL     1     -10.173  17.189  67.900  1.00  0.00    -0.330 A  
BRANCH  35  36
HETATM   36  N   UNL     1     -10.477  18.467  67.564  1.00  0.00    -0.403 NA 
HETATM   37  H   UNL     1     -11.428  18.754  67.336  1.00  0.00     0.000 HD 
HETATM   38  P   UNL     1      -9.235  19.514  67.547  1.00  0.00    -0.339 P  
HETATM   39  O   UNL     1      -9.982  20.926  67.697  1.00  0.00    -0.332 OA 
HETATM   40  O   UNL     1      -8.502  19.438  68.967  1.00  0.00    -0.345 OA 
HETATM   41  O   UNL     1      -8.289  19.509  66.392  1.00  0.00    -0.317 OA 
ENDBRANCH  35  36
ENDBRANCH  30  31
BRANCH  30  42
HETATM   42  N   UNL     1      -7.432  13.831  67.582  1.00  0.00    -0.165 NA 
HETATM   43  H   UNL     1      -6.690  14.233  67.009  1.00  0.00     0.000 HD 
BRANCH  42  44
HETATM   44  O   UNL     1      -7.186  13.105  68.757  1.00  0.00    -0.102 OA 
BRANCH  44  45
HETATM   45  C   UNL     1      -6.021  12.301  68.554  1.00  0.00    -0.054 C  
HETATM   46  C   UNL     1      -5.547  12.469  67.122  1.00  0.00     0.002 C  
ENDBRANCH  44  45
ENDBRANCH  42  44
ENDBRANCH  30  42
ENDBRANCH  28  30
ENDBRANCH   6  26
TORSDOF 10
ENDMDL
MODEL       81
REMARK 921   NORMALIZED FREE ENERGY PREDICTED BY IDOCK:   -1.59 KCAL/MOL
REMARK 922        TOTAL FREE ENERGY PREDICTED BY IDOCK:   -4.33 KCAL/MOL
REMARK 923 INTER-LIGAND FREE ENERGY PREDICTED BY IDOCK:   -3.10 KCAL/MOL
REMARK 924 INTRA-LIGAND FREE ENERGY PREDICTED BY IDOCK:   -1.23 KCAL/MOL
REMARK 927      BINDING AFFINITY PREDICTED BY RF-SCORE:    0.00 PKD
ROOT
HETATM    1  C   UNL     1     -12.648  14.398  69.286  1.00  0.00     0.136 C  
HETATM    2  S   UNL     1     -11.959  12.751  69.034  1.00  0.00    -0.175 SA 
HETATM    3  C   UNL     1     -12.944  11.930  70.302  1.00  0.00     0.420 C  
HETATM    4  C   UNL     1     -13.347  12.725  71.538  1.00  0.00    -0.144 C  
HETATM    5  CA  UNL     1     -13.109  14.052  71.700  1.00  0.00    -0.359 C  
HETATM    6  CA  UNL     1     -11.712  15.616  68.983  1.00  0.00    -0.395 C  
HETATM    7  O   UNL     1     -11.459  16.785  71.247  1.00  0.00    -0.128 OA 
HETATM    8  C   UNL     1     -13.493  14.862  72.998  1.00  0.00    -0.393 C  
HETATM    9  N   UNL     1     -12.511  14.742  70.679  1.00  0.00    -0.324 N  
HETATM   10  C   UNL     1     -11.876  15.921  70.512  1.00  0.00    -0.350 C  
HETATM   11  O   UNL     1     -14.173  15.912  72.757  1.00  0.00    -0.523 OA 
HETATM   12  OXT UNL     1     -13.148  14.364  74.102  1.00  0.00     0.226 OA 
ENDROOT
BRANCH   4  13
HETATM   13  S   UNL     1     -13.937  11.641  72.792  1.00  0.00     2.119 SA 
BRANCH  13  14
HETATM   14  C   UNL     1     -13.332  10.072  72.327  1.00  0.00    -0.289 A  
HETATM   15  N   UNL     1     -12.125   9.605  72.569  1.00  0.00     0.302 NA 
HETATM   16  C   UNL     1     -11.978   8.370  71.959  1.00  0.00    -0.357 A  
HETATM   17  S   UNL     1     -14.409   8.961  71.565  1.00  0.00    -0.081 SA 
HETATM   18  C   UNL     1     -13.128   7.845  71.404  1.00  0.00    -0.254 A  
BRANCH  16  19
HETATM   19  C   UNL     1     -10.692   7.693  71.922  1.00  0.00    -0.259 A  
HETATM   20  C   UNL     1      -9.620   8.200  71.190  1.00  0.00    -0.196 A  
HETATM   21  C   UNL     1      -8.419   7.502  71.163  1.00  0.00    -0.117 A  
HETATM   22  C   UNL     1      -7.014   5.594  71.762  1.00  0.00    -0.076 C  
HETATM   23  N   UNL     1      -8.277   6.343  71.840  1.00  0.00    -0.109 NA 
HETATM   24  C   UNL     1     -10.513   6.508  72.633  1.00  0.00    -0.236 A  
HETATM   25  C   UNL     1      -9.295   5.850  72.584  1.00  0.00    -0.143 A  
ENDBRANCH  16  19
ENDBRANCH  13  14
ENDBRANCH   4  13
BRANCH   6  26
HETATM   26  N   UNL     1     -10.302  15.359  68.543  1.00  0.00    -0.222 N  
HETATM   27  H   UNL     1      -9.538  15.506  69.202  1.00  0.00     0.000 HD 
HETATM   28  C   UNL     1     -10.020  14.927  67.263  1.00  0.00    -0.230 C  
HETATM   29  O   UNL     1     -10.861  14.870  66.374  1.00  0.00    -0.313 OA 
BRANCH  28  30
HETATM   30  C   UNL     1      -8.575  14.503  66.977  1.00  0.00    -0.217 C  
BRANCH  30  31
HETATM   31  C   UNL     1      -8.272  13.068  66.872  1.00  0.00     0.021 A  
HETATM   32  S   UNL     1      -7.244  10.978  66.192  1.00  0.00     0.006 SA 
HETATM   33  N   UNL     1      -8.942  12.109  67.668  1.00  0.00    -0.171 NA 
HETATM   34  N   UNL     1      -7.311  12.626  66.048  1.00  0.00     1.637 NA 
HETATM   35  C   UNL     1      -8.483  10.912  67.383  1.00  0.00    -0.120 A  
BRANCH  35  36
HETATM   36  N   UNL     1      -8.881   9.742  67.942  1.00  0.00    -0.122 NA 
HETATM   37  H   UNL     1      -8.369   9.309  68.711  1.00  0.00     0.000 HD 
HETATM   38  P   UNL     1     -10.220   9.070  67.315  1.00  0.00    -0.276 P  
HETATM   39  O   UNL     1     -10.706   8.111  68.505  1.00  0.00    -0.139 OA 
HETATM   40  O   UNL     1     -11.386  10.164  67.349  1.00  0.00    -0.257 OA 
HETATM   41  O   UNL     1     -10.132   8.339  66.016  1.00  0.00    -0.050 OA 
ENDBRANCH  35  36
ENDBRANCH  30  31
BRANCH  30  42
HETATM   42  N   UNL     1      -7.568  15.319  66.820  1.00  0.00    -0.255 NA 
HETATM   43  H   UNL     1      -6.633  15.007  66.557  1.00  0.00     0.000 HD 
BRANCH  42  44
HETATM   44  O   UNL     1      -7.893  16.665  67.045  1.00  0.00    -0.163 OA 
BRANCH  44  45
HETATM   45  C   UNL     1      -6.871  17.478  66.463  1.00  0.00    -0.247 C  
HETATM   46  C   UNL     1      -7.405  18.887  66.281  1.00  0.00    -0.278 C  
ENDBRANCH  44  45
ENDBRANCH  42  44
ENDBRANCH  30  42
ENDBRANCH  28  30
ENDBRANCH   6  26
TORSDOF 10
ENDMDL
MODEL       82
REMARK 921   NORMALIZED FREE ENERGY PREDICTED BY IDOCK:   -1.38 KCAL/MOL
REMARK 922        TOTAL FREE ENERGY PREDICTED BY IDOCK:   -3.99 KCAL/MOL
REMARK 923 INTER-LIGAND FREE ENERGY PREDICTED BY IDOCK:   -5.15 KCAL/MOL
REMARK 924 INTRA-LIGAND FREE ENERGY PREDICTED BY IDOCK:    1.16 KCAL/MOL
REMARK 927      BINDING AFFINITY PREDICTED BY RF-SCORE:    0.00 PKD
ROOT
HETATM    1  C   UNL     1      -9.944  10.045  65.192  1.00  0.00    -0.280 C  
HETATM    2  S   UNL     1      -8.270  10.683  64.992  1.00  0.00    -0.009 SA 
HETATM    3  C   UNL     1      -7.496   9.095  64.632  1.00  0.00    -0.104 C  
HETATM    4  C   UNL     1      -8.075   7.841  65.277  1.00  0.00    -0.133 C  
HETATM    5  CA  UNL     1      -9.211   7.823  66.020  1.00  0.00    -0.082 C  
HETATM    6  CA  UNL     1     -10.888  10.814  66.178  1.00  0.00    -0.054 C  
HETATM    7  O   UNL     1     -11.402   9.102  68.010  1.00  0.00     0.205 OA 
HETATM    8  C   UNL     1      -9.785   6.530  66.718  1.00  0.00    -0.164 C  
HETATM    9  N   UNL     1      -9.916   8.988  66.172  1.00  0.00    -0.284 N  
HETATM   10  C   UNL     1     -10.876   9.472  66.988  1.00  0.00    -0.055 C  
HETATM   11  O   UNL     1     -11.009   6.309  66.446  1.00  0.00    -0.124 OA 
HETATM   12  OXT UNL     1      -8.976   5.845  67.399  1.00  0.00    -0.111 OA 
ENDROOT
BRANCH   4  13
HETATM   13  S   UNL     1      -6.948   6.500  65.116  1.00  0.00    -0.053 SA 
BRANCH  13  14
HETATM   14  C   UNL     1      -6.347   6.244  66.734  1.00  0.00    -0.041 A  
HETATM   15  N   UNL     1      -6.665   6.950  67.798  1.00  0.00    -0.065 NA 
HETATM   16  C   UNL     1      -5.913   6.520  68.879  1.00  0.00    -0.022 A  
HETATM   17  S   UNL     1      -5.315   4.894  67.030  1.00  0.00    -0.013 SA 
HETATM   18  C   UNL     1      -5.156   5.387  68.657  1.00  0.00     0.000 A  
BRANCH  16  19
HETATM   19  C   UNL     1      -5.937   7.228  70.148  1.00  0.00    -0.024 A  
HETATM   20  C   UNL     1      -6.587   6.706  71.265  1.00  0.00    -0.050 A  
HETATM   21  C   UNL     1      -6.606   7.433  72.448  1.00  0.00    -0.055 A  
HETATM   22  C   UNL     1      -6.071   9.414  73.776  1.00  0.00     0.319 C  
HETATM   23  N   UNL     1      -6.000   8.637  72.530  1.00  0.00    -0.077 NA 
HETATM   24  C   UNL     1      -5.297   8.461  70.265  1.00  0.00    -0.022 A  
HETATM   25  C   UNL     1      -5.335   9.148  71.468  1.00  0.00    -0.050 A  
ENDBRANCH  16  19
ENDBRANCH  13  14
ENDBRANCH   4  13
BRANCH   6  26
HETATM   26  N   UNL     1     -10.351  11.999  66.923  1.00  0.00    -0.211 N  
HETATM   27  H   UNL     1     -10.417  12.023  67.940  1.00  0.00     0.000 HD 
HETATM   28  C   UNL     1      -9.768  13.058  66.257  1.00  0.00    -0.263 C  
HETATM   29  O   UNL     1      -9.783  13.174  65.037  1.00  0.00    -0.080 OA 
BRANCH  28  30
HETATM   30  C   UNL     1      -9.075  14.121  67.117  1.00  0.00    -0.232 C  
BRANCH  30  31
HETATM   31  C   UNL     1      -9.877  15.241  67.632  1.00  0.00    -0.217 A  
HETATM   32  S   UNL     1     -10.965  17.403  67.806  1.00  0.00    -0.004 SA 
HETATM   33  N   UNL     1     -10.587  15.144  68.853  1.00  0.00    -0.233 NA 
HETATM   34  N   UNL     1      -9.998  16.379  66.934  1.00  0.00    -0.262 NA 
HETATM   35  C   UNL     1     -11.219  16.273  69.077  1.00  0.00    -0.326 A  
BRANCH  35  36
HETATM   36  N   UNL     1     -12.005  16.558  70.145  1.00  0.00    -0.153 NA 
HETATM   37  H   UNL     1     -12.557  17.413  70.197  1.00  0.00     0.000 HD 
HETATM   38  P   UNL     1     -12.014  15.455  71.338  1.00  0.00    -0.480 P  
HETATM   39  O   UNL     1     -13.391  15.784  72.092  1.00  0.00    -0.458 OA 
HETATM   40  O   UNL     1     -12.383  14.036  70.699  1.00  0.00    -0.330 OA 
HETATM   41  O   UNL     1     -10.864  15.396  72.288  1.00  0.00    -0.033 OA 
ENDBRANCH  35  36
ENDBRANCH  30  31
BRANCH  30  42
HETATM   42  N   UNL     1      -7.808  14.124  67.435  1.00  0.00    -0.226 NA 
HETATM   43  H   UNL     1      -7.089  14.563  66.860  1.00  0.00     0.000 HD 
BRANCH  42  44
HETATM   44  O   UNL     1      -7.530  13.467  68.642  1.00  0.00    -0.114 OA 
BRANCH  44  45
HETATM   45  C   UNL     1      -6.301  12.752  68.493  1.00  0.00    -0.075 C  
HETATM   46  C   UNL     1      -5.627  12.638  69.848  1.00  0.00    -0.111 C  
ENDBRANCH  44  45
ENDBRANCH  42  44
ENDBRANCH  30  42
ENDBRANCH  28  30
ENDBRANCH   6  26
TORSDOF 10
ENDMDL
MODEL       83
REMARK 921   NORMALIZED FREE ENERGY PREDICTED BY IDOCK:   -1.36 KCAL/MOL
REMARK 922        TOTAL FREE ENERGY PREDICTED BY IDOCK:   -3.96 KCAL/MOL
REMARK 923 INTER-LIGAND FREE ENERGY PREDICTED BY IDOCK:   -3.08 KCAL/MOL
REMARK 924 INTRA-LIGAND FREE ENERGY PREDICTED BY IDOCK:   -0.88 KCAL/MOL
REMARK 927      BINDING AFFINITY PREDICTED BY RF-SCORE:    0.00 PKD
ROOT
HETATM    1  C   UNL     1      -8.938  14.182  65.943  1.00  0.00     0.492 C  
HETATM    2  S   UNL     1      -8.738  13.290  67.497  1.00  0.00    -0.215 SA 
HETATM    3  C   UNL     1      -9.073  11.650  66.827  1.00  0.00    -0.186 C  
HETATM    4  C   UNL     1     -10.045  11.527  65.658  1.00  0.00    -0.237 C  
HETATM    5  CA  UNL     1     -10.594  12.586  65.010  1.00  0.00    -0.300 C  
HETATM    6  CA  UNL     1      -9.453  15.659  66.029  1.00  0.00    -0.355 C  
HETATM    7  O   UNL     1     -11.696  15.609  64.796  1.00  0.00    -0.254 OA 
HETATM    8  C   UNL     1     -11.629  12.453  63.828  1.00  0.00    -0.473 C  
HETATM    9  N   UNL     1     -10.226  13.850  65.388  1.00  0.00    -0.335 N  
HETATM   10  C   UNL     1     -10.684  15.110  65.229  1.00  0.00    -0.404 C  
HETATM   11  O   UNL     1     -11.300  13.113  62.790  1.00  0.00     0.572 OA 
HETATM   12  OXT UNL     1     -12.608  11.681  64.013  1.00  0.00    -0.216 OA 
ENDROOT
BRANCH   4  13
HETATM   13  S   UNL     1     -10.521   9.847  65.439  1.00  0.00     0.520 SA 
BRANCH  13  14
HETATM   14  C   UNL     1      -9.029   8.953  65.570  1.00  0.00    -0.197 A  
HETATM   15  N   UNL     1      -8.876   7.785  66.157  1.00  0.00    -0.157 NA 
HETATM   16  C   UNL     1      -7.534   7.439  66.153  1.00  0.00    -0.083 A  
HETATM   17  S   UNL     1      -7.621   9.572  64.789  1.00  0.00    -0.118 SA 
HETATM   18  C   UNL     1      -6.712   8.271  65.418  1.00  0.00    -0.052 A  
BRANCH  16  19
HETATM   19  C   UNL     1      -7.050   6.276  66.878  1.00  0.00    -0.073 A  
HETATM   20  C   UNL     1      -7.903   5.235  67.244  1.00  0.00    -0.100 A  
HETATM   21  C   UNL     1      -7.399   4.158  67.960  1.00  0.00    -0.064 A  
HETATM   22  C   UNL     1      -5.588   2.978  69.101  1.00  0.00    -0.018 C  
HETATM   23  N   UNL     1      -6.095   4.103  68.303  1.00  0.00    -0.030 NA 
HETATM   24  C   UNL     1      -5.703   6.185  67.220  1.00  0.00    -0.016 A  
HETATM   25  C   UNL     1      -5.242   5.086  67.928  1.00  0.00    -0.007 A  
ENDBRANCH  16  19
ENDBRANCH  13  14
ENDBRANCH   4  13
BRANCH   6  26
HETATM   26  N   UNL     1      -9.786  16.235  67.372  1.00  0.00    -0.232 N  
HETATM   27  H   UNL     1      -9.645  15.669  68.209  1.00  0.00     0.000 HD 
HETATM   28  C   UNL     1     -10.279  17.518  67.497  1.00  0.00    -0.340 C  
HETATM   29  O   UNL     1     -10.613  18.204  66.539  1.00  0.00    -0.351 OA 
BRANCH  28  30
HETATM   30  C   UNL     1     -10.397  18.080  68.919  1.00  0.00    -0.234 C  
BRANCH  30  31
HETATM   31  C   UNL     1     -11.024  17.246  69.954  1.00  0.00     0.620 A  
HETATM   32  S   UNL     1     -11.748  16.424  72.120  1.00  0.00    -0.177 SA 
HETATM   33  N   UNL     1     -11.788  16.101  69.623  1.00  0.00    -0.218 NA 
HETATM   34  N   UNL     1     -10.928  17.572  71.252  1.00  0.00     1.431 NA 
HETATM   35  C   UNL     1     -12.234  15.544  70.725  1.00  0.00    -0.403 A  
BRANCH  35  36
HETATM   36  N   UNL     1     -13.004  14.431  70.810  1.00  0.00    -0.350 NA 
HETATM   37  H   UNL     1     -13.404  13.987  69.983  1.00  0.00     0.000 HD 
HETATM   38  P   UNL     1     -13.252  13.847  72.305  1.00  0.00    -0.495 P  
HETATM   39  O   UNL     1     -13.652  12.322  72.010  1.00  0.00    -0.400 OA 
HETATM   40  O   UNL     1     -11.825  13.628  72.995  1.00  0.00     1.183 OA 
HETATM   41  O   UNL     1     -14.244  14.517  73.197  1.00  0.00    -0.030 OA 
ENDBRANCH  35  36
ENDBRANCH  30  31
BRANCH  30  42
HETATM   42  N   UNL     1      -9.986  19.260  69.298  1.00  0.00    -0.496 NA 
HETATM   43  H   UNL     1     -10.621  20.016  69.555  1.00  0.00     0.000 HD 
BRANCH  42  44
HETATM   44  O   UNL     1      -8.590  19.390  69.321  1.00  0.00    -0.228 OA 
BRANCH  44  45
HETATM   45  C   UNL     1      -8.216  20.401  68.380  1.00  0.00     0.231 C  
HETATM   46  C   UNL     1      -6.992  19.935  67.615  1.00  0.00    -0.282 C  
ENDBRANCH  44  45
ENDBRANCH  42  44
ENDBRANCH  30  42
ENDBRANCH  28  30
ENDBRANCH   6  26
TORSDOF 10
ENDMDL
MODEL       84
REMARK 921   NORMALIZED FREE ENERGY PREDICTED BY IDOCK:   -1.19 KCAL/MOL
REMARK 922        TOTAL FREE ENERGY PREDICTED BY IDOCK:   -3.70 KCAL/MOL
REMARK 923 INTER-LIGAND FREE ENERGY PREDICTED BY IDOCK:   -4.69 KCAL/MOL
REMARK 924 INTRA-LIGAND FREE ENERGY PREDICTED BY IDOCK:    0.99 KCAL/MOL
REMARK 927      BINDING AFFINITY PREDICTED BY RF-SCORE:    0.00 PKD
ROOT
HETATM    1  C   UNL     1     -12.702  14.232  69.502  1.00  0.00     0.194 C  
HETATM    2  S   UNL     1     -11.583  13.542  68.268  1.00  0.00    -0.368 SA 
HETATM    3  C   UNL     1     -12.120  11.831  68.450  1.00  0.00    -0.029 C  
HETATM    4  C   UNL     1     -12.598  11.360  69.820  1.00  0.00     0.010 C  
HETATM    5  CA  UNL     1     -12.754  12.177  70.893  1.00  0.00    -0.189 C  
HETATM    6  CA  UNL     1     -12.219  15.510  70.268  1.00  0.00    -0.400 C  
HETATM    7  O   UNL     1     -12.069  14.752  72.709  1.00  0.00    -0.271 OA 
HETATM    8  C   UNL     1     -13.211  11.679  72.318  1.00  0.00    -0.015 C  
HETATM    9  N   UNL     1     -12.514  13.517  70.739  1.00  0.00    -0.362 N  
HETATM   10  C   UNL     1     -12.288  14.585  71.533  1.00  0.00    -0.361 C  
HETATM   11  O   UNL     1     -14.198  12.330  72.789  1.00  0.00     0.208 OA 
HETATM   12  OXT UNL     1     -12.606  10.681  72.793  1.00  0.00     0.875 OA 
ENDROOT
BRANCH   4  13
HETATM   13  S   UNL     1     -12.684   9.604  69.862  1.00  0.00     1.085 SA 
BRANCH  13  14
HETATM   14  C   UNL     1     -11.035   9.084  69.627  1.00  0.00    -0.136 A  
HETATM   15  N   UNL     1     -10.559   8.482  68.557  1.00  0.00    -0.160 NA 
HETATM   16  C   UNL     1      -9.237   8.130  68.777  1.00  0.00    -0.144 A  
HETATM   17  S   UNL     1      -9.867   9.458  70.840  1.00  0.00    -0.219 SA 
HETATM   18  C   UNL     1      -8.683   8.615  69.945  1.00  0.00    -0.133 A  
BRANCH  16  19
HETATM   19  C   UNL     1      -8.506   7.308  67.827  1.00  0.00    -0.121 A  
HETATM   20  C   UNL     1      -8.415   7.652  66.479  1.00  0.00    -0.133 A  
HETATM   21  C   UNL     1      -7.728   6.820  65.605  1.00  0.00    -0.102 A  
HETATM   22  C   UNL     1      -6.462   4.792  65.097  1.00  0.00    -0.036 C  
HETATM   23  N   UNL     1      -7.145   5.685  66.044  1.00  0.00    -0.066 NA 
HETATM   24  C   UNL     1      -7.873   6.144  68.261  1.00  0.00    -0.104 A  
HETATM   25  C   UNL     1      -7.192   5.348  67.355  1.00  0.00    -0.075 A  
ENDBRANCH  16  19
ENDBRANCH  13  14
ENDBRANCH   4  13
BRANCH   6  26
HETATM   26  N   UNL     1     -10.858  16.064  69.972  1.00  0.00    -0.335 N  
HETATM   27  H   UNL     1     -10.161  16.101  70.715  1.00  0.00     0.000 HD 
HETATM   28  C   UNL     1     -10.533  16.525  68.712  1.00  0.00    -0.309 C  
HETATM   29  O   UNL     1     -11.354  16.651  67.811  1.00  0.00    -0.144 OA 
BRANCH  28  30
HETATM   30  C   UNL     1      -9.063  16.883  68.463  1.00  0.00    -0.257 C  
BRANCH  30  31
HETATM   31  C   UNL     1      -8.082  15.793  68.359  1.00  0.00    -0.143 A  
HETATM   32  S   UNL     1      -6.093  14.447  68.705  1.00  0.00    -0.091 SA 
HETATM   33  N   UNL     1      -8.323  14.654  67.553  1.00  0.00    -0.176 NA 
HETATM   34  N   UNL     1      -6.942  15.823  69.064  1.00  0.00    -0.139 NA 
HETATM   35  C   UNL     1      -7.298  13.837  67.640  1.00  0.00    -0.172 A  
BRANCH  35  36
HETATM   36  N   UNL     1      -7.164  12.643  67.013  1.00  0.00    -0.371 NA 
HETATM   37  H   UNL     1      -6.252  12.266  66.757  1.00  0.00     0.000 HD 
HETATM   38  P   UNL     1      -8.544  11.847  66.692  1.00  0.00    -0.068 P  
HETATM   39  O   UNL     1      -8.031  10.337  66.519  1.00  0.00    -0.113 OA 
HETATM   40  O   UNL     1      -9.363  11.704  68.058  1.00  0.00    -0.165 OA 
HETATM   41  O   UNL     1      -9.387  12.280  65.539  1.00  0.00    -0.097 OA 
ENDBRANCH  35  36
ENDBRANCH  30  31
BRANCH  30  42
HETATM   42  N   UNL     1      -8.594  18.095  68.338  1.00  0.00    -0.294 NA 
HETATM   43  H   UNL     1      -9.190  18.921  68.277  1.00  0.00     0.000 HD 
BRANCH  42  44
HETATM   44  O   UNL     1      -7.194  18.155  68.297  1.00  0.00    -0.236 OA 
BRANCH  44  45
HETATM   45  C   UNL     1      -6.791  19.495  68.595  1.00  0.00    -0.308 C  
HETATM   46  C   UNL     1      -5.425  19.465  69.255  1.00  0.00    -0.222 C  
ENDBRANCH  44  45
ENDBRANCH  42  44
ENDBRANCH  30  42
ENDBRANCH  28  30
ENDBRANCH   6  26
TORSDOF 10
ENDMDL
MODEL       85
REMARK 921   NORMALIZED FREE ENERGY PREDICTED BY IDOCK:   -1.02 KCAL/MOL
REMARK 922        TOTAL FREE ENERGY PREDICTED BY IDOCK:   -3.42 KCAL/MOL
REMARK 923 INTER-LIGAND FREE ENERGY PREDICTED BY IDOCK:   -3.47 KCAL/MOL
REMARK 924 INTRA-LIGAND FREE ENERGY PREDICTED BY IDOCK:    0.05 KCAL/MOL
REMARK 927      BINDING AFFINITY PREDICTED BY RF-SCORE:    0.00 PKD
ROOT
HETATM    1  C   UNL     1     -12.936  14.593  69.149  1.00  0.00     1.002 C  
HETATM    2  S   UNL     1     -12.410  12.979  68.542  1.00  0.00     0.417 SA 
HETATM    3  C   UNL     1     -13.158  12.016  69.870  1.00  0.00     1.114 C  
HETATM    4  C   UNL     1     -13.251  12.640  71.258  1.00  0.00    -0.033 C  
HETATM    5  CA  UNL     1     -12.908  13.923  71.539  1.00  0.00    -0.361 C  
HETATM    6  CA  UNL     1     -12.014  15.815  68.818  1.00  0.00    -0.210 C  
HETATM    7  O   UNL     1     -11.232  16.644  71.110  1.00  0.00    -0.154 OA 
HETATM    8  C   UNL     1     -12.968  14.553  72.984  1.00  0.00    -0.496 C  
HETATM    9  N   UNL     1     -12.494  14.733  70.514  1.00  0.00    -0.333 N  
HETATM   10  C   UNL     1     -11.840  15.905  70.373  1.00  0.00    -0.338 C  
HETATM   11  O   UNL     1     -13.621  15.645  73.034  1.00  0.00    -0.536 OA 
HETATM   12  OXT UNL     1     -12.432  13.894  73.914  1.00  0.00     0.374 OA 
ENDROOT
BRANCH   4  13
HETATM   13  S   UNL     1     -13.631  11.407  72.454  1.00  0.00     0.773 SA 
BRANCH  13  14
HETATM   14  C   UNL     1     -12.538  10.097  72.088  1.00  0.00    -0.138 A  
HETATM   15  N   UNL     1     -12.515   8.921  72.679  1.00  0.00    -0.275 NA 
HETATM   16  C   UNL     1     -11.447   8.183  72.196  1.00  0.00    -0.350 A  
HETATM   17  S   UNL     1     -11.435  10.280  70.775  1.00  0.00    -0.329 SA 
HETATM   18  C   UNL     1     -10.775   8.746  71.129  1.00  0.00    -0.248 A  
BRANCH  16  19
HETATM   19  C   UNL     1     -11.080   6.907  72.787  1.00  0.00    -0.304 A  
HETATM   20  C   UNL     1     -10.481   6.827  74.043  1.00  0.00    -0.302 A  
HETATM   21  C   UNL     1     -10.124   5.587  74.553  1.00  0.00    -0.274 A  
HETATM   22  C   UNL     1      -9.925   3.156  74.386  1.00  0.00    -0.130 C  
HETATM   23  N   UNL     1     -10.353   4.457  73.851  1.00  0.00    -0.187 NA 
HETATM   24  C   UNL     1     -11.330   5.725  72.092  1.00  0.00    -0.317 A  
HETATM   25  C   UNL     1     -10.964   4.508  72.644  1.00  0.00    -0.066 A  
ENDBRANCH  16  19
ENDBRANCH  13  14
ENDBRANCH   4  13
BRANCH   6  26
HETATM   26  N   UNL     1     -10.742  15.581  68.059  1.00  0.00    -0.274 N  
HETATM   27  H   UNL     1      -9.847  15.699  68.533  1.00  0.00     0.000 HD 
HETATM   28  C   UNL     1     -10.761  15.211  66.730  1.00  0.00    -0.311 C  
HETATM   29  O   UNL     1     -11.782  15.193  66.053  1.00  0.00    -0.177 OA 
BRANCH  28  30
HETATM   30  C   UNL     1      -9.422  14.804  66.104  1.00  0.00    -0.292 C  
BRANCH  30  31
HETATM   31  C   UNL     1      -9.314  13.479  65.475  1.00  0.00     0.359 A  
HETATM   32  S   UNL     1      -9.469  11.685  63.848  1.00  0.00    -0.013 SA 
HETATM   33  N   UNL     1      -8.702  12.390  66.141  1.00  0.00     0.096 NA 
HETATM   34  N   UNL     1      -9.754  13.273  64.225  1.00  0.00     0.069 NA 
HETATM   35  C   UNL     1      -8.734  11.333  65.361  1.00  0.00     0.010 A  
BRANCH  35  36
HETATM   36  N   UNL     1      -8.242  10.103  65.652  1.00  0.00    -0.144 NA 
HETATM   37  H   UNL     1      -8.836   9.274  65.671  1.00  0.00     0.000 HD 
HETATM   38  P   UNL     1      -6.651  10.028  65.970  1.00  0.00    -0.109 P  
HETATM   39  O   UNL     1      -6.324   8.482  65.691  1.00  0.00    -0.054 OA 
HETATM   40  O   UNL     1      -5.869  10.698  64.746  1.00  0.00    -0.122 OA 
HETATM   41  O   UNL     1      -6.149  10.468  67.305  1.00  0.00    -0.052 OA 
ENDBRANCH  35  36
ENDBRANCH  30  31
BRANCH  30  42
HETATM   42  N   UNL     1      -8.345  15.541  66.085  1.00  0.00    -0.296 NA 
HETATM   43  H   UNL     1      -7.472  15.244  65.648  1.00  0.00     0.000 HD 
BRANCH  42  44
HETATM   44  O   UNL     1      -8.500  16.782  66.720  1.00  0.00    -0.195 OA 
BRANCH  44  45
HETATM   45  C   UNL     1      -7.928  17.791  65.883  1.00  0.00    -0.028 C  
HETATM   46  C   UNL     1      -8.612  19.115  66.168  1.00  0.00    -0.233 C  
ENDBRANCH  44  45
ENDBRANCH  42  44
ENDBRANCH  30  42
ENDBRANCH  28  30
ENDBRANCH   6  26
TORSDOF 10
ENDMDL
MODEL       86
REMARK 921   NORMALIZED FREE ENERGY PREDICTED BY IDOCK:   -0.63 KCAL/MOL
REMARK 922        TOTAL FREE ENERGY PREDICTED BY IDOCK:   -2.80 KCAL/MOL
REMARK 923 INTER-LIGAND FREE ENERGY PREDICTED BY IDOCK:   -4.58 KCAL/MOL
REMARK 924 INTRA-LIGAND FREE ENERGY PREDICTED BY IDOCK:    1.78 KCAL/MOL
REMARK 927      BINDING AFFINITY PREDICTED BY RF-SCORE:    0.00 PKD
ROOT
HETATM    1  C   UNL     1      -9.962  14.837  64.714  1.00  0.00     0.135 C  
HETATM    2  S   UNL     1      -8.966  14.096  66.021  1.00  0.00     0.525 SA 
HETATM    3  C   UNL     1      -9.073  12.402  65.413  1.00  0.00     0.440 C  
HETATM    4  C   UNL     1     -10.338  11.971  64.679  1.00  0.00    -0.287 C  
HETATM    5  CA  UNL     1     -11.352  12.812  64.351  1.00  0.00    -0.347 C  
HETATM    6  CA  UNL     1     -10.784  16.118  65.082  1.00  0.00    -0.371 C  
HETATM    7  O   UNL     1     -13.223  15.407  64.761  1.00  0.00     0.425 OA 
HETATM    8  C   UNL     1     -12.676  12.354  63.627  1.00  0.00    -0.354 C  
HETATM    9  N   UNL     1     -11.224  14.143  64.651  1.00  0.00    -0.373 N  
HETATM   10  C   UNL     1     -12.029  15.222  64.757  1.00  0.00    -0.184 C  
HETATM   11  O   UNL     1     -12.947  13.038  62.588  1.00  0.00     0.243 OA 
HETATM   12  OXT UNL     1     -13.269  11.352  64.108  1.00  0.00     0.191 OA 
ENDROOT
BRANCH   4  13
HETATM   13  S   UNL     1     -10.392  10.218  64.539  1.00  0.00     0.353 SA 
BRANCH  13  14
HETATM   14  C   UNL     1      -9.307   9.651  65.783  1.00  0.00    -0.228 A  
HETATM   15  N   UNL     1      -9.012   8.393  66.037  1.00  0.00    -0.176 NA 
HETATM   16  C   UNL     1      -8.201   8.328  67.159  1.00  0.00    -0.119 A  
HETATM   17  S   UNL     1      -8.449  10.812  66.726  1.00  0.00    -0.139 SA 
HETATM   18  C   UNL     1      -7.761   9.545  67.641  1.00  0.00    -0.095 A  
BRANCH  16  19
HETATM   19  C   UNL     1      -7.852   7.055  67.767  1.00  0.00    -0.113 A  
HETATM   20  C   UNL     1      -6.544   6.763  68.154  1.00  0.00    -0.058 A  
HETATM   21  C   UNL     1      -6.255   5.522  68.705  1.00  0.00    -0.033 A  
HETATM   22  C   UNL     1      -6.890   3.271  69.416  1.00  0.00    -0.041 C  
HETATM   23  N   UNL     1      -7.223   4.597  68.874  1.00  0.00    -0.052 NA 
HETATM   24  C   UNL     1      -8.839   6.093  67.976  1.00  0.00    -0.111 A  
HETATM   25  C   UNL     1      -8.505   4.871  68.537  1.00  0.00    -0.094 A  
ENDBRANCH  16  19
ENDBRANCH  13  14
ENDBRANCH   4  13
BRANCH   6  26
HETATM   26  N   UNL     1     -10.735  16.634  66.489  1.00  0.00    -0.196 N  
HETATM   27  H   UNL     1     -11.511  16.440  67.120  1.00  0.00     0.000 HD 
HETATM   28  C   UNL     1      -9.658  17.367  66.944  1.00  0.00    -0.277 C  
HETATM   29  O   UNL     1      -8.761  17.767  66.211  1.00  0.00    -0.387 OA 
BRANCH  28  30
HETATM   30  C   UNL     1      -9.613  17.674  68.445  1.00  0.00    -0.310 C  
BRANCH  30  31
HETATM   31  C   UNL     1     -10.392  16.826  69.359  1.00  0.00    -0.276 A  
HETATM   32  S   UNL     1     -11.775  16.117  71.223  1.00  0.00    -0.346 SA 
HETATM   33  N   UNL     1     -10.576  15.444  69.113  1.00  0.00    -0.236 NA 
HETATM   34  N   UNL     1     -10.995  17.348  70.437  1.00  0.00     0.789 NA 
HETATM   35  C   UNL     1     -11.308  14.927  70.073  1.00  0.00    -0.274 A  
BRANCH  35  36
HETATM   36  N   UNL     1     -11.696  13.632  70.181  1.00  0.00    -0.469 NA 
HETATM   37  H   UNL     1     -12.081  13.253  71.046  1.00  0.00     0.000 HD 
HETATM   38  P   UNL     1     -11.512  12.719  68.850  1.00  0.00    -0.337 P  
HETATM   39  O   UNL     1     -12.546  11.521  69.117  1.00  0.00    -0.185 OA 
HETATM   40  O   UNL     1     -12.252  13.455  67.638  1.00  0.00    -0.302 OA 
HETATM   41  O   UNL     1     -10.155  12.210  68.493  1.00  0.00    -0.209 OA 
ENDBRANCH  35  36
ENDBRANCH  30  31
BRANCH  30  42
HETATM   42  N   UNL     1      -8.934  18.645  68.996  1.00  0.00    -0.158 NA 
HETATM   43  H   UNL     1      -9.368  19.386  69.546  1.00  0.00     0.000 HD 
BRANCH  42  44
HETATM   44  O   UNL     1      -7.554  18.571  68.760  1.00  0.00    -0.298 OA 
BRANCH  44  45
HETATM   45  C   UNL     1      -6.904  19.546  69.579  1.00  0.00    -0.296 C  
HETATM   46  C   UNL     1      -6.712  20.819  68.776  1.00  0.00     0.045 C  
ENDBRANCH  44  45
ENDBRANCH  42  44
ENDBRANCH  30  42
ENDBRANCH  28  30
ENDBRANCH   6  26
TORSDOF 10
ENDMDL
MODEL       87
REMARK 921   NORMALIZED FREE ENERGY PREDICTED BY IDOCK:   -0.54 KCAL/MOL
REMARK 922        TOTAL FREE ENERGY PREDICTED BY IDOCK:   -2.66 KCAL/MOL
REMARK 923 INTER-LIGAND FREE ENERGY PREDICTED BY IDOCK:   -3.43 KCAL/MOL
REMARK 924 INTRA-LIGAND FREE ENERGY PREDICTED BY IDOCK:    0.78 KCAL/MOL
REMARK 927      BINDING AFFINITY PREDICTED BY RF-SCORE:    0.00 PKD
ROOT
HETATM    1  C   UNL     1     -11.147  16.603  66.507  1.00  0.00     0.263 C  
HETATM    2  S   UNL     1     -11.558  15.057  67.338  1.00  0.00    -0.227 SA 
HETATM    3  C   UNL     1     -11.845  15.778  68.965  1.00  0.00    -0.355 C  
HETATM    4  C   UNL     1     -11.039  17.009  69.367  1.00  0.00     0.173 C  
HETATM    5  CA  UNL     1     -10.195  17.671  68.536  1.00  0.00    -0.386 C  
HETATM    6  CA  UNL     1     -10.152  16.522  65.301  1.00  0.00     0.090 C  
HETATM    7  O   UNL     1      -8.133  17.898  66.067  1.00  0.00    -0.486 OA 
HETATM    8  C   UNL     1      -9.334  18.920  68.968  1.00  0.00    -0.217 C  
HETATM    9  N   UNL     1     -10.084  17.246  67.238  1.00  0.00    -0.291 N  
HETATM   10  C   UNL     1      -9.229  17.410  66.206  1.00  0.00    -0.208 C  
HETATM   11  O   UNL     1      -9.471  19.921  68.194  1.00  0.00    -0.346 OA 
HETATM   12  OXT UNL     1      -8.673  18.813  70.035  1.00  0.00     1.087 OA 
ENDROOT
BRANCH   4  13
HETATM   13  S   UNL     1     -11.183  17.290  71.098  1.00  0.00     1.917 SA 
BRANCH  13  14
HETATM   14  C   UNL     1     -11.869  15.811  71.721  1.00  0.00    -0.467 A  
HETATM   15  N   UNL     1     -11.621  14.597  71.278  1.00  0.00    -0.263 NA 
HETATM   16  C   UNL     1     -12.426  13.689  71.947  1.00  0.00    -0.052 A  
HETATM   17  S   UNL     1     -12.894  15.892  73.106  1.00  0.00    -0.572 SA 
HETATM   18  C   UNL     1     -13.151  14.208  73.001  1.00  0.00    -0.353 A  
BRANCH  16  19
HETATM   19  C   UNL     1     -12.483  12.292  71.550  1.00  0.00    -0.132 A  
HETATM   20  C   UNL     1     -13.299  11.375  72.211  1.00  0.00    -0.080 A  
HETATM   21  C   UNL     1     -13.299  10.046  71.812  1.00  0.00    -0.393 A  
HETATM   22  C   UNL     1     -12.499   8.210  70.411  1.00  0.00     0.575 C  
HETATM   23  N   UNL     1     -12.522   9.630  70.790  1.00  0.00    -0.221 NA 
HETATM   24  C   UNL     1     -11.709  11.844  70.481  1.00  0.00    -0.103 A  
HETATM   25  C   UNL     1     -11.747  10.509  70.112  1.00  0.00    -0.326 A  
ENDBRANCH  16  19
ENDBRANCH  13  14
ENDBRANCH   4  13
BRANCH   6  26
HETATM   26  N   UNL     1      -9.569  15.193  64.928  1.00  0.00    -0.074 N  
HETATM   27  H   UNL     1      -8.562  15.047  65.007  1.00  0.00     0.000 HD 
HETATM   28  C   UNL     1     -10.369  14.162  64.478  1.00  0.00    -0.101 C  
HETATM   29  O   UNL     1     -11.558  14.302  64.215  1.00  0.00    -0.357 OA 
BRANCH  28  30
HETATM   30  C   UNL     1      -9.706  12.790  64.315  1.00  0.00     0.150 C  
BRANCH  30  31
HETATM   31  C   UNL     1      -9.046  12.185  65.482  1.00  0.00     0.214 A  
HETATM   32  S   UNL     1      -8.353  11.758  67.768  1.00  0.00    -0.155 SA 
HETATM   33  N   UNL     1      -8.229  11.036  65.358  1.00  0.00    -0.014 NA 
HETATM   34  N   UNL     1      -9.237  12.680  66.713  1.00  0.00    -0.223 NA 
HETATM   35  C   UNL     1      -7.769  10.702  66.543  1.00  0.00    -0.137 A  
BRANCH  35  36
HETATM   36  N   UNL     1      -6.955   9.655  66.824  1.00  0.00    -0.084 NA 
HETATM   37  H   UNL     1      -6.163   9.742  67.461  1.00  0.00     0.000 HD 
HETATM   38  P   UNL     1      -7.317   8.252  66.088  1.00  0.00    -0.079 P  
HETATM   39  O   UNL     1      -6.593   7.178  67.035  1.00  0.00    -0.054 OA 
HETATM   40  O   UNL     1      -8.847   7.908  66.401  1.00  0.00    -0.142 OA 
HETATM   41  O   UNL     1      -6.948   8.063  64.654  1.00  0.00    -0.068 OA 
ENDBRANCH  35  36
ENDBRANCH  30  31
BRANCH  30  42
HETATM   42  N   UNL     1      -9.670  12.097  63.208  1.00  0.00    -0.632 NA 
HETATM   43  H   UNL     1      -9.014  12.290  62.451  1.00  0.00     0.000 HD 
BRANCH  42  44
HETATM   44  O   UNL     1     -10.616  11.064  63.159  1.00  0.00    -0.254 OA 
BRANCH  44  45
HETATM   45  C   UNL     1     -11.648  11.352  64.107  1.00  0.00    -0.030 C  
HETATM   46  C   UNL     1     -12.944  11.612  63.363  1.00  0.00    -0.024 C  
ENDBRANCH  44  45
ENDBRANCH  42  44
ENDBRANCH  30  42
ENDBRANCH  28  30
ENDBRANCH   6  26
TORSDOF 10
ENDMDL
MODEL       88
REMARK 921   NORMALIZED FREE ENERGY PREDICTED BY IDOCK:   -0.53 KCAL/MOL
REMARK 922        TOTAL FREE ENERGY PREDICTED BY IDOCK:   -2.65 KCAL/MOL
REMARK 923 INTER-LIGAND FREE ENERGY PREDICTED BY IDOCK:   -4.20 KCAL/MOL
REMARK 924 INTRA-LIGAND FREE ENERGY PREDICTED BY IDOCK:    1.56 KCAL/MOL
REMARK 927      BINDING AFFINITY PREDICTED BY RF-SCORE:    0.00 PKD
ROOT
HETATM    1  C   UNL     1     -10.248  10.037  67.577  1.00  0.00    -0.212 C  
HETATM    2  S   UNL     1     -10.431  11.302  68.849  1.00  0.00    -0.188 SA 
HETATM    3  C   UNL     1     -11.800  12.173  68.065  1.00  0.00    -0.285 C  
HETATM    4  C   UNL     1     -11.873  12.192  66.542  1.00  0.00    -0.246 C  
HETATM    5  CA  UNL     1     -11.034  11.498  65.731  1.00  0.00    -0.246 C  
HETATM    6  CA  UNL     1      -8.814   9.447  67.359  1.00  0.00    -0.128 C  
HETATM    7  O   UNL     1      -8.228  10.112  64.957  1.00  0.00    -0.141 OA 
HETATM    8  C   UNL     1     -11.089  11.552  64.156  1.00  0.00    -0.344 C  
HETATM    9  N   UNL     1     -10.086  10.691  66.303  1.00  0.00    -0.228 N  
HETATM   10  C   UNL     1      -8.944  10.076  65.929  1.00  0.00    -0.154 C  
HETATM   11  O   UNL     1     -11.145  10.402  63.612  1.00  0.00     0.972 OA 
HETATM   12  OXT UNL     1     -11.131  12.695  63.627  1.00  0.00    -0.429 OA 
ENDROOT
BRANCH   4  13
HETATM   13  S   UNL     1     -13.027  13.407  66.004  1.00  0.00     0.545 SA 
BRANCH  13  14
HETATM   14  C   UNL     1     -12.044  14.794  65.612  1.00  0.00    -0.114 A  
HETATM   15  N   UNL     1     -11.349  15.516  66.466  1.00  0.00    -0.108 NA 
HETATM   16  C   UNL     1     -10.782  16.593  65.805  1.00  0.00    -0.204 A  
HETATM   17  S   UNL     1     -11.858  15.236  63.956  1.00  0.00     0.222 SA 
HETATM   18  C   UNL     1     -10.918  16.580  64.431  1.00  0.00     0.293 A  
BRANCH  16  19
HETATM   19  C   UNL     1     -10.094  17.649  66.529  1.00  0.00    -0.350 A  
HETATM   20  C   UNL     1     -10.772  18.498  67.403  1.00  0.00    -0.424 A  
HETATM   21  C   UNL     1     -10.076  19.510  68.051  1.00  0.00    -0.420 A  
HETATM   22  C   UNL     1      -8.041  20.784  68.508  1.00  0.00     0.757 C  
HETATM   23  N   UNL     1      -8.752  19.679  67.849  1.00  0.00    -0.319 NA 
HETATM   24  C   UNL     1      -8.723  17.827  66.357  1.00  0.00    -0.255 A  
HETATM   25  C   UNL     1      -8.068  18.845  67.031  1.00  0.00    -0.261 A  
ENDBRANCH  16  19
ENDBRANCH  13  14
ENDBRANCH   4  13
BRANCH   6  26
HETATM   26  N   UNL     1      -7.676   9.981  68.175  1.00  0.00    -0.085 N  
HETATM   27  H   UNL     1      -6.812  10.258  67.709  1.00  0.00     0.000 HD 
HETATM   28  C   UNL     1      -7.776  10.104  69.547  1.00  0.00    -0.155 C  
HETATM   29  O   UNL     1      -8.717   9.658  70.193  1.00  0.00    -0.211 OA 
BRANCH  28  30
HETATM   30  C   UNL     1      -6.639  10.843  70.261  1.00  0.00    -0.060 C  
BRANCH  30  31
HETATM   31  C   UNL     1      -6.120  12.081  69.662  1.00  0.00    -0.129 A  
HETATM   32  S   UNL     1      -5.291  13.677  68.032  1.00  0.00    -0.096 SA 
HETATM   33  N   UNL     1      -5.938  13.257  70.429  1.00  0.00    -0.153 NA 
HETATM   34  N   UNL     1      -5.844  12.149  68.351  1.00  0.00    -0.052 NA 
HETATM   35  C   UNL     1      -5.471  14.210  69.657  1.00  0.00    -0.094 A  
BRANCH  35  36
HETATM   36  N   UNL     1      -5.174  15.479  70.033  1.00  0.00    -0.107 NA 
HETATM   37  H   UNL     1      -4.422  15.685  70.691  1.00  0.00     0.000 HD 
HETATM   38  P   UNL     1      -6.086  16.651  69.376  1.00  0.00    -0.218 P  
HETATM   39  O   UNL     1      -5.151  17.942  69.546  1.00  0.00    -0.172 OA 
HETATM   40  O   UNL     1      -6.037  16.484  67.786  1.00  0.00    -0.115 OA 
HETATM   41  O   UNL     1      -7.462  16.890  69.904  1.00  0.00     0.416 OA 
ENDBRANCH  35  36
ENDBRANCH  30  31
BRANCH  30  42
HETATM   42  N   UNL     1      -6.075  10.460  71.375  1.00  0.00    -0.311 NA 
HETATM   43  H   UNL     1      -5.302  10.963  71.811  1.00  0.00     0.000 HD 
BRANCH  42  44
HETATM   44  O   UNL     1      -6.633   9.293  71.917  1.00  0.00    -0.281 OA 
BRANCH  44  45
HETATM   45  C   UNL     1      -5.605   8.584  72.613  1.00  0.00    -0.058 C  
HETATM   46  C   UNL     1      -6.111   7.197  72.963  1.00  0.00    -0.056 C  
ENDBRANCH  44  45
ENDBRANCH  42  44
ENDBRANCH  30  42
ENDBRANCH  28  30
ENDBRANCH   6  26
TORSDOF 10
ENDMDL
MODEL       89
REMARK 921   NORMALIZED FREE ENERGY PREDICTED BY IDOCK:   -0.36 KCAL/MOL
REMARK 922        TOTAL FREE ENERGY PREDICTED BY IDOCK:   -2.38 KCAL/MOL
REMARK 923 INTER-LIGAND FREE ENERGY PREDICTED BY IDOCK:   -3.94 KCAL/MOL
REMARK 924 INTRA-LIGAND FREE ENERGY PREDICTED BY IDOCK:    1.56 KCAL/MOL
REMARK 927      BINDING AFFINITY PREDICTED BY RF-SCORE:    0.00 PKD
ROOT
HETATM    1  C   UNL     1      -7.355  10.246  63.938  1.00  0.00    -0.061 C  
HETATM    2  S   UNL     1      -8.834   9.348  63.430  1.00  0.00    -0.107 SA 
HETATM    3  C   UNL     1     -10.020  10.559  64.043  1.00  0.00    -0.297 C  
HETATM    4  C   UNL     1      -9.655  11.374  65.279  1.00  0.00    -0.228 C  
HETATM    5  CA  UNL     1      -8.442  11.329  65.889  1.00  0.00    -0.060 C  
HETATM    6  CA  UNL     1      -6.093   9.393  64.302  1.00  0.00    -0.079 C  
HETATM    7  O   UNL     1      -5.687   9.909  66.777  1.00  0.00    -0.049 OA 
HETATM    8  C   UNL     1      -8.082  12.144  67.190  1.00  0.00    -0.175 C  
HETATM    9  N   UNL     1      -7.462  10.542  65.345  1.00  0.00    -0.126 N  
HETATM   10  C   UNL     1      -6.283  10.010  65.731  1.00  0.00    -0.092 C  
HETATM   11  O   UNL     1      -7.017  12.832  67.078  1.00  0.00    -0.052 OA 
HETATM   12  OXT UNL     1      -8.897  12.074  68.149  1.00  0.00    -0.171 OA 
ENDROOT
BRANCH   4  13
HETATM   13  S   UNL     1     -11.082  12.178  65.921  1.00  0.00    -0.330 SA 
BRANCH  13  14
HETATM   14  C   UNL     1     -10.736  13.879  65.747  1.00  0.00    -0.289 A  
HETATM   15  N   UNL     1     -10.490  14.723  66.727  1.00  0.00    -0.278 NA 
HETATM   16  C   UNL     1     -10.365  16.003  66.213  1.00  0.00    -0.321 A  
HETATM   17  S   UNL     1     -10.597  14.538  64.159  1.00  0.00     1.136 SA 
HETATM   18  C   UNL     1     -10.354  16.087  64.834  1.00  0.00     0.049 A  
BRANCH  16  19
HETATM   19  C   UNL     1     -10.253  17.161  67.084  1.00  0.00    -0.316 A  
HETATM   20  C   UNL     1      -9.944  17.031  68.438  1.00  0.00    -0.289 A  
HETATM   21  C   UNL     1      -9.875  18.165  69.236  1.00  0.00    -0.036 A  
HETATM   22  C   UNL     1     -10.068  20.576  69.587  1.00  0.00     0.517 C  
HETATM   23  N   UNL     1     -10.099  19.391  68.717  1.00  0.00    -0.445 NA 
HETATM   24  C   UNL     1     -10.454  18.439  66.567  1.00  0.00    -0.411 A  
HETATM   25  C   UNL     1     -10.367  19.543  67.399  1.00  0.00    -0.450 A  
ENDBRANCH  16  19
ENDBRANCH  13  14
ENDBRANCH   4  13
BRANCH   6  26
HETATM   26  N   UNL     1      -6.186   7.898  64.250  1.00  0.00    -0.056 N  
HETATM   27  H   UNL     1      -6.666   7.454  63.467  1.00  0.00     0.000 HD 
HETATM   28  C   UNL     1      -5.634   7.112  65.241  1.00  0.00    -0.032 C  
HETATM   29  O   UNL     1      -5.174   7.569  66.280  1.00  0.00    -0.023 OA 
BRANCH  28  30
HETATM   30  C   UNL     1      -5.608   5.600  64.992  1.00  0.00    -0.017 C  
BRANCH  30  31
HETATM   31  C   UNL     1      -5.924   4.699  66.110  1.00  0.00    -0.023 A  
HETATM   32  S   UNL     1      -6.070   2.707  67.490  1.00  0.00    -0.028 SA 
HETATM   33  N   UNL     1      -6.577   5.165  67.276  1.00  0.00    -0.052 NA 
HETATM   34  N   UNL     1      -5.559   3.409  66.079  1.00  0.00    -0.017 NA 
HETATM   35  C   UNL     1      -6.734   4.165  68.114  1.00  0.00    -0.047 A  
BRANCH  35  36
HETATM   36  N   UNL     1      -7.317   4.224  69.337  1.00  0.00    -0.051 NA 
HETATM   37  H   UNL     1      -7.105   4.968  70.001  1.00  0.00     0.000 HD 
HETATM   38  P   UNL     1      -8.371   3.037  69.683  1.00  0.00    -0.061 P  
HETATM   39  O   UNL     1      -9.249   3.696  70.853  1.00  0.00    -0.104 OA 
HETATM   40  O   UNL     1      -9.463   2.988  68.515  1.00  0.00    -0.188 OA 
HETATM   41  O   UNL     1      -7.856   1.690  70.069  1.00  0.00    -0.042 OA 
ENDBRANCH  35  36
ENDBRANCH  30  31
BRANCH  30  42
HETATM   42  N   UNL     1      -5.319   5.028  63.854  1.00  0.00    -0.009 NA 
HETATM   43  H   UNL     1      -4.369   4.778  63.580  1.00  0.00     0.000 HD 
BRANCH  42  44
HETATM   44  O   UNL     1      -6.439   4.789  63.044  1.00  0.00    -0.025 OA 
BRANCH  44  45
HETATM   45  C   UNL     1      -7.562   5.463  63.619  1.00  0.00    -0.073 C  
HETATM   46  C   UNL     1      -8.762   4.533  63.593  1.00  0.00    -0.132 C  
ENDBRANCH  44  45
ENDBRANCH  42  44
ENDBRANCH  30  42
ENDBRANCH  28  30
ENDBRANCH   6  26
TORSDOF 10
ENDMDL
MODEL       90
REMARK 921   NORMALIZED FREE ENERGY PREDICTED BY IDOCK:   -0.26 KCAL/MOL
REMARK 922        TOTAL FREE ENERGY PREDICTED BY IDOCK:   -2.22 KCAL/MOL
REMARK 923 INTER-LIGAND FREE ENERGY PREDICTED BY IDOCK:   -3.87 KCAL/MOL
REMARK 924 INTRA-LIGAND FREE ENERGY PREDICTED BY IDOCK:    1.65 KCAL/MOL
REMARK 927      BINDING AFFINITY PREDICTED BY RF-SCORE:    0.00 PKD
ROOT
HETATM    1  C   UNL     1      -5.565   7.801  67.971  1.00  0.00    -0.032 C  
HETATM    2  S   UNL     1      -6.714   8.512  66.777  1.00  0.00    -0.062 SA 
HETATM    3  C   UNL     1      -7.149   9.959  67.761  1.00  0.00    -0.087 C  
HETATM    4  C   UNL     1      -7.152   9.831  69.280  1.00  0.00    -0.066 C  
HETATM    5  CA  UNL     1      -6.740   8.726  69.952  1.00  0.00    -0.045 C  
HETATM    6  CA  UNL     1      -5.423   6.241  67.983  1.00  0.00    -0.004 C  
HETATM    7  O   UNL     1      -6.243   5.560  70.311  1.00  0.00    -0.024 OA 
HETATM    8  C   UNL     1      -6.783   8.584  71.522  1.00  0.00    -0.073 C  
HETATM    9  N   UNL     1      -6.244   7.669  69.235  1.00  0.00    -0.034 N  
HETATM   10  C   UNL     1      -5.993   6.358  69.439  1.00  0.00    -0.021 C  
HETATM   11  O   UNL     1      -5.670   8.229  72.029  1.00  0.00    -0.036 OA 
HETATM   12  OXT UNL     1      -7.865   8.887  72.091  1.00  0.00    -0.351 OA 
ENDROOT
BRANCH   4  13
HETATM   13  S   UNL     1      -7.977  11.207  70.003  1.00  0.00     1.503 SA 
BRANCH  13  14
HETATM   14  C   UNL     1      -8.756  12.001  68.659  1.00  0.00    -0.012 A  
HETATM   15  N   UNL     1      -8.795  13.299  68.444  1.00  0.00    -0.160 NA 
HETATM   16  C   UNL     1      -9.588  13.560  67.339  1.00  0.00    -0.227 A  
HETATM   17  S   UNL     1      -9.467  11.031  67.423  1.00  0.00    -0.160 SA 
HETATM   18  C   UNL     1     -10.003  12.447  66.635  1.00  0.00    -0.225 A  
BRANCH  16  19
HETATM   19  C   UNL     1      -9.942  14.920  66.966  1.00  0.00    -0.240 A  
HETATM   20  C   UNL     1      -9.802  15.380  65.657  1.00  0.00    -0.387 A  
HETATM   21  C   UNL     1     -10.128  16.695  65.356  1.00  0.00    -0.018 A  
HETATM   22  C   UNL     1     -10.878  18.935  65.985  1.00  0.00    -0.144 C  
HETATM   23  N   UNL     1     -10.582  17.532  66.312  1.00  0.00    -0.258 NA 
HETATM   24  C   UNL     1     -10.438  15.795  67.930  1.00  0.00    -0.270 A  
HETATM   25  C   UNL     1     -10.758  17.097  67.582  1.00  0.00    -0.302 A  
ENDBRANCH  16  19
ENDBRANCH  13  14
ENDBRANCH   4  13
BRANCH   6  26
HETATM   26  N   UNL     1      -6.264   5.428  67.045  1.00  0.00    -0.030 N  
HETATM   27  H   UNL     1      -6.931   4.757  67.425  1.00  0.00     0.000 HD 
HETATM   28  C   UNL     1      -6.151   5.570  65.677  1.00  0.00    -0.029 C  
HETATM   29  O   UNL     1      -5.276   6.241  65.143  1.00  0.00    -0.013 OA 
BRANCH  28  30
HETATM   30  C   UNL     1      -7.189   4.843  64.816  1.00  0.00    -0.063 C  
BRANCH  30  31
HETATM   31  C   UNL     1      -8.605   4.922  65.206  1.00  0.00    -0.142 A  
HETATM   32  S   UNL     1     -11.009   4.592  65.221  1.00  0.00     0.278 SA 
HETATM   33  N   UNL     1      -9.017   5.625  66.364  1.00  0.00    -0.130 NA 
HETATM   34  N   UNL     1      -9.551   4.288  64.497  1.00  0.00    -0.160 NA 
HETATM   35  C   UNL     1     -10.322   5.536  66.483  1.00  0.00    -0.256 A  
BRANCH  35  36
HETATM   36  N   UNL     1     -11.079   6.079  67.468  1.00  0.00    -0.447 NA 
HETATM   37  H   UNL     1     -11.990   6.498  67.281  1.00  0.00     0.000 HD 
HETATM   38  P   UNL     1     -10.449   6.024  68.964  1.00  0.00    -0.315 P  
HETATM   39  O   UNL     1     -11.753   6.183  69.885  1.00  0.00    -0.339 OA 
HETATM   40  O   UNL     1     -10.069   4.505  69.287  1.00  0.00    -0.172 OA 
HETATM   41  O   UNL     1      -9.382   6.996  69.345  1.00  0.00    -0.147 OA 
ENDBRANCH  35  36
ENDBRANCH  30  31
BRANCH  30  42
HETATM   42  N   UNL     1      -6.924   4.140  63.748  1.00  0.00    -0.044 NA 
HETATM   43  H   UNL     1      -6.029   4.183  63.260  1.00  0.00     0.000 HD 
BRANCH  42  44
HETATM   44  O   UNL     1      -7.984   3.321  63.334  1.00  0.00    -0.075 OA 
BRANCH  44  45
HETATM   45  C   UNL     1      -7.448   2.249  62.555  1.00  0.00    -0.038 C  
HETATM   46  C   UNL     1      -6.352   1.561  63.348  1.00  0.00    -0.013 C  
ENDBRANCH  44  45
ENDBRANCH  42  44
ENDBRANCH  30  42
ENDBRANCH  28  30
ENDBRANCH   6  26
TORSDOF 10
ENDMDL
MODEL       91
REMARK 921   NORMALIZED FREE ENERGY PREDICTED BY IDOCK:   -0.21 KCAL/MOL
REMARK 922        TOTAL FREE ENERGY PREDICTED BY IDOCK:   -2.14 KCAL/MOL
REMARK 923 INTER-LIGAND FREE ENERGY PREDICTED BY IDOCK:   -2.59 KCAL/MOL
REMARK 924 INTRA-LIGAND FREE ENERGY PREDICTED BY IDOCK:    0.44 KCAL/MOL
REMARK 927      BINDING AFFINITY PREDICTED BY RF-SCORE:    0.00 PKD
ROOT
HETATM    1  C   UNL     1      -8.798  14.225  66.108  1.00  0.00     0.303 C  
HETATM    2  S   UNL     1      -8.731  14.098  67.906  1.00  0.00    -0.194 SA 
HETATM    3  C   UNL     1      -9.456  12.451  68.014  1.00  0.00    -0.208 C  
HETATM    4  C   UNL     1     -10.484  12.039  66.966  1.00  0.00    -0.221 C  
HETATM    5  CA  UNL     1     -10.812  12.791  65.884  1.00  0.00    -0.269 C  
HETATM    6  CA  UNL     1      -8.964  15.659  65.500  1.00  0.00     0.523 C  
HETATM    7  O   UNL     1     -11.217  15.562  64.287  1.00  0.00    -0.260 OA 
HETATM    8  C   UNL     1     -11.905  12.378  64.825  1.00  0.00    -0.382 C  
HETATM    9  N   UNL     1     -10.152  13.975  65.684  1.00  0.00    -0.324 N  
HETATM   10  C   UNL     1     -10.324  15.099  64.956  1.00  0.00    -0.344 C  
HETATM   11  O   UNL     1     -11.485  12.417  63.623  1.00  0.00    -0.414 OA 
HETATM   12  OXT UNL     1     -13.021  12.008  65.275  1.00  0.00     0.075 OA 
ENDROOT
BRANCH   4  13
HETATM   13  S   UNL     1     -11.334  10.590  67.487  1.00  0.00     0.087 SA 
BRANCH  13  14
HETATM   14  C   UNL     1     -10.114   9.637  68.293  1.00  0.00    -0.177 A  
HETATM   15  N   UNL     1      -9.347   8.727  67.730  1.00  0.00    -0.140 NA 
HETATM   16  C   UNL     1      -8.576   8.110  68.701  1.00  0.00    -0.127 A  
HETATM   17  S   UNL     1      -9.781   9.952  69.955  1.00  0.00    -0.212 SA 
HETATM   18  C   UNL     1      -8.650   8.673  69.960  1.00  0.00    -0.132 A  
BRANCH  16  19
HETATM   19  C   UNL     1      -7.753   6.952  68.391  1.00  0.00    -0.116 A  
HETATM   20  C   UNL     1      -7.617   5.891  69.285  1.00  0.00    -0.089 A  
HETATM   21  C   UNL     1      -6.798   4.820  68.956  1.00  0.00    -0.051 A  
HETATM   22  C   UNL     1      -5.235   3.671  67.467  1.00  0.00    -0.008 C  
HETATM   23  N   UNL     1      -6.135   4.791  67.780  1.00  0.00    -0.027 NA 
HETATM   24  C   UNL     1      -7.080   6.888  67.173  1.00  0.00    -0.080 A  
HETATM   25  C   UNL     1      -6.279   5.795  66.883  1.00  0.00    -0.034 A  
ENDBRANCH  16  19
ENDBRANCH  13  14
ENDBRANCH   4  13
BRANCH   6  26
HETATM   26  N   UNL     1      -9.096  16.830  66.426  1.00  0.00    -0.272 N  
HETATM   27  H   UNL     1      -8.534  16.862  67.276  1.00  0.00     0.000 HD 
HETATM   28  C   UNL     1      -9.965  17.866  66.149  1.00  0.00    -0.283 C  
HETATM   29  O   UNL     1     -10.777  17.833  65.232  1.00  0.00    -0.649 OA 
BRANCH  28  30
HETATM   30  C   UNL     1      -9.879  19.103  67.050  1.00  0.00    -0.336 C  
BRANCH  30  31
HETATM   31  C   UNL     1     -10.129  18.943  68.490  1.00  0.00    -0.402 A  
HETATM   32  S   UNL     1     -10.255  19.406  70.868  1.00  0.00     2.543 SA 
HETATM   33  N   UNL     1     -10.725  17.770  69.012  1.00  0.00    -0.001 NA 
HETATM   34  N   UNL     1      -9.841  19.928  69.352  1.00  0.00    -0.220 NA 
HETATM   35  C   UNL     1     -10.839  17.886  70.316  1.00  0.00     1.719 A  
BRANCH  35  36
HETATM   36  N   UNL     1     -11.364  16.967  71.163  1.00  0.00    -0.248 NA 
HETATM   37  H   UNL     1     -11.396  17.117  72.171  1.00  0.00     0.000 HD 
HETATM   38  P   UNL     1     -11.939  15.611  70.477  1.00  0.00    -0.382 P  
HETATM   39  O   UNL     1     -12.948  15.067  71.599  1.00  0.00    -0.309 OA 
HETATM   40  O   UNL     1     -12.988  16.034  69.346  1.00  0.00     0.338 OA 
HETATM   41  O   UNL     1     -10.983  14.554  70.033  1.00  0.00    -0.179 OA 
ENDBRANCH  35  36
ENDBRANCH  30  31
BRANCH  30  42
HETATM   42  N   UNL     1      -9.601  20.313  66.643  1.00  0.00    -0.552 NA 
HETATM   43  H   UNL     1     -10.137  21.134  66.927  1.00  0.00     0.000 HD 
BRANCH  42  44
HETATM   44  O   UNL     1      -8.497  20.378  65.781  1.00  0.00    -0.039 OA 
BRANCH  44  45
HETATM   45  C   UNL     1      -7.334  19.969  66.507  1.00  0.00    -0.267 C  
HETATM   46  C   UNL     1      -6.137  19.991  65.575  1.00  0.00    -0.229 C  
ENDBRANCH  44  45
ENDBRANCH  42  44
ENDBRANCH  30  42
ENDBRANCH  28  30
ENDBRANCH   6  26
TORSDOF 10
ENDMDL
MODEL       92
REMARK 921   NORMALIZED FREE ENERGY PREDICTED BY IDOCK:    0.13 KCAL/MOL
REMARK 922        TOTAL FREE ENERGY PREDICTED BY IDOCK:   -1.60 KCAL/MOL
REMARK 923 INTER-LIGAND FREE ENERGY PREDICTED BY IDOCK:   -1.24 KCAL/MOL
REMARK 924 INTRA-LIGAND FREE ENERGY PREDICTED BY IDOCK:   -0.36 KCAL/MOL
REMARK 927      BINDING AFFINITY PREDICTED BY RF-SCORE:    0.00 PKD
ROOT
HETATM    1  C   UNL     1      -8.835  14.254  66.009  1.00  0.00     0.478 C  
HETATM    2  S   UNL     1      -8.725  13.868  67.767  1.00  0.00    -0.201 SA 
HETATM    3  C   UNL     1      -9.520  12.253  67.664  1.00  0.00    -0.188 C  
HETATM    4  C   UNL     1     -10.593  12.037  66.603  1.00  0.00    -0.232 C  
HETATM    5  CA  UNL     1     -10.916  12.949  65.651  1.00  0.00    -0.271 C  
HETATM    6  CA  UNL     1      -8.954  15.765  65.617  1.00  0.00     0.195 C  
HETATM    7  O   UNL     1     -11.240  15.935  64.478  1.00  0.00    -0.454 OA 
HETATM    8  C   UNL     1     -12.055  12.737  64.581  1.00  0.00    -0.423 C  
HETATM    9  N   UNL     1     -10.210  14.122  65.599  1.00  0.00    -0.324 N  
HETATM   10  C   UNL     1     -10.351  15.345  65.044  1.00  0.00    -0.329 C  
HETATM   11  O   UNL     1     -11.667  12.931  63.383  1.00  0.00    -0.514 OA 
HETATM   12  OXT UNL     1     -13.174  12.351  65.010  1.00  0.00    -0.607 OA 
ENDROOT
BRANCH   4  13
HETATM   13  S   UNL     1     -11.493  10.563  66.941  1.00  0.00     0.846 SA 
BRANCH  13  14
HETATM   14  C   UNL     1     -10.285   9.437  67.503  1.00  0.00    -0.231 A  
HETATM   15  N   UNL     1      -9.741   9.421  68.702  1.00  0.00    -0.150 NA 
HETATM   16  C   UNL     1      -8.750   8.453  68.745  1.00  0.00    -0.136 A  
HETATM   17  S   UNL     1      -9.800   8.153  66.459  1.00  0.00    -0.207 SA 
HETATM   18  C   UNL     1      -8.669   7.640  67.631  1.00  0.00    -0.122 A  
BRANCH  16  19
HETATM   19  C   UNL     1      -7.870   8.322  69.894  1.00  0.00    -0.102 A  
HETATM   20  C   UNL     1      -8.050   9.089  71.045  1.00  0.00    -0.199 A  
HETATM   21  C   UNL     1      -7.167   8.947  72.106  1.00  0.00     0.132 A  
HETATM   22  C   UNL     1      -5.186   7.972  73.155  1.00  0.00    -0.041 C  
HETATM   23  N   UNL     1      -6.139   8.074  72.040  1.00  0.00    -0.041 NA 
HETATM   24  C   UNL     1      -6.817   7.409  69.860  1.00  0.00    -0.055 A  
HETATM   25  C   UNL     1      -5.965   7.296  70.946  1.00  0.00    -0.035 A  
ENDBRANCH  16  19
ENDBRANCH  13  14
ENDBRANCH   4  13
BRANCH   6  26
HETATM   26  N   UNL     1      -9.008  16.796  66.704  1.00  0.00    -0.233 N  
HETATM   27  H   UNL     1      -8.663  16.561  67.634  1.00  0.00     0.000 HD 
HETATM   28  C   UNL     1      -9.517  18.057  66.468  1.00  0.00    -0.301 C  
HETATM   29  O   UNL     1     -10.082  18.369  65.427  1.00  0.00    -0.313 OA 
BRANCH  28  30
HETATM   30  C   UNL     1      -9.344  19.095  67.584  1.00  0.00    -0.303 C  
BRANCH  30  31
HETATM   31  C   UNL     1      -9.832  18.766  68.931  1.00  0.00    -0.365 A  
HETATM   32  S   UNL     1     -10.239  18.875  71.321  1.00  0.00     3.644 SA 
HETATM   33  N   UNL     1     -10.680  17.656  69.162  1.00  0.00    -0.018 NA 
HETATM   34  N   UNL     1      -9.523  19.538  69.983  1.00  0.00     0.481 NA 
HETATM   35  C   UNL     1     -10.969  17.591  70.441  1.00  0.00     1.367 A  
BRANCH  35  36
HETATM   36  N   UNL     1     -11.757  16.665  71.042  1.00  0.00    -0.445 NA 
HETATM   37  H   UNL     1     -12.333  16.891  71.853  1.00  0.00     0.000 HD 
HETATM   38  P   UNL     1     -11.730  15.176  70.395  1.00  0.00    -0.356 P  
HETATM   39  O   UNL     1     -13.112  14.553  70.920  1.00  0.00    -0.355 OA 
HETATM   40  O   UNL     1     -12.062  15.306  68.835  1.00  0.00    -0.286 OA 
HETATM   41  O   UNL     1     -10.574  14.275  70.680  1.00  0.00     0.591 OA 
ENDBRANCH  35  36
ENDBRANCH  30  31
BRANCH  30  42
HETATM   42  N   UNL     1      -8.794  20.271  67.440  1.00  0.00    -0.345 NA 
HETATM   43  H   UNL     1      -9.313  21.144  67.535  1.00  0.00     0.000 HD 
BRANCH  42  44
HETATM   44  O   UNL     1      -7.424  20.220  67.144  1.00  0.00    -0.267 OA 
BRANCH  44  45
HETATM   45  C   UNL     1      -7.275  20.019  65.736  1.00  0.00    -0.309 C  
HETATM   46  C   UNL     1      -5.797  20.008  65.392  1.00  0.00    -0.214 C  
ENDBRANCH  44  45
ENDBRANCH  42  44
ENDBRANCH  30  42
ENDBRANCH  28  30
ENDBRANCH   6  26
TORSDOF 10
ENDMDL
MODEL       93
REMARK 921   NORMALIZED FREE ENERGY PREDICTED BY IDOCK:    0.78 KCAL/MOL
REMARK 922        TOTAL FREE ENERGY PREDICTED BY IDOCK:   -0.58 KCAL/MOL
REMARK 923 INTER-LIGAND FREE ENERGY PREDICTED BY IDOCK:   -0.50 KCAL/MOL
REMARK 924 INTRA-LIGAND FREE ENERGY PREDICTED BY IDOCK:   -0.07 KCAL/MOL
REMARK 927      BINDING AFFINITY PREDICTED BY RF-SCORE:    0.00 PKD
ROOT
HETATM    1  C   UNL     1     -12.721  14.855  69.759  1.00  0.00    -0.027 C  
HETATM    2  S   UNL     1     -11.755  14.438  68.295  1.00  0.00    -0.336 SA 
HETATM    3  C   UNL     1     -12.235  12.701  68.230  1.00  0.00     0.112 C  
HETATM    4  C   UNL     1     -12.529  11.978  69.540  1.00  0.00     0.170 C  
HETATM    5  CA  UNL     1     -12.562  12.586  70.753  1.00  0.00    -0.212 C  
HETATM    6  CA  UNL     1     -12.167  15.995  70.678  1.00  0.00    -0.177 C  
HETATM    7  O   UNL     1     -11.697  14.825  72.906  1.00  0.00    -0.170 OA 
HETATM    8  C   UNL     1     -12.826  11.827  72.110  1.00  0.00     0.020 C  
HETATM    9  N   UNL     1     -12.366  13.941  70.815  1.00  0.00    -0.359 N  
HETATM   10  C   UNL     1     -12.060  14.861  71.754  1.00  0.00    -0.360 C  
HETATM   11  O   UNL     1     -13.757  12.345  72.807  1.00  0.00    -0.185 OA 
HETATM   12  OXT UNL     1     -12.149  10.786  72.321  1.00  0.00     0.716 OA 
ENDROOT
BRANCH   4  13
HETATM   13  S   UNL     1     -12.578  10.240  69.276  1.00  0.00     1.199 SA 
BRANCH  13  14
HETATM   14  C   UNL     1     -11.029   9.865  68.567  1.00  0.00    -0.180 A  
HETATM   15  N   UNL     1     -10.823   9.444  67.336  1.00  0.00    -0.208 NA 
HETATM   16  C   UNL     1      -9.479   9.153  67.168  1.00  0.00    -0.154 A  
HETATM   17  S   UNL     1      -9.603  10.150  69.493  1.00  0.00    -0.199 SA 
HETATM   18  C   UNL     1      -8.660   9.513  68.220  1.00  0.00    -0.120 A  
BRANCH  16  19
HETATM   19  C   UNL     1      -8.989   8.515  65.957  1.00  0.00    -0.228 A  
HETATM   20  C   UNL     1      -8.722   9.246  64.801  1.00  0.00    -0.220 A  
HETATM   21  C   UNL     1      -8.282   8.588  63.661  1.00  0.00    -0.128 A  
HETATM   22  C   UNL     1      -7.684   6.562  62.429  1.00  0.00    -0.096 C  
HETATM   23  N   UNL     1      -8.106   7.249  63.659  1.00  0.00    -0.062 NA 
HETATM   24  C   UNL     1      -8.775   7.138  65.938  1.00  0.00    -0.146 A  
HETATM   25  C   UNL     1      -8.327   6.523  64.780  1.00  0.00    -0.017 A  
ENDBRANCH  16  19
ENDBRANCH  13  14
ENDBRANCH   4  13
BRANCH   6  26
HETATM   26  N   UNL     1     -10.864  16.647  70.323  1.00  0.00    -0.298 N  
HETATM   27  H   UNL     1     -10.016  16.372  70.819  1.00  0.00     0.000 HD 
HETATM   28  C   UNL     1     -10.792  17.611  69.339  1.00  0.00     0.535 C  
HETATM   29  O   UNL     1     -11.780  18.099  68.804  1.00  0.00     1.862 OA 
BRANCH  28  30
HETATM   30  C   UNL     1      -9.391  18.067  68.917  1.00  0.00    -0.157 C  
BRANCH  30  31
HETATM   31  C   UNL     1      -8.730  17.368  67.805  1.00  0.00    -0.232 A  
HETATM   32  S   UNL     1      -7.006  16.483  66.343  1.00  0.00     0.281 SA 
HETATM   33  N   UNL     1      -9.470  16.641  66.842  1.00  0.00    -0.228 NA 
HETATM   34  N   UNL     1      -7.393  17.359  67.694  1.00  0.00    -0.173 NA 
HETATM   35  C   UNL     1      -8.643  16.114  65.967  1.00  0.00    -0.196 A  
BRANCH  35  36
HETATM   36  N   UNL     1      -8.980  15.348  64.900  1.00  0.00     1.109 NA 
HETATM   37  H   UNL     1      -8.512  15.441  63.999  1.00  0.00     0.000 HD 
HETATM   38  P   UNL     1     -10.175  14.274  65.142  1.00  0.00    -0.250 P  
HETATM   39  O   UNL     1      -9.919  13.214  63.966  1.00  0.00    -0.304 OA 
HETATM   40  O   UNL     1      -9.787  13.377  66.409  1.00  0.00    -0.283 OA 
HETATM   41  O   UNL     1     -11.591  14.747  65.162  1.00  0.00    -0.354 OA 
ENDBRANCH  35  36
ENDBRANCH  30  31
BRANCH  30  42
HETATM   42  N   UNL     1      -8.715  19.038  69.471  1.00  0.00     0.260 NA 
HETATM   43  H   UNL     1      -8.690  19.196  70.479  1.00  0.00     0.000 HD 
BRANCH  42  44
HETATM   44  O   UNL     1      -8.027  19.842  68.551  1.00  0.00    -0.322 OA 
BRANCH  44  45
HETATM   45  C   UNL     1      -6.810  20.282  69.159  1.00  0.00    -0.126 C  
HETATM   46  C   UNL     1      -5.717  20.319  68.107  1.00  0.00    -0.264 C  
ENDBRANCH  44  45
ENDBRANCH  42  44
ENDBRANCH  30  42
ENDBRANCH  28  30
ENDBRANCH   6  26
TORSDOF 10
ENDMDL
MODEL       94
REMARK 921   NORMALIZED FREE ENERGY PREDICTED BY IDOCK:    3.66 KCAL/MOL
REMARK 922        TOTAL FREE ENERGY PREDICTED BY IDOCK:    3.99 KCAL/MOL
REMARK 923 INTER-LIGAND FREE ENERGY PREDICTED BY IDOCK:    2.82 KCAL/MOL
REMARK 924 INTRA-LIGAND FREE ENERGY PREDICTED BY IDOCK:    1.17 KCAL/MOL
REMARK 927      BINDING AFFINITY PREDICTED BY RF-SCORE:    0.00 PKD
ROOT
HETATM    1  C   UNL     1     -10.081  10.466  69.239  1.00  0.00    -0.230 C  
HETATM    2  S   UNL     1     -10.037   9.607  67.654  1.00  0.00    -0.208 SA 
HETATM    3  C   UNL     1      -9.062   8.201  68.219  1.00  0.00    -0.135 C  
HETATM    4  C   UNL     1      -8.036   8.425  69.325  1.00  0.00    -0.115 C  
HETATM    5  CA  UNL     1      -7.884   9.595  69.997  1.00  0.00    -0.165 C  
HETATM    6  CA  UNL     1     -10.169  12.029  69.201  1.00  0.00     0.156 C  
HETATM    7  O   UNL     1      -7.993  12.802  70.306  1.00  0.00     2.472 OA 
HETATM    8  C   UNL     1      -6.795   9.833  71.112  1.00  0.00     0.162 C  
HETATM    9  N   UNL     1      -8.728  10.634  69.704  1.00  0.00     0.036 N  
HETATM   10  C   UNL     1      -8.769  11.969  69.903  1.00  0.00     2.614 C  
HETATM   11  O   UNL     1      -7.276  10.291  72.199  1.00  0.00     1.783 OA 
HETATM   12  OXT UNL     1      -5.613   9.497  70.835  1.00  0.00    -0.043 OA 
ENDROOT
BRANCH   4  13
HETATM   13  S   UNL     1      -6.947   7.047  69.431  1.00  0.00    -0.068 SA 
BRANCH  13  14
HETATM   14  C   UNL     1      -7.858   5.721  68.755  1.00  0.00    -0.097 A  
HETATM   15  N   UNL     1      -7.592   5.095  67.628  1.00  0.00    -0.086 NA 
HETATM   16  C   UNL     1      -8.592   4.172  67.368  1.00  0.00    -0.100 A  
HETATM   17  S   UNL     1      -9.177   5.076  69.660  1.00  0.00    -0.127 SA 
HETATM   18  C   UNL     1      -9.512   3.996  68.382  1.00  0.00    -0.149 A  
BRANCH  16  19
HETATM   19  C   UNL     1      -8.645   3.450  66.107  1.00  0.00    -0.119 A  
HETATM   20  C   UNL     1      -7.660   2.529  65.749  1.00  0.00    -0.075 A  
HETATM   21  C   UNL     1      -7.740   1.885  64.522  1.00  0.00    -0.064 A  
HETATM   22  C   UNL     1      -8.803   1.479  62.358  1.00  0.00    -0.068 C  
HETATM   23  N   UNL     1      -8.759   2.136  63.673  1.00  0.00    -0.085 NA 
HETATM   24  C   UNL     1      -9.701   3.672  65.225  1.00  0.00    -0.144 A  
HETATM   25  C   UNL     1      -9.744   3.000  64.015  1.00  0.00    -0.148 A  
ENDBRANCH  16  19
ENDBRANCH  13  14
ENDBRANCH   4  13
BRANCH   6  26
HETATM   26  N   UNL     1     -10.174  12.725  67.873  1.00  0.00    -0.223 N  
HETATM   27  H   UNL     1      -9.618  13.571  67.749  1.00  0.00     0.000 HD 
HETATM   28  C   UNL     1     -10.917  12.242  66.815  1.00  0.00    -0.276 C  
HETATM   29  O   UNL     1     -11.720  11.324  66.924  1.00  0.00    -0.464 OA 
BRANCH  28  30
HETATM   30  C   UNL     1     -10.696  12.908  65.452  1.00  0.00    -0.285 C  
BRANCH  30  31
HETATM   31  C   UNL     1     -10.347  14.336  65.415  1.00  0.00    -0.370 A  
HETATM   32  S   UNL     1     -10.453  16.719  64.971  1.00  0.00     0.313 SA 
HETATM   33  N   UNL     1      -9.183  14.831  66.051  1.00  0.00    -0.215 NA 
HETATM   34  N   UNL     1     -11.151  15.225  64.814  1.00  0.00    -0.409 NA 
HETATM   35  C   UNL     1      -9.111  16.130  65.871  1.00  0.00    -0.233 A  
BRANCH  35  36
HETATM   36  N   UNL     1      -8.138  16.954  66.333  1.00  0.00    -0.290 NA 
HETATM   37  H   UNL     1      -7.752  17.707  65.764  1.00  0.00     0.000 HD 
HETATM   38  P   UNL     1      -7.623  16.670  67.847  1.00  0.00    -0.170 P  
HETATM   39  O   UNL     1      -6.973  18.079  68.253  1.00  0.00    -0.213 OA 
HETATM   40  O   UNL     1      -8.898  16.667  68.813  1.00  0.00    -0.249 OA 
HETATM   41  O   UNL     1      -6.686  15.535  68.100  1.00  0.00    -0.111 OA 
ENDBRANCH  35  36
ENDBRANCH  30  31
BRANCH  30  42
HETATM   42  N   UNL     1     -10.798  12.309  64.296  1.00  0.00    -0.320 NA 
HETATM   43  H   UNL     1     -10.257  11.480  64.047  1.00  0.00     0.000 HD 
BRANCH  42  44
HETATM   44  O   UNL     1     -11.721  12.912  63.429  1.00  0.00    -0.514 OA 
BRANCH  44  45
HETATM   45  C   UNL     1     -12.884  12.082  63.362  1.00  0.00    -0.291 C  
HETATM   46  C   UNL     1     -13.896  12.568  64.383  1.00  0.00     2.146 C  
ENDBRANCH  44  45
ENDBRANCH  42  44
ENDBRANCH  30  42
ENDBRANCH  28  30
ENDBRANCH   6  26
TORSDOF 10
ENDMDL
MODEL       95
REMARK 921   NORMALIZED FREE ENERGY PREDICTED BY IDOCK:    4.96 KCAL/MOL
REMARK 922        TOTAL FREE ENERGY PREDICTED BY IDOCK:    6.06 KCAL/MOL
REMARK 923 INTER-LIGAND FREE ENERGY PREDICTED BY IDOCK:    2.35 KCAL/MOL
REMARK 924 INTRA-LIGAND FREE ENERGY PREDICTED BY IDOCK:    3.71 KCAL/MOL
REMARK 927      BINDING AFFINITY PREDICTED BY RF-SCORE:    0.00 PKD
ROOT
HETATM    1  C   UNL     1      -9.853   9.682  71.440  1.00  0.00     0.348 C  
HETATM    2  S   UNL     1     -11.412   9.020  70.822  1.00  0.00    -0.270 SA 
HETATM    3  C   UNL     1     -11.330   7.456  71.715  1.00  0.00    -0.255 C  
HETATM    4  C   UNL     1      -9.960   6.845  71.986  1.00  0.00    -0.166 C  
HETATM    5  CA  UNL     1      -8.782   7.457  71.698  1.00  0.00    -0.116 C  
HETATM    6  CA  UNL     1      -9.071  10.661  70.500  1.00  0.00     1.880 C  
HETATM    7  O   UNL     1      -6.874   9.439  70.017  1.00  0.00    -0.052 OA 
HETATM    8  C   UNL     1      -7.368   6.804  71.944  1.00  0.00    -0.085 C  
HETATM    9  N   UNL     1      -8.812   8.722  71.172  1.00  0.00    -0.200 N  
HETATM   10  C   UNL     1      -7.967   9.549  70.520  1.00  0.00    -0.159 C  
HETATM   11  O   UNL     1      -6.578   7.545  72.612  1.00  0.00    -0.058 OA 
HETATM   12  OXT UNL     1      -7.202   5.630  71.517  1.00  0.00    -0.076 OA 
ENDROOT
BRANCH   4  13
HETATM   13  S   UNL     1     -10.132   5.170  72.494  1.00  0.00    -0.187 SA 
BRANCH  13  14
HETATM   14  C   UNL     1      -9.464   4.246  71.174  1.00  0.00    -0.163 A  
HETATM   15  N   UNL     1      -8.899   4.740  70.092  1.00  0.00    -0.092 NA 
HETATM   16  C   UNL     1      -8.586   3.707  69.223  1.00  0.00    -0.072 A  
HETATM   17  S   UNL     1      -9.432   2.526  71.298  1.00  0.00    -0.155 SA 
HETATM   18  C   UNL     1      -8.767   2.435  69.729  1.00  0.00    -0.071 A  
BRANCH  16  19
HETATM   19  C   UNL     1      -8.099   3.970  67.879  1.00  0.00    -0.089 A  
HETATM   20  C   UNL     1      -7.182   3.127  67.254  1.00  0.00    -0.058 A  
HETATM   21  C   UNL     1      -6.727   3.435  65.979  1.00  0.00    -0.041 A  
HETATM   22  C   UNL     1      -6.634   4.876  64.007  1.00  0.00    -0.042 C  
HETATM   23  N   UNL     1      -7.163   4.540  65.337  1.00  0.00    -0.067 NA 
HETATM   24  C   UNL     1      -8.555   5.090  67.185  1.00  0.00    -0.104 A  
HETATM   25  C   UNL     1      -8.079   5.355  65.911  1.00  0.00    -0.108 A  
ENDBRANCH  16  19
ENDBRANCH  13  14
ENDBRANCH   4  13
BRANCH   6  26
HETATM   26  N   UNL     1      -9.628  10.965  69.142  1.00  0.00    -0.370 N  
HETATM   27  H   UNL     1      -9.982  10.203  68.565  1.00  0.00     0.000 HD 
HETATM   28  C   UNL     1      -9.670  12.258  68.659  1.00  0.00    -0.065 C  
HETATM   29  O   UNL     1      -9.133  13.202  69.225  1.00  0.00     0.554 OA 
BRANCH  28  30
HETATM   30  C   UNL     1     -10.437  12.485  67.352  1.00  0.00    -0.219 C  
BRANCH  30  31
HETATM   31  C   UNL     1      -9.891  13.437  66.374  1.00  0.00    -0.296 A  
HETATM   32  S   UNL     1      -9.197  14.433  64.272  1.00  0.00     5.501 SA 
HETATM   33  N   UNL     1      -9.416  14.712  66.765  1.00  0.00    -0.248 NA 
HETATM   34  N   UNL     1      -9.868  13.143  65.066  1.00  0.00    -0.113 NA 
HETATM   35  C   UNL     1      -8.990  15.360  65.705  1.00  0.00     0.142 A  
BRANCH  35  36
HETATM   36  N   UNL     1      -8.468  16.611  65.683  1.00  0.00    -0.193 NA 
HETATM   37  H   UNL     1      -8.591  17.234  64.884  1.00  0.00     0.000 HD 
HETATM   38  P   UNL     1      -7.633  17.060  67.002  1.00  0.00    -0.237 P  
HETATM   39  O   UNL     1      -7.678  18.660  66.902  1.00  0.00    -0.221 OA 
HETATM   40  O   UNL     1      -8.568  16.838  68.280  1.00  0.00    -0.210 OA 
HETATM   41  O   UNL     1      -6.240  16.557  67.193  1.00  0.00    -0.158 OA 
ENDBRANCH  35  36
ENDBRANCH  30  31
BRANCH  30  42
HETATM   42  N   UNL     1     -11.557  11.900  67.024  1.00  0.00    -0.532 NA 
HETATM   43  H   UNL     1     -12.470  12.345  67.127  1.00  0.00     0.000 HD 
BRANCH  42  44
HETATM   44  O   UNL     1     -11.388  10.603  66.517  1.00  0.00    -0.075 OA 
BRANCH  44  45
HETATM   45  C   UNL     1     -10.098  10.523  65.907  1.00  0.00    -0.260 C  
HETATM   46  C   UNL     1      -9.240   9.547  66.690  1.00  0.00    -0.190 C  
ENDBRANCH  44  45
ENDBRANCH  42  44
ENDBRANCH  30  42
ENDBRANCH  28  30
ENDBRANCH   6  26
TORSDOF 10
ENDMDL
MODEL       96
REMARK 921   NORMALIZED FREE ENERGY PREDICTED BY IDOCK:    6.00 KCAL/MOL
REMARK 922        TOTAL FREE ENERGY PREDICTED BY IDOCK:    7.69 KCAL/MOL
REMARK 923 INTER-LIGAND FREE ENERGY PREDICTED BY IDOCK:    4.04 KCAL/MOL
REMARK 924 INTRA-LIGAND FREE ENERGY PREDICTED BY IDOCK:    3.65 KCAL/MOL
REMARK 927      BINDING AFFINITY PREDICTED BY RF-SCORE:    0.00 PKD
ROOT
HETATM    1  C   UNL     1      -9.452   9.386  63.671  1.00  0.00     0.530 C  
HETATM    2  S   UNL     1      -7.851  10.215  63.673  1.00  0.00    -0.133 SA 
HETATM    3  C   UNL     1      -6.919   8.844  62.965  1.00  0.00    -0.089 C  
HETATM    4  C   UNL     1      -7.369   7.421  63.277  1.00  0.00    -0.086 C  
HETATM    5  CA  UNL     1      -8.498   7.114  63.964  1.00  0.00     0.319 C  
HETATM    6  CA  UNL     1     -10.471   9.800  64.786  1.00  0.00     1.154 C  
HETATM    7  O   UNL     1     -10.812   7.656  66.144  1.00  0.00     0.883 OA 
HETATM    8  C   UNL     1      -8.938   5.641  64.319  1.00  0.00     0.339 C  
HETATM    9  N   UNL     1      -9.318   8.133  64.371  1.00  0.00     1.223 N  
HETATM   10  C   UNL     1     -10.324   8.311  65.253  1.00  0.00     2.921 C  
HETATM   11  O   UNL     1     -10.133   5.372  63.970  1.00  0.00     1.172 OA 
HETATM   12  OXT UNL     1      -8.066   4.896  64.838  1.00  0.00    -0.102 OA 
ENDROOT
BRANCH   4  13
HETATM   13  S   UNL     1      -6.111   6.275  62.831  1.00  0.00    -0.026 SA 
BRANCH  13  14
HETATM   14  C   UNL     1      -5.813   5.369  64.292  1.00  0.00    -0.021 A  
HETATM   15  N   UNL     1      -6.066   5.775  65.519  1.00  0.00    -0.028 NA 
HETATM   16  C   UNL     1      -5.601   4.831  66.420  1.00  0.00    -0.017 A  
HETATM   17  S   UNL     1      -5.225   3.753  64.160  1.00  0.00    -0.009 SA 
HETATM   18  C   UNL     1      -5.151   3.651  65.862  1.00  0.00    -0.008 A  
BRANCH  16  19
HETATM   19  C   UNL     1      -5.599   5.090  67.851  1.00  0.00    -0.016 A  
HETATM   20  C   UNL     1      -5.202   6.321  68.372  1.00  0.00    -0.007 A  
HETATM   21  C   UNL     1      -5.191   6.510  69.747  1.00  0.00    -0.014 A  
HETATM   22  C   UNL     1      -5.499   5.722  72.040  1.00  0.00    -0.021 C  
HETATM   23  N   UNL     1      -5.562   5.519  70.586  1.00  0.00    -0.008 NA 
HETATM   24  C   UNL     1      -6.002   4.091  68.736  1.00  0.00    -0.023 A  
HETATM   25  C   UNL     1      -5.983   4.327  70.100  1.00  0.00    -0.018 A  
ENDBRANCH  16  19
ENDBRANCH  13  14
ENDBRANCH   4  13
BRANCH   6  26
HETATM   26  N   UNL     1     -10.059  10.819  65.806  1.00  0.00    -0.250 N  
HETATM   27  H   UNL     1     -10.087  10.576  66.796  1.00  0.00     0.000 HD 
HETATM   28  C   UNL     1      -9.642  12.079  65.429  1.00  0.00    -0.132 C  
HETATM   29  O   UNL     1      -9.719  12.495  64.279  1.00  0.00    -0.102 OA 
BRANCH  28  30
HETATM   30  C   UNL     1      -9.055  12.972  66.527  1.00  0.00    -0.127 C  
BRANCH  30  31
HETATM   31  C   UNL     1      -9.975  13.619  67.474  1.00  0.00    -0.230 A  
HETATM   32  S   UNL     1     -11.368  15.288  68.553  1.00  0.00    -0.343 SA 
HETATM   33  N   UNL     1     -10.559  12.903  68.547  1.00  0.00    -0.251 NA 
HETATM   34  N   UNL     1     -10.329  14.904  67.322  1.00  0.00    -0.250 NA 
HETATM   35  C   UNL     1     -11.338  13.709  69.232  1.00  0.00    -0.269 A  
BRANCH  35  36
HETATM   36  N   UNL     1     -12.068  13.384  70.328  1.00  0.00    -0.391 NA 
HETATM   37  H   UNL     1     -12.442  12.445  70.469  1.00  0.00     0.000 HD 
HETATM   38  P   UNL     1     -12.311  14.577  71.403  1.00  0.00    -0.368 P  
HETATM   39  O   UNL     1     -12.652  13.761  72.741  1.00  0.00    -0.125 OA 
HETATM   40  O   UNL     1     -10.885  15.180  71.805  1.00  0.00    -0.143 OA 
HETATM   41  O   UNL     1     -13.337  15.623  71.116  1.00  0.00    -0.514 OA 
ENDBRANCH  35  36
ENDBRANCH  30  31
BRANCH  30  42
HETATM   42  N   UNL     1      -7.784  13.220  66.698  1.00  0.00    -0.052 NA 
HETATM   43  H   UNL     1      -7.105  13.203  65.937  1.00  0.00     0.000 HD 
BRANCH  42  44
HETATM   44  O   UNL     1      -7.441  13.511  68.027  1.00  0.00    -0.109 OA 
BRANCH  44  45
HETATM   45  C   UNL     1      -6.038  13.287  68.189  1.00  0.00    -0.108 C  
HETATM   46  C   UNL     1      -5.711  13.250  69.671  1.00  0.00    -0.107 C  
ENDBRANCH  44  45
ENDBRANCH  42  44
ENDBRANCH  30  42
ENDBRANCH  28  30
ENDBRANCH   6  26
TORSDOF 10
ENDMDL
MODEL       97
REMARK 921   NORMALIZED FREE ENERGY PREDICTED BY IDOCK:    6.33 KCAL/MOL
REMARK 922        TOTAL FREE ENERGY PREDICTED BY IDOCK:    8.22 KCAL/MOL
REMARK 923 INTER-LIGAND FREE ENERGY PREDICTED BY IDOCK:   -2.25 KCAL/MOL
REMARK 924 INTRA-LIGAND FREE ENERGY PREDICTED BY IDOCK:   10.47 KCAL/MOL
REMARK 927      BINDING AFFINITY PREDICTED BY RF-SCORE:    0.00 PKD
ROOT
HETATM    1  C   UNL     1      -8.759  12.555  68.939  1.00  0.00     0.320 C  
HETATM    2  S   UNL     1     -10.496  12.788  69.365  1.00  0.00     0.552 SA 
HETATM    3  C   UNL     1     -10.690  11.233  70.256  1.00  0.00     0.732 C  
HETATM    4  C   UNL     1      -9.868  10.030  69.808  1.00  0.00    -0.235 C  
HETATM    5  CA  UNL     1      -8.909  10.079  68.848  1.00  0.00    -0.148 C  
HETATM    6  CA  UNL     1      -8.255  13.214  67.611  1.00  0.00    -0.175 C  
HETATM    7  O   UNL     1      -7.541  11.227  66.163  1.00  0.00    -0.088 OA 
HETATM    8  C   UNL     1      -8.088   8.824  68.360  1.00  0.00    -0.117 C  
HETATM    9  N   UNL     1      -8.620  11.287  68.269  1.00  0.00    -0.147 N  
HETATM   10  C   UNL     1      -7.988  11.735  67.163  1.00  0.00    -0.166 C  
HETATM   11  O   UNL     1      -6.828   9.001  68.386  1.00  0.00    -0.063 OA 
HETATM   12  OXT UNL     1      -8.749   7.792  68.064  1.00  0.00    -0.126 OA 
ENDROOT
BRANCH   4  13
HETATM   13  S   UNL     1     -10.500   8.558  70.534  1.00  0.00    -0.210 SA 
BRANCH  13  14
HETATM   14  C   UNL     1     -10.324   7.350  69.286  1.00  0.00    -0.204 A  
HETATM   15  N   UNL     1      -9.200   6.769  68.925  1.00  0.00    -0.132 NA 
HETATM   16  C   UNL     1      -9.436   5.945  67.837  1.00  0.00    -0.110 A  
HETATM   17  S   UNL     1     -11.740   6.764  68.495  1.00  0.00     1.116 SA 
HETATM   18  C   UNL     1     -10.763   5.788  67.492  1.00  0.00    -0.236 A  
BRANCH  16  19
HETATM   19  C   UNL     1      -8.344   5.302  67.124  1.00  0.00    -0.107 A  
HETATM   20  C   UNL     1      -7.345   4.598  67.797  1.00  0.00    -0.073 A  
HETATM   21  C   UNL     1      -6.308   4.024  67.074  1.00  0.00    -0.040 A  
HETATM   22  C   UNL     1      -5.126   3.561  64.985  1.00  0.00    -0.009 C  
HETATM   23  N   UNL     1      -6.256   4.135  65.730  1.00  0.00    -0.031 NA 
HETATM   24  C   UNL     1      -8.283   5.381  65.734  1.00  0.00    -0.121 A  
HETATM   25  C   UNL     1      -7.233   4.785  65.054  1.00  0.00    -0.064 A  
ENDBRANCH  16  19
ENDBRANCH  13  14
ENDBRANCH   4  13
BRANCH   6  26
HETATM   26  N   UNL     1      -9.233  13.960  66.753  1.00  0.00    -0.283 N  
HETATM   27  H   UNL     1     -10.116  13.518  66.501  1.00  0.00     0.000 HD 
HETATM   28  C   UNL     1      -8.958  15.234  66.299  1.00  0.00    -0.279 C  
HETATM   29  O   UNL     1      -7.866  15.773  66.433  1.00  0.00    -0.172 OA 
BRANCH  28  30
HETATM   30  C   UNL     1     -10.100  15.982  65.601  1.00  0.00    -0.354 C  
BRANCH  30  31
HETATM   31  C   UNL     1     -10.223  17.432  65.815  1.00  0.00    -0.191 A  
HETATM   32  S   UNL     1     -10.865  19.754  65.523  1.00  0.00     0.130 SA 
HETATM   33  N   UNL     1      -9.630  18.070  66.931  1.00  0.00    -0.284 NA 
HETATM   34  N   UNL     1     -10.944  18.192  64.978  1.00  0.00    -0.540 NA 
HETATM   35  C   UNL     1      -9.894  19.356  66.885  1.00  0.00    -0.352 A  
BRANCH  35  36
HETATM   36  N   UNL     1      -9.497  20.292  67.783  1.00  0.00    -0.346 NA 
HETATM   37  H   UNL     1     -10.166  20.874  68.287  1.00  0.00     0.000 HD 
HETATM   38  P   UNL     1      -7.895  20.431  68.007  1.00  0.00     0.071 P  
HETATM   39  O   UNL     1      -7.815  21.131  69.448  1.00  0.00     2.123 OA 
HETATM   40  O   UNL     1      -7.318  18.984  68.373  1.00  0.00    -0.271 OA 
HETATM   41  O   UNL     1      -7.074  21.156  66.993  1.00  0.00    -0.380 OA 
ENDBRANCH  35  36
ENDBRANCH  30  31
BRANCH  30  42
HETATM   42  N   UNL     1     -10.994  15.436  64.822  1.00  0.00    -0.600 NA 
HETATM   43  H   UNL     1     -11.118  15.699  63.844  1.00  0.00     0.000 HD 
BRANCH  42  44
HETATM   44  O   UNL     1     -11.767  14.452  65.456  1.00  0.00    -0.341 OA 
BRANCH  44  45
HETATM   45  C   UNL     1     -12.587  13.819  64.470  1.00  0.00    -0.202 C  
HETATM   46  C   UNL     1     -12.810  12.372  64.868  1.00  0.00    -0.092 C  
ENDBRANCH  44  45
ENDBRANCH  42  44
ENDBRANCH  30  42
ENDBRANCH  28  30
ENDBRANCH   6  26
TORSDOF 10
ENDMDL
MODEL       98
REMARK 921   NORMALIZED FREE ENERGY PREDICTED BY IDOCK:    7.27 KCAL/MOL
REMARK 922        TOTAL FREE ENERGY PREDICTED BY IDOCK:    9.72 KCAL/MOL
REMARK 923 INTER-LIGAND FREE ENERGY PREDICTED BY IDOCK:    7.12 KCAL/MOL
REMARK 924 INTRA-LIGAND FREE ENERGY PREDICTED BY IDOCK:    2.60 KCAL/MOL
REMARK 927      BINDING AFFINITY PREDICTED BY RF-SCORE:    0.00 PKD
ROOT
HETATM    1  C   UNL     1      -9.518  17.589  66.568  1.00  0.00    -0.272 C  
HETATM    2  S   UNL     1     -10.525  16.712  67.780  1.00  0.00    -0.322 SA 
HETATM    3  C   UNL     1     -10.656  18.076  68.951  1.00  0.00     0.052 C  
HETATM    4  C   UNL     1      -9.494  19.057  69.059  1.00  0.00    -0.277 C  
HETATM    5  CA  UNL     1      -8.405  19.038  68.248  1.00  0.00    -0.334 C  
HETATM    6  CA  UNL     1      -8.529  16.732  65.708  1.00  0.00     0.244 C  
HETATM    7  O   UNL     1      -6.215  17.616  66.356  1.00  0.00    -0.178 OA 
HETATM    8  C   UNL     1      -7.187  20.029  68.389  1.00  0.00    -0.262 C  
HETATM    9  N   UNL     1      -8.355  18.115  67.237  1.00  0.00    -0.238 N  
HETATM   10  C   UNL     1      -7.421  17.583  66.420  1.00  0.00    -0.299 C  
HETATM   11  O   UNL     1      -6.891  20.625  67.303  1.00  0.00    -0.273 OA 
HETATM   12  OXT UNL     1      -6.694  20.165  69.540  1.00  0.00    -0.292 OA 
ENDROOT
BRANCH   4  13
HETATM   13  S   UNL     1      -9.660  20.039  70.509  1.00  0.00     1.680 SA 
BRANCH  13  14
HETATM   14  C   UNL     1     -10.395  18.968  71.675  1.00  0.00     3.369 A  
HETATM   15  N   UNL     1     -10.890  17.774  71.424  1.00  0.00     1.918 NA 
HETATM   16  C   UNL     1     -11.481  17.270  72.572  1.00  0.00     1.225 A  
HETATM   17  S   UNL     1     -10.409  19.435  73.335  1.00  0.00     4.691 SA 
HETATM   18  C   UNL     1     -11.281  18.018  73.715  1.00  0.00     1.618 A  
BRANCH  16  19
HETATM   19  C   UNL     1     -12.250  16.038  72.547  1.00  0.00    -0.612 A  
HETATM   20  C   UNL     1     -12.653  15.403  73.722  1.00  0.00    -0.747 A  
HETATM   21  C   UNL     1     -13.363  14.212  73.647  1.00  0.00     1.467 A  
HETATM   22  C   UNL     1     -14.384  12.379  72.393  1.00  0.00     0.719 C  
HETATM   23  N   UNL     1     -13.672  13.664  72.452  1.00  0.00    -0.591 NA 
HETATM   24  C   UNL     1     -12.604  15.466  71.326  1.00  0.00    -0.477 A  
HETATM   25  C   UNL     1     -13.321  14.281  71.300  1.00  0.00    -0.321 A  
ENDBRANCH  16  19
ENDBRANCH  13  14
ENDBRANCH   4  13
BRANCH   6  26
HETATM   26  N   UNL     1      -8.440  15.256  65.957  1.00  0.00    -0.211 N  
HETATM   27  H   UNL     1      -7.527  14.829  66.111  1.00  0.00     0.000 HD 
HETATM   28  C   UNL     1      -9.572  14.466  65.980  1.00  0.00    -0.262 C  
HETATM   29  O   UNL     1     -10.681  14.874  65.660  1.00  0.00    -0.305 OA 
BRANCH  28  30
HETATM   30  C   UNL     1      -9.394  13.014  66.439  1.00  0.00    -0.182 C  
BRANCH  30  31
HETATM   31  C   UNL     1     -10.190  12.534  67.578  1.00  0.00    -0.217 A  
HETATM   32  S   UNL     1     -11.829  12.448  69.365  1.00  0.00    -0.278 SA 
HETATM   33  N   UNL     1     -10.017  11.233  68.108  1.00  0.00    -0.176 NA 
HETATM   34  N   UNL     1     -11.143  13.303  68.124  1.00  0.00    -0.247 NA 
HETATM   35  C   UNL     1     -10.849  11.059  69.109  1.00  0.00    -0.237 A  
BRANCH  35  36
HETATM   36  N   UNL     1     -10.978   9.939  69.863  1.00  0.00    -0.264 NA 
HETATM   37  H   UNL     1     -11.875   9.651  70.254  1.00  0.00     0.000 HD 
HETATM   38  P   UNL     1      -9.619   9.084  70.109  1.00  0.00    -0.225 P  
HETATM   39  O   UNL     1     -10.195   7.636  70.487  1.00  0.00    -0.199 OA 
HETATM   40  O   UNL     1      -8.972   8.760  68.683  1.00  0.00    -0.137 OA 
HETATM   41  O   UNL     1      -8.625   9.564  71.115  1.00  0.00    -0.269 OA 
ENDBRANCH  35  36
ENDBRANCH  30  31
BRANCH  30  42
HETATM   42  N   UNL     1      -8.577  12.149  65.900  1.00  0.00    -0.339 NA 
HETATM   43  H   UNL     1      -7.581  12.326  65.771  1.00  0.00     0.000 HD 
BRANCH  42  44
HETATM   44  O   UNL     1      -9.199  10.951  65.516  1.00  0.00    -0.195 OA 
BRANCH  44  45
HETATM   45  C   UNL     1      -9.091  10.823  64.096  1.00  0.00    -0.196 C  
HETATM   46  C   UNL     1      -9.920  11.911  63.438  1.00  0.00    -0.435 C  
ENDBRANCH  44  45
ENDBRANCH  42  44
ENDBRANCH  30  42
ENDBRANCH  28  30
ENDBRANCH   6  26
TORSDOF 10
ENDMDL
MODEL       99
REMARK 921   NORMALIZED FREE ENERGY PREDICTED BY IDOCK:    7.55 KCAL/MOL
REMARK 922        TOTAL FREE ENERGY PREDICTED BY IDOCK:   10.16 KCAL/MOL
REMARK 923 INTER-LIGAND FREE ENERGY PREDICTED BY IDOCK:    6.92 KCAL/MOL
REMARK 924 INTRA-LIGAND FREE ENERGY PREDICTED BY IDOCK:    3.24 KCAL/MOL
REMARK 927      BINDING AFFINITY PREDICTED BY RF-SCORE:    0.00 PKD
ROOT
HETATM    1  C   UNL     1      -9.287  15.015  66.145  1.00  0.00    -0.292 C  
HETATM    2  S   UNL     1     -10.848  14.259  66.636  1.00  0.00    -0.306 SA 
HETATM    3  C   UNL     1     -11.228  15.428  67.955  1.00  0.00    -0.329 C  
HETATM    4  C   UNL     1     -10.072  16.055  68.726  1.00  0.00    -0.225 C  
HETATM    5  CA  UNL     1      -8.763  15.876  68.414  1.00  0.00    -0.183 C  
HETATM    6  CA  UNL     1      -8.190  14.068  65.553  1.00  0.00     3.705 C  
HETATM    7  O   UNL     1      -6.258  14.231  67.224  1.00  0.00    -0.301 OA 
HETATM    8  C   UNL     1      -7.569  16.494  69.239  1.00  0.00    -0.156 C  
HETATM    9  N   UNL     1      -8.447  15.126  67.311  1.00  0.00    -0.183 N  
HETATM   10  C   UNL     1      -7.362  14.497  66.813  1.00  0.00     0.903 C  
HETATM   11  O   UNL     1      -6.741  17.144  68.523  1.00  0.00    -0.164 OA 
HETATM   12  OXT UNL     1      -7.598  16.332  70.488  1.00  0.00     1.509 OA 
ENDROOT
BRANCH   4  13
HETATM   13  S   UNL     1     -10.667  16.827  70.191  1.00  0.00     0.236 SA 
BRANCH  13  14
HETATM   14  C   UNL     1     -11.433  15.537  71.081  1.00  0.00    -0.390 A  
HETATM   15  N   UNL     1     -11.560  14.290  70.679  1.00  0.00    -0.209 NA 
HETATM   16  C   UNL     1     -12.312  13.582  71.603  1.00  0.00    -0.008 A  
HETATM   17  S   UNL     1     -12.001  15.855  72.677  1.00  0.00    -0.526 SA 
HETATM   18  C   UNL     1     -12.603  14.260  72.770  1.00  0.00    -0.221 A  
BRANCH  16  19
HETATM   19  C   UNL     1     -12.750  12.222  71.339  1.00  0.00    -0.351 A  
HETATM   20  C   UNL     1     -12.368  11.540  70.184  1.00  0.00    -0.323 A  
HETATM   21  C   UNL     1     -12.834  10.252  69.964  1.00  0.00     0.133 A  
HETATM   22  C   UNL     1     -14.172   8.302  70.583  1.00  0.00     0.764 C  
HETATM   23  N   UNL     1     -13.650   9.649  70.855  1.00  0.00    -0.150 NA 
HETATM   24  C   UNL     1     -13.572  11.569  72.256  1.00  0.00     0.030 A  
HETATM   25  C   UNL     1     -14.007  10.279  71.999  1.00  0.00     0.237 A  
ENDBRANCH  16  19
ENDBRANCH  13  14
ENDBRANCH   4  13
BRANCH   6  26
HETATM   26  N   UNL     1      -8.472  12.598  65.460  1.00  0.00     0.705 N  
HETATM   27  H   UNL     1      -8.622  12.174  64.545  1.00  0.00     0.000 HD 
HETATM   28  C   UNL     1      -8.532  11.809  66.591  1.00  0.00    -0.153 C  
HETATM   29  O   UNL     1      -8.511  12.265  67.728  1.00  0.00    -0.144 OA 
BRANCH  28  30
HETATM   30  C   UNL     1      -8.626  10.295  66.376  1.00  0.00    -0.133 C  
BRANCH  30  31
HETATM   31  C   UNL     1      -8.497   9.409  67.543  1.00  0.00    -0.122 A  
HETATM   32  S   UNL     1      -8.107   7.438  68.903  1.00  0.00    -0.129 SA 
HETATM   33  N   UNL     1      -8.671   9.892  68.862  1.00  0.00    -0.133 NA 
HETATM   34  N   UNL     1      -8.163   8.119  67.395  1.00  0.00    -0.121 NA 
HETATM   35  C   UNL     1      -8.499   8.905  69.711  1.00  0.00    -0.131 A  
BRANCH  35  36
HETATM   36  N   UNL     1      -8.583   8.981  71.062  1.00  0.00    -0.204 NA 
HETATM   37  H   UNL     1      -8.079   9.690  71.596  1.00  0.00     0.000 HD 
HETATM   38  P   UNL     1      -9.532   7.876  71.781  1.00  0.00    -0.184 P  
HETATM   39  O   UNL     1      -9.859   8.575  73.187  1.00  0.00    -0.125 OA 
HETATM   40  O   UNL     1     -10.977   7.943  71.098  1.00  0.00    -0.233 OA 
HETATM   41  O   UNL     1      -9.026   6.483  71.960  1.00  0.00    -0.140 OA 
ENDBRANCH  35  36
ENDBRANCH  30  31
BRANCH  30  42
HETATM   42  N   UNL     1      -8.809   9.707  65.223  1.00  0.00    -0.158 NA 
HETATM   43  H   UNL     1      -8.091   9.662  64.500  1.00  0.00     0.000 HD 
BRANCH  42  44
HETATM   44  O   UNL     1     -10.085   9.145  65.075  1.00  0.00     0.405 OA 
BRANCH  44  45
HETATM   45  C   UNL     1     -10.522   8.675  66.353  1.00  0.00     0.098 C  
HETATM   46  C   UNL     1     -11.881   9.276  66.661  1.00  0.00     4.627 C  
ENDBRANCH  44  45
ENDBRANCH  42  44
ENDBRANCH  30  42
ENDBRANCH  28  30
ENDBRANCH   6  26
TORSDOF 10
ENDMDL
MODEL      100
REMARK 921   NORMALIZED FREE ENERGY PREDICTED BY IDOCK:    8.52 KCAL/MOL
REMARK 922        TOTAL FREE ENERGY PREDICTED BY IDOCK:   11.69 KCAL/MOL
REMARK 923 INTER-LIGAND FREE ENERGY PREDICTED BY IDOCK:    5.51 KCAL/MOL
REMARK 924 INTRA-LIGAND FREE ENERGY PREDICTED BY IDOCK:    6.18 KCAL/MOL
REMARK 927      BINDING AFFINITY PREDICTED BY RF-SCORE:    0.00 PKD
ROOT
HETATM    1  C   UNL     1      -7.784   7.925  67.066  1.00  0.00    -0.100 C  
HETATM    2  S   UNL     1      -9.530   8.193  67.427  1.00  0.00    -0.162 SA 
HETATM    3  C   UNL     1      -9.846   9.314  66.051  1.00  0.00    -0.293 C  
HETATM    4  C   UNL     1      -8.716  10.222  65.579  1.00  0.00    -0.162 C  
HETATM    5  CA  UNL     1      -7.445  10.166  66.054  1.00  0.00    -0.118 C  
HETATM    6  CA  UNL     1      -6.842   7.624  68.281  1.00  0.00    -0.067 C  
HETATM    7  O   UNL     1      -5.207   9.594  68.304  1.00  0.00    -0.034 OA 
HETATM    8  C   UNL     1      -6.290  11.135  65.592  1.00  0.00     0.201 C  
HETATM    9  N   UNL     1      -7.133   9.208  66.983  1.00  0.00    -0.085 N  
HETATM   10  C   UNL     1      -6.148   8.969  67.874  1.00  0.00    -0.051 C  
HETATM   11  O   UNL     1      -5.238  10.524  65.215  1.00  0.00    -0.090 OA 
HETATM   12  OXT UNL     1      -6.548  12.368  65.588  1.00  0.00     2.089 OA 
ENDROOT
BRANCH   4  13
HETATM   13  S   UNL     1      -9.349  11.482  64.527  1.00  0.00     0.074 SA 
BRANCH  13  14
HETATM   14  C   UNL     1      -9.482  12.882  65.560  1.00  0.00     0.144 A  
HETATM   15  N   UNL     1      -8.707  13.945  65.526  1.00  0.00     1.447 NA 
HETATM   16  C   UNL     1      -9.050  14.800  66.562  1.00  0.00    -0.260 A  
HETATM   17  S   UNL     1     -10.794  12.967  66.676  1.00  0.00    -0.272 SA 
HETATM   18  C   UNL     1     -10.187  14.450  67.263  1.00  0.00    -0.252 A  
BRANCH  16  19
HETATM   19  C   UNL     1      -8.254  15.977  66.867  1.00  0.00    -0.277 A  
HETATM   20  C   UNL     1      -8.747  17.006  67.668  1.00  0.00    -0.216 A  
HETATM   21  C   UNL     1      -7.958  18.123  67.909  1.00  0.00    -0.246 A  
HETATM   22  C   UNL     1      -5.918  19.435  67.606  1.00  0.00    -0.198 C  
HETATM   23  N   UNL     1      -6.721  18.224  67.379  1.00  0.00    -0.194 NA 
HETATM   24  C   UNL     1      -6.964  16.093  66.353  1.00  0.00     0.484 A  
HETATM   25  C   UNL     1      -6.210  17.222  66.626  1.00  0.00    -0.213 A  
ENDBRANCH  16  19
ENDBRANCH  13  14
ENDBRANCH   4  13
BRANCH   6  26
HETATM   26  N   UNL     1      -7.421   7.612  69.664  1.00  0.00    -0.089 N  
HETATM   27  H   UNL     1      -6.951   7.083  70.398  1.00  0.00     0.000 HD 
HETATM   28  C   UNL     1      -8.578   8.303  69.961  1.00  0.00    -0.128 C  
HETATM   29  O   UNL     1      -9.278   8.837  69.108  1.00  0.00    -0.147 OA 
BRANCH  28  30
HETATM   30  C   UNL     1      -8.974   8.390  71.439  1.00  0.00    -0.186 C  
BRANCH  30  31
HETATM   31  C   UNL     1     -10.207   9.107  71.795  1.00  0.00    -0.235 A  
HETATM   32  S   UNL     1     -12.082   9.963  73.076  1.00  0.00     3.895 SA 
HETATM   33  N   UNL     1     -10.885   9.926  70.861  1.00  0.00    -0.321 NA 
HETATM   34  N   UNL     1     -10.706   9.042  73.038  1.00  0.00     1.220 NA 
HETATM   35  C   UNL     1     -11.946  10.448  71.432  1.00  0.00    -0.285 A  
BRANCH  35  36
HETATM   36  N   UNL     1     -12.841  11.287  70.854  1.00  0.00    -0.292 NA 
HETATM   37  H   UNL     1     -13.835  11.257  71.080  1.00  0.00     0.000 HD 
HETATM   38  P   UNL     1     -12.236  12.344  69.778  1.00  0.00     0.036 P  
HETATM   39  O   UNL     1     -13.365  13.484  69.753  1.00  0.00     0.954 OA 
HETATM   40  O   UNL     1     -11.049  13.149  70.487  1.00  0.00     0.671 OA 
HETATM   41  O   UNL     1     -11.894  11.874  68.404  1.00  0.00    -0.329 OA 
ENDBRANCH  35  36
ENDBRANCH  30  31
BRANCH  30  42
HETATM   42  N   UNL     1      -8.296   7.879  72.432  1.00  0.00    -0.126 NA 
HETATM   43  H   UNL     1      -7.973   8.428  73.228  1.00  0.00     0.000 HD 
BRANCH  42  44
HETATM   44  O   UNL     1      -8.056   6.503  72.300  1.00  0.00    -0.106 OA 
BRANCH  44  45
HETATM   45  C   UNL     1      -7.397   6.046  73.484  1.00  0.00    -0.089 C  
HETATM   46  C   UNL     1      -7.391   4.528  73.491  1.00  0.00    -0.081 C  
ENDBRANCH  44  45
ENDBRANCH  42  44
ENDBRANCH  30  42
ENDBRANCH  28  30
ENDBRANCH   6  26
TORSDOF 10
ENDMDL
MODEL      101
REMARK 921   NORMALIZED FREE ENERGY PREDICTED BY IDOCK:   12.03 KCAL/MOL
REMARK 922        TOTAL FREE ENERGY PREDICTED BY IDOCK:   17.26 KCAL/MOL
REMARK 923 INTER-LIGAND FREE ENERGY PREDICTED BY IDOCK:    9.14 KCAL/MOL
REMARK 924 INTRA-LIGAND FREE ENERGY PREDICTED BY IDOCK:    8.12 KCAL/MOL
REMARK 927      BINDING AFFINITY PREDICTED BY RF-SCORE:    0.00 PKD
ROOT
HETATM    1  C   UNL     1      -9.529   8.757  63.565  1.00  0.00     1.641 C  
HETATM    2  S   UNL     1      -7.863   9.446  63.598  1.00  0.00    -0.141 SA 
HETATM    3  C   UNL     1      -7.050   8.031  62.832  1.00  0.00    -0.088 C  
HETATM    4  C   UNL     1      -7.620   6.640  63.086  1.00  0.00    -0.088 C  
HETATM    5  CA  UNL     1      -8.773   6.401  63.763  1.00  0.00     0.565 C  
HETATM    6  CA  UNL     1     -10.511   9.210  64.698  1.00  0.00     3.325 C  
HETATM    7  O   UNL     1     -11.035   7.048  65.967  1.00  0.00     1.147 OA 
HETATM    8  C   UNL     1      -9.337   4.959  64.056  1.00  0.00     0.160 C  
HETATM    9  N   UNL     1      -9.503   7.470  64.212  1.00  0.00     2.193 N  
HETATM   10  C   UNL     1     -10.492   7.695  65.103  1.00  0.00     4.560 C  
HETATM   11  O   UNL     1     -10.550   4.807  63.699  1.00  0.00     0.506 OA 
HETATM   12  OXT UNL     1      -8.531   4.121  64.543  1.00  0.00    -0.102 OA 
ENDROOT
BRANCH   4  13
HETATM   13  S   UNL     1      -6.463   5.410  62.590  1.00  0.00    -0.025 SA 
BRANCH  13  14
HETATM   14  C   UNL     1      -6.337   4.353  63.972  1.00  0.00    -0.033 A  
HETATM   15  N   UNL     1      -7.138   4.346  65.017  1.00  0.00    -0.061 NA 
HETATM   16  C   UNL     1      -6.664   3.444  65.955  1.00  0.00    -0.041 A  
HETATM   17  S   UNL     1      -5.127   3.125  63.968  1.00  0.00    -0.009 SA 
HETATM   18  C   UNL     1      -5.605   2.662  65.540  1.00  0.00    -0.017 A  
BRANCH  16  19
HETATM   19  C   UNL     1      -7.259   3.346  67.278  1.00  0.00    -0.059 A  
HETATM   20  C   UNL     1      -8.633   3.481  67.474  1.00  0.00    -0.114 A  
HETATM   21  C   UNL     1      -9.151   3.406  68.760  1.00  0.00    -0.145 A  
HETATM   22  C   UNL     1      -8.902   3.172  71.181  1.00  0.00    -0.083 C  
HETATM   23  N   UNL     1      -8.342   3.201  69.822  1.00  0.00    -0.051 NA 
HETATM   24  C   UNL     1      -6.448   3.109  68.386  1.00  0.00    -0.036 A  
HETATM   25  C   UNL     1      -7.010   3.034  69.650  1.00  0.00    -0.041 A  
ENDBRANCH  16  19
ENDBRANCH  13  14
ENDBRANCH   4  13
BRANCH   6  26
HETATM   26  N   UNL     1     -10.015  10.146  65.758  1.00  0.00    -0.264 N  
HETATM   27  H   UNL     1     -10.011   9.843  66.732  1.00  0.00     0.000 HD 
HETATM   28  C   UNL     1      -9.565  11.412  65.441  1.00  0.00    -0.228 C  
HETATM   29  O   UNL     1      -9.675  11.902  64.323  1.00  0.00    -0.210 OA 
BRANCH  28  30
HETATM   30  C   UNL     1      -8.896  12.212  66.564  1.00  0.00    -0.151 C  
BRANCH  30  31
HETATM   31  C   UNL     1      -9.738  12.743  67.646  1.00  0.00    -0.205 A  
HETATM   32  S   UNL     1     -11.569  13.010  69.216  1.00  0.00    -0.310 SA 
HETATM   33  N   UNL     1      -9.334  13.856  68.422  1.00  0.00    -0.208 NA 
HETATM   34  N   UNL     1     -10.901  12.156  67.963  1.00  0.00    -0.213 NA 
HETATM   35  C   UNL     1     -10.260  14.120  69.316  1.00  0.00     0.039 A  
BRANCH  35  36
HETATM   36  N   UNL     1     -10.228  15.112  70.239  1.00  0.00    -0.510 NA 
HETATM   37  H   UNL     1      -9.406  15.701  70.371  1.00  0.00     0.000 HD 
HETATM   38  P   UNL     1     -11.576  15.308  71.124  1.00  0.00    -0.411 P  
HETATM   39  O   UNL     1     -11.426  16.819  71.638  1.00  0.00    -0.179 OA 
HETATM   40  O   UNL     1     -12.808  15.481  70.118  1.00  0.00    -0.299 OA 
HETATM   41  O   UNL     1     -11.857  14.366  72.247  1.00  0.00    -0.087 OA 
ENDBRANCH  35  36
ENDBRANCH  30  31
BRANCH  30  42
HETATM   42  N   UNL     1      -7.619  12.475  66.645  1.00  0.00    -0.347 NA 
HETATM   43  H   UNL     1      -7.181  13.266  66.172  1.00  0.00     0.000 HD 
BRANCH  42  44
HETATM   44  O   UNL     1      -6.907  11.567  67.442  1.00  0.00    -0.086 OA 
BRANCH  44  45
HETATM   45  C   UNL     1      -5.618  11.367  66.856  1.00  0.00    -0.118 C  
HETATM   46  C   UNL     1      -5.201   9.922  67.060  1.00  0.00    -0.041 C  
ENDBRANCH  44  45
ENDBRANCH  42  44
ENDBRANCH  30  42
ENDBRANCH  28  30
ENDBRANCH   6  26
TORSDOF 10
ENDMDL
MODEL      102
REMARK 921   NORMALIZED FREE ENERGY PREDICTED BY IDOCK:   14.15 KCAL/MOL
REMARK 922        TOTAL FREE ENERGY PREDICTED BY IDOCK:   20.61 KCAL/MOL
REMARK 923 INTER-LIGAND FREE ENERGY PREDICTED BY IDOCK:   16.69 KCAL/MOL
REMARK 924 INTRA-LIGAND FREE ENERGY PREDICTED BY IDOCK:    3.92 KCAL/MOL
REMARK 927      BINDING AFFINITY PREDICTED BY RF-SCORE:    0.00 PKD
ROOT
HETATM    1  C   UNL     1      -9.902  10.128  71.910  1.00  0.00     3.741 C  
HETATM    2  S   UNL     1     -11.596   9.603  71.589  1.00  0.00    -0.238 SA 
HETATM    3  C   UNL     1     -11.305   7.840  71.832  1.00  0.00    -0.270 C  
HETATM    4  C   UNL     1      -9.939   7.272  71.466  1.00  0.00    -0.182 C  
HETATM    5  CA  UNL     1      -8.881   8.026  71.073  1.00  0.00    -0.139 C  
HETATM    6  CA  UNL     1      -9.403  11.418  71.175  1.00  0.00     8.050 C  
HETATM    7  O   UNL     1      -7.493  10.586  69.686  1.00  0.00    -0.143 OA 
HETATM    8  C   UNL     1      -7.481   7.430  70.657  1.00  0.00    -0.078 C  
HETATM    9  N   UNL     1      -9.022   9.389  71.041  1.00  0.00    -0.150 N  
HETATM   10  C   UNL     1      -8.382  10.443  70.493  1.00  0.00     1.184 C  
HETATM   11  O   UNL     1      -6.502   7.959  71.276  1.00  0.00    -0.037 OA 
HETATM   12  OXT UNL     1      -7.491   6.481  69.829  1.00  0.00    -0.084 OA 
ENDROOT
BRANCH   4  13
HETATM   13  S   UNL     1     -10.009   5.515  71.402  1.00  0.00    -0.193 SA 
BRANCH  13  14
HETATM   14  C   UNL     1      -9.897   5.139  69.702  1.00  0.00    -0.216 A  
HETATM   15  N   UNL     1      -8.935   4.451  69.124  1.00  0.00    -0.096 NA 
HETATM   16  C   UNL     1      -9.131   4.447  67.752  1.00  0.00    -0.127 A  
HETATM   17  S   UNL     1     -11.190   5.609  68.662  1.00  0.00     0.725 SA 
HETATM   18  C   UNL     1     -10.326   4.992  67.325  1.00  0.00    -0.134 A  
BRANCH  16  19
HETATM   19  C   UNL     1      -8.134   3.900  66.847  1.00  0.00    -0.096 A  
HETATM   20  C   UNL     1      -8.495   3.233  65.677  1.00  0.00    -0.106 A  
HETATM   21  C   UNL     1      -7.507   2.704  64.858  1.00  0.00    -0.071 A  
HETATM   22  C   UNL     1      -5.171   2.222  64.324  1.00  0.00    -0.008 C  
HETATM   23  N   UNL     1      -6.202   2.830  65.178  1.00  0.00    -0.019 NA 
HETATM   24  C   UNL     1      -6.779   4.039  67.143  1.00  0.00    -0.047 A  
HETATM   25  C   UNL     1      -5.827   3.502  66.292  1.00  0.00    -0.023 A  
ENDBRANCH  16  19
ENDBRANCH  13  14
ENDBRANCH   4  13
BRANCH   6  26
HETATM   26  N   UNL     1     -10.329  12.118  70.227  1.00  0.00     1.515 N  
HETATM   27  H   UNL     1     -11.057  11.584  69.753  1.00  0.00     0.000 HD 
HETATM   28  C   UNL     1     -10.213  13.472  69.983  1.00  0.00     1.603 C  
HETATM   29  O   UNL     1      -9.279  14.150  70.395  1.00  0.00     1.892 OA 
BRANCH  28  30
HETATM   30  C   UNL     1     -11.327  14.125  69.158  1.00  0.00    -0.279 C  
BRANCH  30  31
HETATM   31  C   UNL     1     -10.983  14.711  67.854  1.00  0.00    -0.277 A  
HETATM   32  S   UNL     1     -11.045  15.261  65.491  1.00  0.00    -0.300 SA 
HETATM   33  N   UNL     1      -9.910  15.622  67.710  1.00  0.00    -0.220 NA 
HETATM   34  N   UNL     1     -11.710  14.433  66.762  1.00  0.00    -0.386 NA 
HETATM   35  C   UNL     1      -9.822  15.994  66.453  1.00  0.00    -0.288 A  
BRANCH  35  36
HETATM   36  N   UNL     1      -8.919  16.860  65.931  1.00  0.00    -0.529 NA 
HETATM   37  H   UNL     1      -9.129  17.432  65.113  1.00  0.00     0.000 HD 
HETATM   38  P   UNL     1      -7.481  16.931  66.683  1.00  0.00    -0.297 P  
HETATM   39  O   UNL     1      -6.930  18.365  66.222  1.00  0.00    -0.209 OA 
HETATM   40  O   UNL     1      -7.747  17.225  68.233  1.00  0.00    -0.215 OA 
HETATM   41  O   UNL     1      -6.478  15.851  66.449  1.00  0.00     0.157 OA 
ENDBRANCH  35  36
ENDBRANCH  30  31
BRANCH  30  42
HETATM   42  N   UNL     1     -12.579  14.215  69.519  1.00  0.00    -0.458 NA 
HETATM   43  H   UNL     1     -12.958  15.016  70.024  1.00  0.00     0.000 HD 
BRANCH  42  44
HETATM   44  O   UNL     1     -13.353  13.106  69.146  1.00  0.00     2.049 OA 
BRANCH  44  45
HETATM   45  C   UNL     1     -12.781  12.533  67.967  1.00  0.00     1.802 C  
HETATM   46  C   UNL     1     -12.045  11.261  68.343  1.00  0.00    -0.110 C  
ENDBRANCH  44  45
ENDBRANCH  42  44
ENDBRANCH  30  42
ENDBRANCH  28  30
ENDBRANCH   6  26
TORSDOF 10
ENDMDL
MODEL      103
REMARK 921   NORMALIZED FREE ENERGY PREDICTED BY IDOCK:   17.49 KCAL/MOL
REMARK 922        TOTAL FREE ENERGY PREDICTED BY IDOCK:   25.91 KCAL/MOL
REMARK 923 INTER-LIGAND FREE ENERGY PREDICTED BY IDOCK:   25.48 KCAL/MOL
REMARK 924 INTRA-LIGAND FREE ENERGY PREDICTED BY IDOCK:    0.43 KCAL/MOL
REMARK 927      BINDING AFFINITY PREDICTED BY RF-SCORE:    0.00 PKD
ROOT
HETATM    1  C   UNL     1      -9.649   8.762  63.464  1.00  0.00     2.085 C  
HETATM    2  S   UNL     1      -7.897   9.151  63.639  1.00  0.00    -0.145 SA 
HETATM    3  C   UNL     1      -7.282   7.572  63.024  1.00  0.00    -0.083 C  
HETATM    4  C   UNL     1      -8.113   6.319  63.277  1.00  0.00    -0.053 C  
HETATM    5  CA  UNL     1      -9.348   6.327  63.840  1.00  0.00     1.744 C  
HETATM    6  CA  UNL     1     -10.635   9.447  64.468  1.00  0.00     3.321 C  
HETATM    7  O   UNL     1     -11.656   7.491  65.768  1.00  0.00     4.461 OA 
HETATM    8  C   UNL     1     -10.187   5.025  64.137  1.00  0.00     0.974 C  
HETATM    9  N   UNL     1      -9.915   7.531  64.165  1.00  0.00     4.636 N  
HETATM   10  C   UNL     1     -10.927   7.980  64.938  1.00  0.00     8.707 C  
HETATM   11  O   UNL     1     -11.369   5.065  63.662  1.00  0.00     1.592 OA 
HETATM   12  OXT UNL     1      -9.595   4.091  64.740  1.00  0.00    -0.157 OA 
ENDROOT
BRANCH   4  13
HETATM   13  S   UNL     1      -7.154   4.879  62.958  1.00  0.00    -0.043 SA 
BRANCH  13  14
HETATM   14  C   UNL     1      -6.519   4.428  64.519  1.00  0.00    -0.039 A  
HETATM   15  N   UNL     1      -6.922   4.894  65.683  1.00  0.00    -0.061 NA 
HETATM   16  C   UNL     1      -6.117   4.384  66.688  1.00  0.00    -0.031 A  
HETATM   17  S   UNL     1      -5.320   3.191  64.600  1.00  0.00    -0.009 SA 
HETATM   18  C   UNL     1      -5.220   3.412  66.289  1.00  0.00    -0.009 A  
BRANCH  16  19
HETATM   19  C   UNL     1      -6.228   4.854  68.059  1.00  0.00    -0.035 A  
HETATM   20  C   UNL     1      -5.402   5.861  68.557  1.00  0.00    -0.007 A  
HETATM   21  C   UNL     1      -5.528   6.257  69.881  1.00  0.00    -0.014 A  
HETATM   22  C   UNL     1      -6.530   6.081  72.104  1.00  0.00    -0.058 C  
HETATM   23  N   UNL     1      -6.443   5.682  70.691  1.00  0.00    -0.034 NA 
HETATM   24  C   UNL     1      -7.182   4.295  68.907  1.00  0.00    -0.055 A  
HETATM   25  C   UNL     1      -7.278   4.727  70.220  1.00  0.00    -0.050 A  
ENDBRANCH  16  19
ENDBRANCH  13  14
ENDBRANCH   4  13
BRANCH   6  26
HETATM   26  N   UNL     1     -10.082  10.346  65.532  1.00  0.00    -0.287 N  
HETATM   27  H   UNL     1     -10.417  10.252  66.491  1.00  0.00     0.000 HD 
HETATM   28  C   UNL     1      -9.127  11.298  65.238  1.00  0.00    -0.126 C  
HETATM   29  O   UNL     1      -8.783  11.572  64.094  1.00  0.00     0.290 OA 
BRANCH  28  30
HETATM   30  C   UNL     1      -8.485  12.026  66.424  1.00  0.00     0.008 C  
BRANCH  30  31
HETATM   31  C   UNL     1      -9.330  12.892  67.259  1.00  0.00    -0.212 A  
HETATM   32  S   UNL     1     -11.123  13.654  68.706  1.00  0.00    -0.281 SA 
HETATM   33  N   UNL     1      -8.991  14.245  67.503  1.00  0.00    -0.187 NA 
HETATM   34  N   UNL     1     -10.431  12.413  67.855  1.00  0.00    -0.210 NA 
HETATM   35  C   UNL     1      -9.905  14.788  68.276  1.00  0.00    -0.222 A  
BRANCH  35  36
HETATM   36  N   UNL     1      -9.921  16.066  68.727  1.00  0.00    -0.215 NA 
HETATM   37  H   UNL     1      -9.303  16.384  69.473  1.00  0.00     0.000 HD 
HETATM   38  P   UNL     1     -10.986  17.062  68.009  1.00  0.00    -0.009 P  
HETATM   39  O   UNL     1     -10.365  18.506  68.329  1.00  0.00    -0.369 OA 
HETATM   40  O   UNL     1     -10.736  17.000  66.430  1.00  0.00    -0.214 OA 
HETATM   41  O   UNL     1     -12.428  16.984  68.384  1.00  0.00     1.412 OA 
ENDBRANCH  35  36
ENDBRANCH  30  31
BRANCH  30  42
HETATM   42  N   UNL     1      -7.226  11.946  66.765  1.00  0.00    -0.352 NA 
HETATM   43  H   UNL     1      -6.486  12.463  66.290  1.00  0.00     0.000 HD 
BRANCH  42  44
HETATM   44  O   UNL     1      -6.989  11.085  67.846  1.00  0.00    -0.071 OA 
BRANCH  44  45
HETATM   45  C   UNL     1      -5.873  11.587  68.585  1.00  0.00    -0.042 C  
HETATM   46  C   UNL     1      -5.958  13.101  68.640  1.00  0.00    -0.075 C  
ENDBRANCH  44  45
ENDBRANCH  42  44
ENDBRANCH  30  42
ENDBRANCH  28  30
ENDBRANCH   6  26
TORSDOF 10
ENDMDL
MODEL      104
REMARK 921   NORMALIZED FREE ENERGY PREDICTED BY IDOCK:   21.15 KCAL/MOL
REMARK 922        TOTAL FREE ENERGY PREDICTED BY IDOCK:   31.70 KCAL/MOL
REMARK 923 INTER-LIGAND FREE ENERGY PREDICTED BY IDOCK:   17.48 KCAL/MOL
REMARK 924 INTRA-LIGAND FREE ENERGY PREDICTED BY IDOCK:   14.22 KCAL/MOL
REMARK 927      BINDING AFFINITY PREDICTED BY RF-SCORE:    0.00 PKD
ROOT
HETATM    1  C   UNL     1      -7.813   9.747  66.257  1.00  0.00    -0.106 C  
HETATM    2  S   UNL     1      -9.348   8.902  66.679  1.00  0.00    -0.202 SA 
HETATM    3  C   UNL     1     -10.269   9.425  65.221  1.00  0.00     0.598 C  
HETATM    4  C   UNL     1      -9.948  10.784  64.607  1.00  0.00    -0.324 C  
HETATM    5  CA  UNL     1      -8.932  11.585  65.020  1.00  0.00     0.147 C  
HETATM    6  CA  UNL     1      -6.915  10.231  67.445  1.00  0.00    -0.082 C  
HETATM    7  O   UNL     1      -6.874  12.779  67.196  1.00  0.00    -0.122 OA 
HETATM    8  C   UNL     1      -8.630  13.006  64.409  1.00  0.00     3.984 C  
HETATM    9  N   UNL     1      -8.108  11.137  66.018  1.00  0.00    -0.113 N  
HETATM   10  C   UNL     1      -7.208  11.663  66.877  1.00  0.00    -0.125 C  
HETATM   11  O   UNL     1      -7.420  13.151  64.039  1.00  0.00     9.483 OA 
HETATM   12  OXT UNL     1      -9.603  13.799  64.301  1.00  0.00     0.355 OA 
ENDROOT
BRANCH   4  13
HETATM   13  S   UNL     1     -11.210  11.252  63.474  1.00  0.00     0.141 SA 
BRANCH  13  14
HETATM   14  C   UNL     1     -11.685  12.849  63.989  1.00  0.00    -0.434 A  
HETATM   15  N   UNL     1     -10.895  13.899  64.082  1.00  0.00    -0.146 NA 
HETATM   16  C   UNL     1     -11.601  14.960  64.624  1.00  0.00    -0.395 A  
HETATM   17  S   UNL     1     -13.349  13.151  64.325  1.00  0.00     1.436 SA 
HETATM   18  C   UNL     1     -12.957  14.749  64.781  1.00  0.00     0.465 A  
BRANCH  16  19
HETATM   19  C   UNL     1     -10.939  16.201  64.991  1.00  0.00    -0.357 A  
HETATM   20  C   UNL     1     -11.344  17.429  64.471  1.00  0.00     1.535 A  
HETATM   21  C   UNL     1     -10.662  18.584  64.831  1.00  0.00     1.741 A  
HETATM   22  C   UNL     1      -8.874  19.758  66.014  1.00  0.00    -0.258 C  
HETATM   23  N   UNL     1      -9.614  18.532  65.681  1.00  0.00    -0.219 NA 
HETATM   24  C   UNL     1      -9.871  16.177  65.887  1.00  0.00    -0.384 A  
HETATM   25  C   UNL     1      -9.225  17.355  66.224  1.00  0.00    -0.208 A  
ENDBRANCH  16  19
ENDBRANCH  13  14
ENDBRANCH   4  13
BRANCH   6  26
HETATM   26  N   UNL     1      -7.386  10.007  68.851  1.00  0.00    -0.076 N  
HETATM   27  H   UNL     1      -6.709  10.019  69.613  1.00  0.00     0.000 HD 
HETATM   28  C   UNL     1      -8.719   9.785  69.131  1.00  0.00    -0.155 C  
HETATM   29  O   UNL     1      -9.566   9.609  68.264  1.00  0.00    -0.139 OA 
BRANCH  28  30
HETATM   30  C   UNL     1      -9.123   9.768  70.610  1.00  0.00     0.103 C  
BRANCH  30  31
HETATM   31  C   UNL     1     -10.500  10.139  70.966  1.00  0.00     0.396 A  
HETATM   32  S   UNL     1     -12.778  10.008  71.793  1.00  0.00    -0.424 SA 
HETATM   33  N   UNL     1     -10.985  11.456  70.778  1.00  0.00     1.172 NA 
HETATM   34  N   UNL     1     -11.330   9.248  71.527  1.00  0.00    -0.361 NA 
HETATM   35  C   UNL     1     -12.234  11.519  71.178  1.00  0.00    -0.182 A  
BRANCH  35  36
HETATM   36  N   UNL     1     -13.032  12.615  71.156  1.00  0.00    -0.220 NA 
HETATM   37  H   UNL     1     -13.795  12.714  70.486  1.00  0.00     0.000 HD 
HETATM   38  P   UNL     1     -12.702  13.760  72.259  1.00  0.00    -0.041 P  
HETATM   39  O   UNL     1     -14.092  14.557  72.345  1.00  0.00    -0.471 OA 
HETATM   40  O   UNL     1     -12.692  13.071  73.703  1.00  0.00     2.173 OA 
HETATM   41  O   UNL     1     -11.549  14.682  72.035  1.00  0.00    -0.210 OA 
ENDBRANCH  35  36
ENDBRANCH  30  31
BRANCH  30  42
HETATM   42  N   UNL     1      -8.335   9.451  71.602  1.00  0.00    -0.165 NA 
HETATM   43  H   UNL     1      -8.109  10.093  72.362  1.00  0.00     0.000 HD 
BRANCH  42  44
HETATM   44  O   UNL     1      -7.831   8.144  71.526  1.00  0.00    -0.091 OA 
BRANCH  44  45
HETATM   45  C   UNL     1      -8.457   7.484  70.422  1.00  0.00    -0.141 C  
HETATM   46  C   UNL     1      -7.725   6.184  70.145  1.00  0.00    -0.097 C  
ENDBRANCH  44  45
ENDBRANCH  42  44
ENDBRANCH  30  42
ENDBRANCH  28  30
ENDBRANCH   6  26
TORSDOF 10
ENDMDL
MODEL      105
REMARK 921   NORMALIZED FREE ENERGY PREDICTED BY IDOCK:   21.42 KCAL/MOL
REMARK 922        TOTAL FREE ENERGY PREDICTED BY IDOCK:   32.13 KCAL/MOL
REMARK 923 INTER-LIGAND FREE ENERGY PREDICTED BY IDOCK:   33.28 KCAL/MOL
REMARK 924 INTRA-LIGAND FREE ENERGY PREDICTED BY IDOCK:   -1.15 KCAL/MOL
REMARK 927      BINDING AFFINITY PREDICTED BY RF-SCORE:    0.00 PKD
ROOT
HETATM    1  C   UNL     1      -9.119  11.339  66.983  1.00  0.00    -0.163 C  
HETATM    2  S   UNL     1      -8.617  11.662  68.685  1.00  0.00    -0.027 SA 
HETATM    3  C   UNL     1      -7.784  13.226  68.350  1.00  0.00    -0.138 C  
HETATM    4  C   UNL     1      -7.106  13.414  66.997  1.00  0.00     0.451 C  
HETATM    5  CA  UNL     1      -7.183  12.521  65.977  1.00  0.00     2.190 C  
HETATM    6  CA  UNL     1      -9.248   9.839  66.550  1.00  0.00    -0.156 C  
HETATM    7  O   UNL     1      -7.482   9.568  64.716  1.00  0.00    -0.104 OA 
HETATM    8  C   UNL     1      -6.447  12.701  64.594  1.00  0.00     9.374 C  
HETATM    9  N   UNL     1      -7.950  11.398  66.143  1.00  0.00    -0.048 N  
HETATM   10  C   UNL     1      -8.090  10.192  65.554  1.00  0.00    -0.147 C  
HETATM   11  O   UNL     1      -7.221  12.580  63.589  1.00  0.00     5.442 OA 
HETATM   12  OXT UNL     1      -5.224  12.998  64.634  1.00  0.00     7.444 OA 
ENDROOT
BRANCH   4  13
HETATM   13  S   UNL     1      -6.040  14.812  67.041  1.00  0.00     1.386 SA 
BRANCH  13  14
HETATM   14  C   UNL     1      -7.095  16.149  67.419  1.00  0.00    -0.177 A  
HETATM   15  N   UNL     1      -7.983  16.687  66.609  1.00  0.00    -0.248 NA 
HETATM   16  C   UNL     1      -8.556  17.790  67.221  1.00  0.00    -0.233 A  
HETATM   17  S   UNL     1      -7.076  16.793  69.019  1.00  0.00    -0.218 SA 
HETATM   18  C   UNL     1      -8.214  17.975  68.546  1.00  0.00    -0.303 A  
BRANCH  16  19
HETATM   19  C   UNL     1      -9.453  18.676  66.498  1.00  0.00    -0.331 A  
HETATM   20  C   UNL     1      -9.822  19.920  67.008  1.00  0.00    -0.540 A  
HETATM   21  C   UNL     1     -10.704  20.719  66.292  1.00  0.00     1.249 A  
HETATM   22  C   UNL     1     -12.173  21.146  64.386  1.00  0.00     5.959 C  
HETATM   23  N   UNL     1     -11.205  20.308  65.107  1.00  0.00     0.137 NA 
HETATM   24  C   UNL     1      -9.963  18.285  65.261  1.00  0.00     1.162 A  
HETATM   25  C   UNL     1     -10.834  19.118  64.578  1.00  0.00     3.593 A  
ENDBRANCH  16  19
ENDBRANCH  13  14
ENDBRANCH   4  13
BRANCH   6  26
HETATM   26  N   UNL     1      -8.914   8.765  67.542  1.00  0.00    -0.134 N  
HETATM   27  H   UNL     1      -8.136   8.903  68.186  1.00  0.00     0.000 HD 
HETATM   28  C   UNL     1      -9.642   7.593  67.597  1.00  0.00    -0.145 C  
HETATM   29  O   UNL     1     -10.490   7.290  66.767  1.00  0.00    -0.286 OA 
BRANCH  28  30
HETATM   30  C   UNL     1      -9.350   6.652  68.771  1.00  0.00    -0.131 C  
BRANCH  30  31
HETATM   31  C   UNL     1     -10.066   6.865  70.038  1.00  0.00    -0.182 A  
HETATM   32  S   UNL     1     -11.101   7.961  71.939  1.00  0.00    -0.285 SA 
HETATM   33  N   UNL     1     -10.608   5.784  70.773  1.00  0.00    -0.256 NA 
HETATM   34  N   UNL     1     -10.268   8.102  70.514  1.00  0.00    -0.196 NA 
HETATM   35  C   UNL     1     -11.195   6.247  71.854  1.00  0.00    -0.283 A  
BRANCH  35  36
HETATM   36  N   UNL     1     -11.829   5.514  72.802  1.00  0.00    -0.481 NA 
HETATM   37  H   UNL     1     -12.759   5.759  73.143  1.00  0.00     0.000 HD 
HETATM   38  P   UNL     1     -11.021   4.222  73.365  1.00  0.00    -0.256 P  
HETATM   39  O   UNL     1     -12.203   3.319  73.965  1.00  0.00     0.821 OA 
HETATM   40  O   UNL     1     -10.594   3.321  72.114  1.00  0.00     0.010 OA 
HETATM   41  O   UNL     1      -9.920   4.421  74.354  1.00  0.00    -0.146 OA 
ENDBRANCH  35  36
ENDBRANCH  30  31
BRANCH  30  42
HETATM   42  N   UNL     1      -8.501   5.659  68.748  1.00  0.00    -0.102 NA 
HETATM   43  H   UNL     1      -7.831   5.480  69.496  1.00  0.00     0.000 HD 
BRANCH  42  44
HETATM   44  O   UNL     1      -8.598   4.862  67.598  1.00  0.00    -0.104 OA 
BRANCH  44  45
HETATM   45  C   UNL     1      -7.610   3.832  67.680  1.00  0.00    -0.067 C  
HETATM   46  C   UNL     1      -7.115   3.734  69.111  1.00  0.00    -0.046 C  
ENDBRANCH  44  45
ENDBRANCH  42  44
ENDBRANCH  30  42
ENDBRANCH  28  30
ENDBRANCH   6  26
TORSDOF 10
ENDMDL
MODEL      106
REMARK 921   NORMALIZED FREE ENERGY PREDICTED BY IDOCK:   22.04 KCAL/MOL
REMARK 922        TOTAL FREE ENERGY PREDICTED BY IDOCK:   33.12 KCAL/MOL
REMARK 923 INTER-LIGAND FREE ENERGY PREDICTED BY IDOCK:   33.44 KCAL/MOL
REMARK 924 INTRA-LIGAND FREE ENERGY PREDICTED BY IDOCK:   -0.32 KCAL/MOL
REMARK 927      BINDING AFFINITY PREDICTED BY RF-SCORE:    0.00 PKD
ROOT
HETATM    1  C   UNL     1      -9.769   8.761  63.388  1.00  0.00     2.627 C  
HETATM    2  S   UNL     1      -8.148   9.391  63.862  1.00  0.00    -0.167 SA 
HETATM    3  C   UNL     1      -7.248   7.855  63.573  1.00  0.00    -0.086 C  
HETATM    4  C   UNL     1      -7.974   6.533  63.802  1.00  0.00    -0.076 C  
HETATM    5  CA  UNL     1      -9.294   6.432  64.102  1.00  0.00     1.751 C  
HETATM    6  CA  UNL     1     -11.016   9.402  64.087  1.00  0.00     6.183 C  
HETATM    7  O   UNL     1     -12.071   7.459  65.379  1.00  0.00     8.464 OA 
HETATM    8  C   UNL     1     -10.031   5.065  64.376  1.00  0.00     0.624 C  
HETATM    9  N   UNL     1     -10.044   7.577  64.162  1.00  0.00     5.401 N  
HETATM   10  C   UNL     1     -11.239   7.959  64.659  1.00  0.00    12.384 C  
HETATM   11  O   UNL     1     -11.081   4.906  63.674  1.00  0.00     1.034 OA 
HETATM   12  OXT UNL     1      -9.482   4.276  65.191  1.00  0.00    -0.153 OA 
ENDROOT
BRANCH   4  13
HETATM   13  S   UNL     1      -6.819   5.207  63.853  1.00  0.00    -0.048 SA 
BRANCH  13  14
HETATM   14  C   UNL     1      -6.497   4.979  65.553  1.00  0.00    -0.036 A  
HETATM   15  N   UNL     1      -7.196   5.486  66.547  1.00  0.00    -0.076 NA 
HETATM   16  C   UNL     1      -6.580   5.174  67.748  1.00  0.00    -0.050 A  
HETATM   17  S   UNL     1      -5.217   3.922  66.019  1.00  0.00    -0.009 SA 
HETATM   18  C   UNL     1      -5.517   4.298  67.657  1.00  0.00    -0.016 A  
BRANCH  16  19
HETATM   19  C   UNL     1      -7.042   5.742  69.004  1.00  0.00    -0.069 A  
HETATM   20  C   UNL     1      -7.752   4.982  69.933  1.00  0.00    -0.060 A  
HETATM   21  C   UNL     1      -8.195   5.577  71.107  1.00  0.00    -0.120 A  
HETATM   22  C   UNL     1      -8.463   7.504  72.587  1.00  0.00    -0.117 C  
HETATM   23  N   UNL     1      -7.945   6.879  71.361  1.00  0.00    -0.107 NA 
HETATM   24  C   UNL     1      -6.773   7.077  69.301  1.00  0.00    -0.049 A  
HETATM   25  C   UNL     1      -7.229   7.626  70.489  1.00  0.00    -0.062 A  
ENDBRANCH  16  19
ENDBRANCH  13  14
ENDBRANCH   4  13
BRANCH   6  26
HETATM   26  N   UNL     1     -10.802  10.461  65.127  1.00  0.00     0.179 N  
HETATM   27  H   UNL     1     -11.227  10.351  66.047  1.00  0.00     0.000 HD 
HETATM   28  C   UNL     1     -10.040  11.581  64.860  1.00  0.00    -0.268 C  
HETATM   29  O   UNL     1      -9.622  11.857  63.742  1.00  0.00    -0.215 OA 
BRANCH  28  30
HETATM   30  C   UNL     1      -9.719  12.498  66.045  1.00  0.00    -0.241 C  
BRANCH  30  31
HETATM   31  C   UNL     1     -10.097  13.917  65.958  1.00  0.00    -0.313 A  
HETATM   32  S   UNL     1     -11.265  15.953  65.342  1.00  0.00    -0.023 SA 
HETATM   33  N   UNL     1      -9.421  14.911  66.705  1.00  0.00    -0.239 NA 
HETATM   34  N   UNL     1     -11.129  14.309  65.197  1.00  0.00    -0.333 NA 
HETATM   35  C   UNL     1      -9.955  16.084  66.448  1.00  0.00    -0.295 A  
BRANCH  35  36
HETATM   36  N   UNL     1      -9.577  17.274  66.977  1.00  0.00    -0.254 NA 
HETATM   37  H   UNL     1      -9.489  18.115  66.407  1.00  0.00     0.000 HD 
HETATM   38  P   UNL     1      -9.272  17.280  68.573  1.00  0.00    -0.252 P  
HETATM   39  O   UNL     1      -9.436  18.833  68.941  1.00  0.00    -0.336 OA 
HETATM   40  O   UNL     1     -10.552  16.683  69.324  1.00  0.00    -0.308 OA 
HETATM   41  O   UNL     1      -7.979  16.726  69.073  1.00  0.00    -0.238 OA 
ENDBRANCH  35  36
ENDBRANCH  30  31
BRANCH  30  42
HETATM   42  N   UNL     1      -9.124  12.127  67.146  1.00  0.00    -0.183 NA 
HETATM   43  H   UNL     1      -9.070  12.715  67.978  1.00  0.00     0.000 HD 
BRANCH  42  44
HETATM   44  O   UNL     1      -8.565  10.842  67.078  1.00  0.00    -0.132 OA 
BRANCH  44  45
HETATM   45  C   UNL     1      -8.847  10.162  68.304  1.00  0.00    -0.124 C  
HETATM   46  C   UNL     1      -9.301   8.748  67.991  1.00  0.00    -0.153 C  
ENDBRANCH  44  45
ENDBRANCH  42  44
ENDBRANCH  30  42
ENDBRANCH  28  30
ENDBRANCH   6  26
TORSDOF 10
ENDMDL
MODEL      107
REMARK 921   NORMALIZED FREE ENERGY PREDICTED BY IDOCK:   23.20 KCAL/MOL
REMARK 922        TOTAL FREE ENERGY PREDICTED BY IDOCK:   34.95 KCAL/MOL
REMARK 923 INTER-LIGAND FREE ENERGY PREDICTED BY IDOCK:   36.34 KCAL/MOL
REMARK 924 INTRA-LIGAND FREE ENERGY PREDICTED BY IDOCK:   -1.39 KCAL/MOL
REMARK 927      BINDING AFFINITY PREDICTED BY RF-SCORE:    0.00 PKD
ROOT
HETATM    1  C   UNL     1      -8.816  11.335  67.731  1.00  0.00    -0.141 C  
HETATM    2  S   UNL     1      -8.423  11.528  69.481  1.00  0.00     1.056 SA 
HETATM    3  C   UNL     1      -7.816  13.221  69.361  1.00  0.00     0.662 C  
HETATM    4  C   UNL     1      -7.128  13.657  68.072  1.00  0.00    -0.132 C  
HETATM    5  CA  UNL     1      -7.040  12.886  66.958  1.00  0.00     0.201 C  
HETATM    6  CA  UNL     1      -8.711   9.893  67.131  1.00  0.00    -0.131 C  
HETATM    7  O   UNL     1      -6.864  10.086  65.368  1.00  0.00    -0.108 OA 
HETATM    8  C   UNL     1      -6.292  13.326  65.641  1.00  0.00     7.582 C  
HETATM    9  N   UNL     1      -7.641  11.655  66.962  1.00  0.00    -0.151 N  
HETATM   10  C   UNL     1      -7.584  10.517  66.238  1.00  0.00    -0.133 C  
HETATM   11  O   UNL     1      -7.006  13.214  64.592  1.00  0.00    10.011 OA 
HETATM   12  OXT UNL     1      -5.127  13.785  65.774  1.00  0.00     5.095 OA 
ENDROOT
BRANCH   4  13
HETATM   13  S   UNL     1      -6.279  15.177  68.321  1.00  0.00    -0.131 SA 
BRANCH  13  14
HETATM   14  C   UNL     1      -7.548  16.342  68.598  1.00  0.00    -0.197 A  
HETATM   15  N   UNL     1      -8.375  16.815  67.690  1.00  0.00    -0.181 NA 
HETATM   16  C   UNL     1      -9.174  17.794  68.259  1.00  0.00    -0.280 A  
HETATM   17  S   UNL     1      -7.845  16.877  70.210  1.00  0.00     2.822 SA 
HETATM   18  C   UNL     1      -9.052  17.933  69.627  1.00  0.00     0.900 A  
BRANCH  16  19
HETATM   19  C   UNL     1     -10.069  18.604  67.450  1.00  0.00    -0.397 A  
HETATM   20  C   UNL     1     -10.747  19.700  67.983  1.00  0.00    -0.333 A  
HETATM   21  C   UNL     1     -11.613  20.427  67.177  1.00  0.00     2.206 A  
HETATM   22  C   UNL     1     -12.761  20.840  65.059  1.00  0.00     8.178 C  
HETATM   23  N   UNL     1     -11.805  20.088  65.885  1.00  0.00     1.547 NA 
HETATM   24  C   UNL     1     -10.264  18.290  66.106  1.00  0.00    -0.393 A  
HETATM   25  C   UNL     1     -11.132  19.048  65.338  1.00  0.00     0.585 A  
ENDBRANCH  16  19
ENDBRANCH  13  14
ENDBRANCH   4  13
BRANCH   6  26
HETATM   26  N   UNL     1      -8.258   8.769  68.014  1.00  0.00    -0.117 N  
HETATM   27  H   UNL     1      -7.569   8.951  68.743  1.00  0.00     0.000 HD 
HETATM   28  C   UNL     1      -8.759   7.492  67.859  1.00  0.00    -0.124 C  
HETATM   29  O   UNL     1      -9.473   7.161  66.921  1.00  0.00    -0.145 OA 
BRANCH  28  30
HETATM   30  C   UNL     1      -8.385   6.466  68.935  1.00  0.00    -0.121 C  
BRANCH  30  31
HETATM   31  C   UNL     1      -9.255   6.333  70.112  1.00  0.00    -0.157 A  
HETATM   32  S   UNL     1     -10.282   5.452  72.127  1.00  0.00    -0.209 SA 
HETATM   33  N   UNL     1     -10.179   7.345  70.469  1.00  0.00    -0.192 NA 
HETATM   34  N   UNL     1      -9.168   5.263  70.916  1.00  0.00    -0.143 NA 
HETATM   35  C   UNL     1     -10.822   6.980  71.555  1.00  0.00    -0.230 A  
BRANCH  35  36
HETATM   36  N   UNL     1     -11.782   7.690  72.198  1.00  0.00    -0.297 NA 
HETATM   37  H   UNL     1     -11.698   7.944  73.182  1.00  0.00     0.000 HD 
HETATM   38  P   UNL     1     -13.075   8.111  71.309  1.00  0.00     0.014 P  
HETATM   39  O   UNL     1     -13.667   9.350  72.138  1.00  0.00    -0.427 OA 
HETATM   40  O   UNL     1     -12.552   8.877  70.005  1.00  0.00     0.784 OA 
HETATM   41  O   UNL     1     -14.124   7.090  71.014  1.00  0.00    -0.137 OA 
ENDBRANCH  35  36
ENDBRANCH  30  31
BRANCH  30  42
HETATM   42  N   UNL     1      -7.338   5.686  68.900  1.00  0.00    -0.080 NA 
HETATM   43  H   UNL     1      -6.464   5.903  69.380  1.00  0.00     0.000 HD 
BRANCH  42  44
HETATM   44  O   UNL     1      -7.529   4.521  68.142  1.00  0.00    -0.065 OA 
BRANCH  44  45
HETATM   45  C   UNL     1      -6.812   4.661  66.913  1.00  0.00    -0.055 C  
HETATM   46  C   UNL     1      -7.703   4.216  65.768  1.00  0.00    -0.090 C  
ENDBRANCH  44  45
ENDBRANCH  42  44
ENDBRANCH  30  42
ENDBRANCH  28  30
ENDBRANCH   6  26
TORSDOF 10
ENDMDL
MODEL      108
REMARK 921   NORMALIZED FREE ENERGY PREDICTED BY IDOCK:   33.59 KCAL/MOL
REMARK 922        TOTAL FREE ENERGY PREDICTED BY IDOCK:   51.42 KCAL/MOL
REMARK 923 INTER-LIGAND FREE ENERGY PREDICTED BY IDOCK:   44.13 KCAL/MOL
REMARK 924 INTRA-LIGAND FREE ENERGY PREDICTED BY IDOCK:    7.29 KCAL/MOL
REMARK 927      BINDING AFFINITY PREDICTED BY RF-SCORE:    0.00 PKD
ROOT
HETATM    1  C   UNL     1     -13.076  15.613  71.942  1.00  0.00    -0.464 C  
HETATM    2  S   UNL     1     -12.935  16.140  70.223  1.00  0.00     1.781 SA 
HETATM    3  C   UNL     1     -13.492  14.588  69.495  1.00  0.00     2.074 C  
HETATM    4  C   UNL     1     -13.179  13.287  70.228  1.00  0.00     0.700 C  
HETATM    5  CA  UNL     1     -12.603  13.225  71.456  1.00  0.00    -0.214 C  
HETATM    6  CA  UNL     1     -12.090  16.263  72.970  1.00  0.00    -0.530 C  
HETATM    7  O   UNL     1     -10.700  14.292  73.830  1.00  0.00     2.750 OA 
HETATM    8  C   UNL     1     -12.246  11.878  72.192  1.00  0.00     1.491 C  
HETATM    9  N   UNL     1     -12.322  14.396  72.110  1.00  0.00    -0.265 N  
HETATM   10  C   UNL     1     -11.558  14.799  73.147  1.00  0.00     0.172 C  
HETATM   11  O   UNL     1     -12.709  11.809  73.377  1.00  0.00     4.149 OA 
HETATM   12  OXT UNL     1     -11.611  11.017  71.526  1.00  0.00     0.379 OA 
ENDROOT
BRANCH   4  13
HETATM   13  S   UNL     1     -13.449  11.912  69.165  1.00  0.00     5.019 SA 
BRANCH  13  14
HETATM   14  C   UNL     1     -11.846  11.344  68.775  1.00  0.00    -0.323 A  
HETATM   15  N   UNL     1     -11.434  10.944  67.590  1.00  0.00    -0.518 NA 
HETATM   16  C   UNL     1     -10.136  10.469  67.690  1.00  0.00    -0.179 A  
HETATM   17  S   UNL     1     -10.631  11.387  69.999  1.00  0.00     0.865 SA 
HETATM   18  C   UNL     1      -9.527  10.669  68.913  1.00  0.00    -0.192 A  
BRANCH  16  19
HETATM   19  C   UNL     1      -9.483   9.812  66.570  1.00  0.00    -0.228 A  
HETATM   20  C   UNL     1      -9.980   9.914  65.271  1.00  0.00    -0.320 A  
HETATM   21  C   UNL     1      -9.336   9.245  64.238  1.00  0.00     0.229 A  
HETATM   22  C   UNL     1      -7.594   7.763  63.378  1.00  0.00    -0.123 C  
HETATM   23  N   UNL     1      -8.235   8.502  64.475  1.00  0.00    -0.162 NA 
HETATM   24  C   UNL     1      -8.330   9.060  66.785  1.00  0.00    -0.115 A  
HETATM   25  C   UNL     1      -7.716   8.416  65.723  1.00  0.00    -0.094 A  
ENDBRANCH  16  19
ENDBRANCH  13  14
ENDBRANCH   4  13
BRANCH   6  26
HETATM   26  N   UNL     1     -11.069  17.245  72.478  1.00  0.00     1.230 N  
HETATM   27  H   UNL     1     -10.153  17.280  72.924  1.00  0.00     0.000 HD 
HETATM   28  C   UNL     1     -11.347  18.102  71.433  1.00  0.00     3.859 C  
HETATM   29  O   UNL     1     -12.464  18.224  70.945  1.00  0.00    10.086 OA 
BRANCH  28  30
HETATM   30  C   UNL     1     -10.177  18.922  70.878  1.00  0.00     2.395 C  
BRANCH  30  31
HETATM   31  C   UNL     1      -9.814  18.760  69.463  1.00  0.00     0.197 A  
HETATM   32  S   UNL     1      -8.723  19.069  67.317  1.00  0.00    -0.282 SA 
HETATM   33  N   UNL     1     -10.408  17.761  68.655  1.00  0.00    -0.367 NA 
HETATM   34  N   UNL     1      -8.870  19.529  68.902  1.00  0.00    -0.322 NA 
HETATM   35  C   UNL     1      -9.908  17.830  67.442  1.00  0.00    -0.311 A  
BRANCH  35  36
HETATM   36  N   UNL     1     -10.230  17.035  66.392  1.00  0.00    -0.319 NA 
HETATM   37  H   UNL     1     -10.904  17.323  65.683  1.00  0.00     0.000 HD 
HETATM   38  P   UNL     1      -9.479  15.596  66.330  1.00  0.00    -0.347 P  
HETATM   39  O   UNL     1      -9.618  15.209  64.779  1.00  0.00     0.116 OA 
HETATM   40  O   UNL     1      -7.903  15.854  66.409  1.00  0.00    -0.215 OA 
HETATM   41  O   UNL     1      -9.943  14.490  67.220  1.00  0.00    -0.233 OA 
ENDBRANCH  35  36
ENDBRANCH  30  31
BRANCH  30  42
HETATM   42  N   UNL     1      -9.455  19.765  71.566  1.00  0.00     1.882 NA 
HETATM   43  H   UNL     1      -9.846  20.387  72.274  1.00  0.00     0.000 HD 
BRANCH  42  44
HETATM   44  O   UNL     1      -8.091  19.734  71.242  1.00  0.00     1.800 OA 
BRANCH  44  45
HETATM   45  C   UNL     1      -7.338  19.743  72.457  1.00  0.00     2.559 C  
HETATM   46  C   UNL     1      -6.960  18.317  72.815  1.00  0.00     6.517 C  
ENDBRANCH  44  45
ENDBRANCH  42  44
ENDBRANCH  30  42
ENDBRANCH  28  30
ENDBRANCH   6  26
TORSDOF 10
ENDMDL
MODEL      109
REMARK 921   NORMALIZED FREE ENERGY PREDICTED BY IDOCK:   52.72 KCAL/MOL
REMARK 922        TOTAL FREE ENERGY PREDICTED BY IDOCK:   81.74 KCAL/MOL
REMARK 923 INTER-LIGAND FREE ENERGY PREDICTED BY IDOCK:   81.76 KCAL/MOL
REMARK 924 INTRA-LIGAND FREE ENERGY PREDICTED BY IDOCK:   -0.03 KCAL/MOL
REMARK 927      BINDING AFFINITY PREDICTED BY RF-SCORE:    0.00 PKD
ROOT
HETATM    1  C   UNL     1      -8.974  12.162  67.075  1.00  0.00    -0.201 C  
HETATM    2  S   UNL     1      -8.581  12.354  68.824  1.00  0.00     0.258 SA 
HETATM    3  C   UNL     1      -7.974  14.048  68.704  1.00  0.00    -0.122 C  
HETATM    4  C   UNL     1      -7.286  14.484  67.415  1.00  0.00    -0.137 C  
HETATM    5  CA  UNL     1      -7.197  13.713  66.301  1.00  0.00     3.076 C  
HETATM    6  CA  UNL     1      -8.868  10.719  66.475  1.00  0.00    -0.155 C  
HETATM    7  O   UNL     1      -7.022  10.913  64.711  1.00  0.00     0.205 OA 
HETATM    8  C   UNL     1      -6.450  14.153  64.984  1.00  0.00    15.978 C  
HETATM    9  N   UNL     1      -7.798  12.482  66.305  1.00  0.00     0.634 N  
HETATM   10  C   UNL     1      -7.741  11.343  65.581  1.00  0.00     0.435 C  
HETATM   11  O   UNL     1      -7.164  14.041  63.935  1.00  0.00    16.374 OA 
HETATM   12  OXT UNL     1      -5.284  14.612  65.117  1.00  0.00    10.875 OA 
ENDROOT
BRANCH   4  13
HETATM   13  S   UNL     1      -6.436  16.004  67.665  1.00  0.00    -0.177 SA 
BRANCH  13  14
HETATM   14  C   UNL     1      -7.463  16.900  68.755  1.00  0.00    -0.237 A  
HETATM   15  N   UNL     1      -8.617  17.456  68.449  1.00  0.00    -0.264 NA 
HETATM   16  C   UNL     1      -9.088  18.167  69.541  1.00  0.00     0.626 A  
HETATM   17  S   UNL     1      -7.012  17.009  70.416  1.00  0.00     1.983 SA 
HETATM   18  C   UNL     1      -8.368  18.004  70.708  1.00  0.00     5.487 A  
BRANCH  16  19
HETATM   19  C   UNL     1     -10.263  19.017  69.439  1.00  0.00     0.133 A  
HETATM   20  C   UNL     1     -10.645  19.864  70.479  1.00  0.00     1.686 A  
HETATM   21  C   UNL     1     -11.791  20.637  70.345  1.00  0.00     7.234 A  
HETATM   22  C   UNL     1     -13.773  21.370  69.117  1.00  0.00     6.151 C  
HETATM   23  N   UNL     1     -12.538  20.580  69.222  1.00  0.00     6.058 NA 
HETATM   24  C   UNL     1     -11.036  18.995  68.280  1.00  0.00     0.266 A  
HETATM   25  C   UNL     1     -12.167  19.789  68.187  1.00  0.00     4.053 A  
ENDBRANCH  16  19
ENDBRANCH  13  14
ENDBRANCH   4  13
BRANCH   6  26
HETATM   26  N   UNL     1      -8.416   9.596  67.358  1.00  0.00    -0.125 N  
HETATM   27  H   UNL     1      -7.726   9.778  68.086  1.00  0.00     0.000 HD 
HETATM   28  C   UNL     1      -8.916   8.319  67.203  1.00  0.00    -0.138 C  
HETATM   29  O   UNL     1      -9.631   7.988  66.264  1.00  0.00    -0.206 OA 
BRANCH  28  30
HETATM   30  C   UNL     1      -8.542   7.292  68.278  1.00  0.00    -0.123 C  
BRANCH  30  31
HETATM   31  C   UNL     1      -9.413   7.160  69.456  1.00  0.00    -0.151 A  
HETATM   32  S   UNL     1     -10.600   7.675  71.508  1.00  0.00    -0.213 SA 
HETATM   33  N   UNL     1     -10.168   5.986  69.691  1.00  0.00    -0.191 NA 
HETATM   34  N   UNL     1      -9.554   8.172  70.324  1.00  0.00    -0.170 NA 
HETATM   35  C   UNL     1     -10.857   6.129  70.800  1.00  0.00    -0.288 A  
BRANCH  35  36
HETATM   36  N   UNL     1     -11.698   5.218  71.349  1.00  0.00     0.702 NA 
HETATM   37  H   UNL     1     -12.069   4.433  70.813  1.00  0.00     0.000 HD 
HETATM   38  P   UNL     1     -12.080   5.450  72.911  1.00  0.00     0.685 P  
HETATM   39  O   UNL     1     -12.553   3.986  73.363  1.00  0.00     0.373 OA 
HETATM   40  O   UNL     1     -10.719   5.568  73.742  1.00  0.00    -0.270 OA 
HETATM   41  O   UNL     1     -13.087   6.492  73.270  1.00  0.00     1.989 OA 
ENDBRANCH  35  36
ENDBRANCH  30  31
BRANCH  30  42
HETATM   42  N   UNL     1      -7.496   6.512  68.243  1.00  0.00    -0.093 NA 
HETATM   43  H   UNL     1      -6.594   6.804  67.864  1.00  0.00     0.000 HD 
BRANCH  42  44
HETATM   44  O   UNL     1      -7.727   5.236  68.777  1.00  0.00    -0.081 OA 
BRANCH  44  45
HETATM   45  C   UNL     1      -8.251   4.402  67.740  1.00  0.00    -0.098 C  
HETATM   46  C   UNL     1      -7.133   3.539  67.187  1.00  0.00    -0.059 C  
ENDBRANCH  44  45
ENDBRANCH  42  44
ENDBRANCH  30  42
ENDBRANCH  28  30
ENDBRANCH   6  26
TORSDOF 10
ENDMDL
MODEL      110
REMARK 921   NORMALIZED FREE ENERGY PREDICTED BY IDOCK:   57.94 KCAL/MOL
REMARK 922        TOTAL FREE ENERGY PREDICTED BY IDOCK:   90.00 KCAL/MOL
REMARK 923 INTER-LIGAND FREE ENERGY PREDICTED BY IDOCK:   89.93 KCAL/MOL
REMARK 924 INTRA-LIGAND FREE ENERGY PREDICTED BY IDOCK:    0.08 KCAL/MOL
REMARK 927      BINDING AFFINITY PREDICTED BY RF-SCORE:    0.00 PKD
ROOT
HETATM    1  C   UNL     1      -8.263  17.439  65.883  1.00  0.00     0.006 C  
HETATM    2  S   UNL     1      -8.556  16.498  67.393  1.00  0.00    -0.181 SA 
HETATM    3  C   UNL     1      -8.886  17.920  68.450  1.00  0.00    -0.289 C  
HETATM    4  C   UNL     1      -8.171  19.233  68.149  1.00  0.00    -0.318 C  
HETATM    5  CA  UNL     1      -7.381  19.437  67.063  1.00  0.00    -0.213 C  
HETATM    6  CA  UNL     1      -7.271  16.824  64.840  1.00  0.00     5.451 C  
HETATM    7  O   UNL     1      -5.354  18.518  64.730  1.00  0.00    -0.171 OA 
HETATM    8  C   UNL     1      -6.611  20.783  66.777  1.00  0.00    -0.282 C  
HETATM    9  N   UNL     1      -7.246  18.425  66.149  1.00  0.00    -0.251 N  
HETATM   10  C   UNL     1      -6.411  18.100  65.140  1.00  0.00     0.063 C  
HETATM   11  O   UNL     1      -6.825  21.250  65.611  1.00  0.00     0.091 OA 
HETATM   12  OXT UNL     1      -5.938  21.266  67.726  1.00  0.00    -0.336 OA 
ENDROOT
BRANCH   4  13
HETATM   13  S   UNL     1      -8.325  20.335  69.511  1.00  0.00     1.147 SA 
BRANCH  13  14
HETATM   14  C   UNL     1      -8.912  19.334  70.814  1.00  0.00     2.809 A  
HETATM   15  N   UNL     1      -9.427  18.129  70.692  1.00  0.00     3.232 NA 
HETATM   16  C   UNL     1      -9.875  17.692  71.928  1.00  0.00     7.560 A  
HETATM   17  S   UNL     1      -8.732  19.895  72.435  1.00  0.00     4.068 SA 
HETATM   18  C   UNL     1      -9.545  18.503  72.996  1.00  0.00     8.143 A  
BRANCH  16  19
HETATM   19  C   UNL     1     -10.635  16.461  72.064  1.00  0.00     2.417 A  
HETATM   20  C   UNL     1     -11.698  16.158  71.213  1.00  0.00    -0.480 A  
HETATM   21  C   UNL     1     -12.412  14.983  71.401  1.00  0.00    -0.329 A  
HETATM   22  C   UNL     1     -12.885  12.910  72.608  1.00  0.00     0.447 C  
HETATM   23  N   UNL     1     -12.088  14.127  72.395  1.00  0.00     0.096 NA 
HETATM   24  C   UNL     1     -10.304  15.550  73.066  1.00  0.00     3.958 A  
HETATM   25  C   UNL     1     -11.040  14.385  73.212  1.00  0.00     2.266 A  
ENDBRANCH  16  19
ENDBRANCH  13  14
ENDBRANCH   4  13
BRANCH   6  26
HETATM   26  N   UNL     1      -6.594  15.525  65.158  1.00  0.00     8.753 N  
HETATM   27  H   UNL     1      -5.747  15.527  65.726  1.00  0.00     0.000 HD 
HETATM   28  C   UNL     1      -7.098  14.325  64.698  1.00  0.00    17.454 C  
HETATM   29  O   UNL     1      -8.019  14.249  63.894  1.00  0.00    11.181 OA 
BRANCH  28  30
HETATM   30  C   UNL     1      -6.451  13.047  65.243  1.00  0.00     8.842 C  
BRANCH  30  31
HETATM   31  C   UNL     1      -6.409  12.846  66.699  1.00  0.00     1.427 A  
HETATM   32  S   UNL     1      -6.027  13.233  69.064  1.00  0.00    -0.089 SA 
HETATM   33  N   UNL     1      -6.931  11.677  67.302  1.00  0.00    -0.120 NA 
HETATM   34  N   UNL     1      -5.912  13.792  67.510  1.00  0.00    -0.348 NA 
HETATM   35  C   UNL     1      -6.772  11.753  68.604  1.00  0.00    -0.073 A  
BRANCH  35  36
HETATM   36  N   UNL     1      -7.149  10.824  69.516  1.00  0.00    -0.123 NA 
HETATM   37  H   UNL     1      -6.483  10.400  70.163  1.00  0.00     0.000 HD 
HETATM   38  P   UNL     1      -8.723  10.425  69.519  1.00  0.00     0.094 P  
HETATM   39  O   UNL     1      -8.915   9.817  70.991  1.00  0.00    -0.094 OA 
HETATM   40  O   UNL     1      -9.576  11.770  69.665  1.00  0.00     0.765 OA 
HETATM   41  O   UNL     1      -9.247   9.503  68.468  1.00  0.00    -0.130 OA 
ENDBRANCH  35  36
ENDBRANCH  30  31
BRANCH  30  42
HETATM   42  N   UNL     1      -5.919  12.102  64.515  1.00  0.00     3.704 NA 
HETATM   43  H   UNL     1      -5.444  12.280  63.630  1.00  0.00     0.000 HD 
BRANCH  42  44
HETATM   44  O   UNL     1      -6.060  10.820  65.065  1.00  0.00    -0.073 OA 
BRANCH  44  45
HETATM   45  C   UNL     1      -5.777   9.858  64.045  1.00  0.00    -0.111 C  
HETATM   46  C   UNL     1      -5.262   8.587  64.694  1.00  0.00    -0.039 C  
ENDBRANCH  44  45
ENDBRANCH  42  44
ENDBRANCH  30  42
ENDBRANCH  28  30
ENDBRANCH   6  26
TORSDOF 10
ENDMDL
MODEL      111
REMARK 921   NORMALIZED FREE ENERGY PREDICTED BY IDOCK:   69.92 KCAL/MOL
REMARK 922        TOTAL FREE ENERGY PREDICTED BY IDOCK:  108.98 KCAL/MOL
REMARK 923 INTER-LIGAND FREE ENERGY PREDICTED BY IDOCK:   92.70 KCAL/MOL
REMARK 924 INTRA-LIGAND FREE ENERGY PREDICTED BY IDOCK:   16.28 KCAL/MOL
REMARK 927      BINDING AFFINITY PREDICTED BY RF-SCORE:    0.00 PKD
ROOT
HETATM    1  C   UNL     1      -8.259  13.717  68.972  1.00  0.00     0.244 C  
HETATM    2  S   UNL     1      -9.227  14.350  70.355  1.00  0.00     2.439 SA 
HETATM    3  C   UNL     1      -8.918  12.963  71.464  1.00  0.00    16.707 C  
HETATM    4  C   UNL     1      -8.727  11.576  70.859  1.00  0.00     7.151 C  
HETATM    5  CA  UNL     1      -8.662  11.331  69.525  1.00  0.00     0.628 C  
HETATM    6  CA  UNL     1      -8.719  14.125  67.533  1.00  0.00    -0.204 C  
HETATM    7  O   UNL     1      -9.352  11.904  66.428  1.00  0.00    -0.217 OA 
HETATM    8  C   UNL     1      -8.505   9.890  68.903  1.00  0.00    -0.127 C  
HETATM    9  N   UNL     1      -8.725  12.390  68.658  1.00  0.00    -0.038 N  
HETATM   10  C   UNL     1      -8.961  12.588  67.344  1.00  0.00    -0.188 C  
HETATM   11  O   UNL     1      -7.543   9.800  68.073  1.00  0.00    -0.082 OA 
HETATM   12  OXT UNL     1      -9.285   8.998  69.329  1.00  0.00    -0.142 OA 
ENDROOT
BRANCH   4  13
HETATM   13  S   UNL     1      -8.842  10.346  72.111  1.00  0.00     8.558 SA 
BRANCH  13  14
HETATM   14  C   UNL     1      -8.550   8.845  71.271  1.00  0.00    -0.198 A  
HETATM   15  N   UNL     1      -7.980   8.717  70.091  1.00  0.00    -0.098 NA 
HETATM   16  C   UNL     1      -8.016   7.387  69.704  1.00  0.00    -0.126 A  
HETATM   17  S   UNL     1      -8.940   7.363  72.062  1.00  0.00    -0.125 SA 
HETATM   18  C   UNL     1      -8.464   6.504  70.666  1.00  0.00    -0.134 A  
BRANCH  16  19
HETATM   19  C   UNL     1      -7.603   6.975  68.373  1.00  0.00    -0.111 A  
HETATM   20  C   UNL     1      -6.439   7.467  67.783  1.00  0.00    -0.050 A  
HETATM   21  C   UNL     1      -6.101   7.065  66.498  1.00  0.00    -0.035 A  
HETATM   22  C   UNL     1      -6.533   5.824  64.437  1.00  0.00    -0.033 C  
HETATM   23  N   UNL     1      -6.882   6.202  65.814  1.00  0.00    -0.055 NA 
HETATM   24  C   UNL     1      -8.379   6.066  67.657  1.00  0.00    -0.108 A  
HETATM   25  C   UNL     1      -7.999   5.687  66.380  1.00  0.00    -0.101 A  
ENDBRANCH  16  19
ENDBRANCH  13  14
ENDBRANCH   4  13
BRANCH   6  26
HETATM   26  N   UNL     1      -9.943  14.976  67.375  1.00  0.00    -0.226 N  
HETATM   27  H   UNL     1     -10.852  14.600  67.646  1.00  0.00     0.000 HD 
HETATM   28  C   UNL     1      -9.863  16.257  66.869  1.00  0.00    -0.247 C  
HETATM   29  O   UNL     1      -8.838  16.725  66.386  1.00  0.00    -0.254 OA 
BRANCH  28  30
HETATM   30  C   UNL     1     -11.135  17.110  66.935  1.00  0.00     0.287 C  
BRANCH  30  31
HETATM   31  C   UNL     1     -11.087  18.389  67.659  1.00  0.00     0.070 A  
HETATM   32  S   UNL     1     -10.797  20.749  68.143  1.00  0.00     1.439 SA 
HETATM   33  N   UNL     1     -11.452  18.483  69.023  1.00  0.00     2.384 NA 
HETATM   34  N   UNL     1     -10.737  19.522  67.032  1.00  0.00    -0.488 NA 
HETATM   35  C   UNL     1     -11.324  19.728  69.421  1.00  0.00     3.112 A  
BRANCH  35  36
HETATM   36  N   UNL     1     -11.583  20.207  70.663  1.00  0.00     4.528 NA 
HETATM   37  H   UNL     1     -12.166  21.030  70.814  1.00  0.00     0.000 HD 
HETATM   38  P   UNL     1     -10.909  19.392  71.897  1.00  0.00     6.858 P  
HETATM   39  O   UNL     1     -11.838  19.822  73.132  1.00  0.00     8.461 OA 
HETATM   40  O   UNL     1     -11.327  17.854  71.762  1.00  0.00     1.679 OA 
HETATM   41  O   UNL     1      -9.461  19.588  72.199  1.00  0.00     3.151 OA 
ENDBRANCH  35  36
ENDBRANCH  30  31
BRANCH  30  42
HETATM   42  N   UNL     1     -12.283  16.793  66.399  1.00  0.00     2.809 NA 
HETATM   43  H   UNL     1     -13.164  16.817  66.912  1.00  0.00     0.000 HD 
BRANCH  42  44
HETATM   44  O   UNL     1     -12.190  16.417  65.051  1.00  0.00     0.822 OA 
BRANCH  44  45
HETATM   45  C   UNL     1     -13.399  16.804  64.391  1.00  0.00     6.368 C  
HETATM   46  C   UNL     1     -13.454  18.319  64.310  1.00  0.00    18.392 C  
ENDBRANCH  44  45
ENDBRANCH  42  44
ENDBRANCH  30  42
ENDBRANCH  28  30
ENDBRANCH   6  26
TORSDOF 10
ENDMDL
