MODEL        1
REMARK 921   NORMALIZED FREE ENERGY PREDICTED BY IDOCK:   -7.90 KCAL/MOL
REMARK 922        TOTAL FREE ENERGY PREDICTED BY IDOCK:  -12.67 KCAL/MOL
REMARK 923 INTER-LIGAND FREE ENERGY PREDICTED BY IDOCK:  -11.13 KCAL/MOL
REMARK 924 INTRA-LIGAND FREE ENERGY PREDICTED BY IDOCK:   -1.54 KCAL/MOL
REMARK 927      BINDING AFFINITY PREDICTED BY RF-SCORE:    0.00 PKD
ROOT
HETATM    1  O   UNL     1      -5.279  14.134  67.497  1.00  0.00    -0.329 OA 
HETATM    2  C   UNL     1      -5.992  15.157  67.605  1.00  0.00    -0.080 C  
HETATM    3  CA  UNL     1      -7.566  14.936  67.685  1.00  0.00    -0.182 C  
HETATM    4  OXT UNL     1      -5.637  16.376  67.650  1.00  0.00    -0.122 OA 
HETATM    5  C   UNL     1      -8.371  15.936  68.125  1.00  0.00    -0.162 C  
HETATM    6  C   UNL     1      -9.865  15.856  68.298  1.00  0.00    -0.217 C  
HETATM    7  CA  UNL     1      -9.340  12.051  67.451  1.00  0.00    -0.178 C  
HETATM    8  S   UNL     1     -10.788  14.480  67.639  1.00  0.00    -0.279 SA 
HETATM    9  N   UNL     1      -8.135  13.726  67.412  1.00  0.00    -0.181 N  
HETATM   10  O   UNL     1      -6.871  11.775  67.976  1.00  0.00    -0.067 OA 
HETATM   11  C   UNL     1      -9.467  13.509  66.907  1.00  0.00    -0.258 C  
HETATM   12  C   UNL     1      -7.819  12.414  67.588  1.00  0.00    -0.163 C  
ENDROOT
BRANCH   5  13
HETATM   13  C   UNL     1      -7.845  17.277  68.606  1.00  0.00    -0.272 C  
BRANCH  13  14
HETATM   14  N   UNL     1      -8.556  18.497  68.115  1.00  0.00    -0.294 NA 
HETATM   15  C   UNL     1     -10.251  20.164  68.327  1.00  0.00    -0.464 A  
HETATM   16  C   UNL     1     -10.157  20.447  66.971  1.00  0.00    -0.507 A  
HETATM   17  C   UNL     1      -9.427  19.188  68.887  1.00  0.00    -0.367 A  
HETATM   18  C   UNL     1      -8.392  18.833  66.813  1.00  0.00    -0.281 A  
HETATM   19  C   UNL     1      -9.201  19.791  66.211  1.00  0.00    -0.461 A  
ENDBRANCH  13  14
ENDBRANCH   5  13
BRANCH   7  20
HETATM   20  N   UNL     1     -10.008  11.683  68.763  1.00  0.00    -0.345 N  
HETATM   21  H   UNL     1      -9.479  11.780  69.630  1.00  0.00     0.000 HD 
HETATM   22  O   UNL     1     -12.014  10.927  67.859  1.00  0.00    -0.585 OA 
HETATM   23  C   UNL     1     -11.311  11.218  68.822  1.00  0.00    -0.270 C  
BRANCH  23  24
HETATM   24  C   UNL     1     -11.960  11.062  70.179  1.00  0.00    -0.360 C  
BRANCH  24  25
HETATM   25  N   UNL     1     -12.174   9.941  70.808  1.00  0.00    -0.362 NA 
HETATM   26  H   UNL     1     -13.043   9.418  70.698  1.00  0.00     0.000 HD 
BRANCH  25  27
HETATM   27  O   UNL     1     -11.144   9.497  71.645  1.00  0.00    -0.371 OA 
HETATM   28  C   UNL     1     -10.122   7.647  72.759  1.00  0.00    -0.311 C  
HETATM   29  C   UNL     1     -10.540   7.583  70.294  1.00  0.00    -0.235 C  
HETATM   30  O   UNL     1     -13.545   7.953  71.489  1.00  0.00    -0.341 OA 
HETATM   31  O   UNL     1     -12.512   6.193  72.422  1.00  0.00    -0.180 OA 
HETATM   32  C   UNL     1     -11.100   8.052  71.644  1.00  0.00    -0.252 C  
HETATM   33  C   UNL     1     -12.435   7.304  71.912  1.00  0.00    -0.303 C  
ENDBRANCH  25  27
ENDBRANCH  24  25
BRANCH  24  34
HETATM   34  C   UNL     1     -12.509  12.256  70.831  1.00  0.00    -0.276 A  
HETATM   35  H2  UNL     1     -12.842  16.417  71.695  1.00  0.00     0.000 HD 
HETATM   36  C   UNL     1     -13.348  12.251  71.931  1.00  0.00    -0.329 A  
HETATM   37  S   UNL     1     -13.658  13.853  72.445  1.00  0.00    -0.598 SA 
HETATM   38  H1  UNL     1     -11.822  16.109  70.293  1.00  0.00     0.000 HD 
HETATM   39  N   UNL     1     -12.418  15.757  71.043  1.00  0.00    -0.442 NA 
HETATM   40  N   UNL     1     -12.150  13.533  70.395  1.00  0.00    -0.351 NA 
HETATM   41  C   UNL     1     -12.655  14.445  71.186  1.00  0.00    -0.352 A  
ENDBRANCH  24  34
ENDBRANCH  23  24
ENDBRANCH   7  20
TORSDOF 7
ENDMDL
MODEL        2
REMARK 921   NORMALIZED FREE ENERGY PREDICTED BY IDOCK:   -7.81 KCAL/MOL
REMARK 922        TOTAL FREE ENERGY PREDICTED BY IDOCK:  -12.55 KCAL/MOL
REMARK 923 INTER-LIGAND FREE ENERGY PREDICTED BY IDOCK:  -10.67 KCAL/MOL
REMARK 924 INTRA-LIGAND FREE ENERGY PREDICTED BY IDOCK:   -1.88 KCAL/MOL
REMARK 927      BINDING AFFINITY PREDICTED BY RF-SCORE:    0.00 PKD
ROOT
HETATM    1  O   UNL     1     -12.111  14.114  64.420  1.00  0.00    -0.439 OA 
HETATM    2  C   UNL     1     -11.417  15.066  64.841  1.00  0.00    -0.399 C  
HETATM    3  CA  UNL     1     -11.001  15.032  66.377  1.00  0.00    -0.336 C  
HETATM    4  OXT UNL     1     -10.994  16.086  64.212  1.00  0.00    -0.484 OA 
HETATM    5  C   UNL     1      -9.998  15.829  66.827  1.00  0.00    -0.260 C  
HETATM    6  C   UNL     1      -9.467  15.871  68.236  1.00  0.00    -0.201 C  
HETATM    7  CA  UNL     1     -11.855  12.792  68.781  1.00  0.00    -0.307 C  
HETATM    8  S   UNL     1     -10.334  15.052  69.563  1.00  0.00    -0.186 SA 
HETATM    9  N   UNL     1     -11.560  14.147  67.253  1.00  0.00    -0.353 N  
HETATM   10  O   UNL     1     -12.183  12.005  66.389  1.00  0.00    -0.551 OA 
HETATM   11  C   UNL     1     -11.722  14.344  68.671  1.00  0.00    -0.332 C  
HETATM   12  C   UNL     1     -12.010  12.864  67.220  1.00  0.00    -0.309 C  
ENDROOT
BRANCH   5  13
HETATM   13  C   UNL     1      -9.193  16.744  65.922  1.00  0.00    -0.107 C  
BRANCH  13  14
HETATM   14  N   UNL     1      -9.224  18.205  66.239  1.00  0.00    -0.463 NA 
HETATM   15  C   UNL     1      -8.204  20.188  67.093  1.00  0.00    -0.378 A  
HETATM   16  C   UNL     1      -9.453  20.773  67.253  1.00  0.00    -0.467 A  
HETATM   17  C   UNL     1      -8.109  18.899  66.568  1.00  0.00    -0.287 A  
HETATM   18  C   UNL     1     -10.437  18.805  66.302  1.00  0.00    -0.435 A  
HETATM   19  C   UNL     1     -10.579  20.083  66.831  1.00  0.00    -0.455 A  
ENDBRANCH  13  14
ENDBRANCH   5  13
BRANCH   7  20
HETATM   20  N   UNL     1     -10.665  11.972  69.247  1.00  0.00    -0.440 N  
HETATM   21  H   UNL     1      -9.792  12.451  69.467  1.00  0.00     0.000 HD 
HETATM   22  O   UNL     1     -11.659   9.880  69.028  1.00  0.00    -0.025 OA 
HETATM   23  C   UNL     1     -10.727  10.595  69.382  1.00  0.00    -0.244 C  
BRANCH  23  24
HETATM   24  C   UNL     1      -9.564   9.883  70.035  1.00  0.00    -0.214 C  
BRANCH  24  25
HETATM   25  N   UNL     1      -9.614   9.151  71.113  1.00  0.00    -0.283 NA 
HETATM   26  H   UNL     1      -9.256   9.485  72.009  1.00  0.00     0.000 HD 
BRANCH  25  27
HETATM   27  O   UNL     1     -10.185   7.881  70.971  1.00  0.00    -0.196 OA 
HETATM   28  C   UNL     1     -11.112   5.966  72.058  1.00  0.00    -0.329 C  
HETATM   29  C   UNL     1     -12.003   8.257  72.522  1.00  0.00    -0.420 C  
HETATM   30  O   UNL     1      -8.892   8.535  73.435  1.00  0.00    -0.301 OA 
HETATM   31  O   UNL     1      -9.883   6.799  74.454  1.00  0.00    -0.297 OA 
HETATM   32  C   UNL     1     -10.732   7.445  72.237  1.00  0.00    -0.235 C  
HETATM   33  C   UNL     1      -9.801   7.532  73.477  1.00  0.00    -0.317 C  
ENDBRANCH  25  27
ENDBRANCH  24  25
BRANCH  24  34
HETATM   34  C   UNL     1      -8.219  10.098  69.492  1.00  0.00    -0.168 A  
HETATM   35  H2  UNL     1      -5.325  10.955  66.481  1.00  0.00     0.000 HD 
HETATM   36  C   UNL     1      -7.036   9.781  70.137  1.00  0.00    -0.130 A  
HETATM   37  S   UNL     1      -5.703  10.085  69.107  1.00  0.00    -0.033 SA 
HETATM   38  H1  UNL     1      -6.967  11.291  65.940  1.00  0.00     0.000 HD 
HETATM   39  N   UNL     1      -6.328  10.981  66.671  1.00  0.00    -0.111 NA 
HETATM   40  N   UNL     1      -8.046  10.607  68.203  1.00  0.00    -0.111 NA 
HETATM   41  C   UNL     1      -6.779  10.606  67.877  1.00  0.00    -0.064 A  
ENDBRANCH  24  34
ENDBRANCH  23  24
ENDBRANCH   7  20
TORSDOF 7
ENDMDL
MODEL        3
REMARK 921   NORMALIZED FREE ENERGY PREDICTED BY IDOCK:   -7.73 KCAL/MOL
REMARK 922        TOTAL FREE ENERGY PREDICTED BY IDOCK:  -12.43 KCAL/MOL
REMARK 923 INTER-LIGAND FREE ENERGY PREDICTED BY IDOCK:  -11.04 KCAL/MOL
REMARK 924 INTRA-LIGAND FREE ENERGY PREDICTED BY IDOCK:   -1.39 KCAL/MOL
REMARK 927      BINDING AFFINITY PREDICTED BY RF-SCORE:    0.00 PKD
ROOT
HETATM    1  O   UNL     1      -6.611  16.135  66.988  1.00  0.00    -0.202 OA 
HETATM    2  C   UNL     1      -7.632  16.473  66.349  1.00  0.00    -0.214 C  
HETATM    3  CA  UNL     1      -8.858  15.459  66.359  1.00  0.00    -0.305 C  
HETATM    4  OXT UNL     1      -7.836  17.526  65.669  1.00  0.00    -0.507 OA 
HETATM    5  C   UNL     1     -10.092  15.881  65.981  1.00  0.00    -0.359 C  
HETATM    6  C   UNL     1     -11.349  15.051  65.984  1.00  0.00    -0.270 C  
HETATM    7  CA  UNL     1      -9.078  12.373  67.758  1.00  0.00    -0.193 C  
HETATM    8  S   UNL     1     -11.276  13.284  66.219  1.00  0.00    -0.307 SA 
HETATM    9  N   UNL     1      -8.732  14.184  66.832  1.00  0.00    -0.200 N  
HETATM   10  O   UNL     1      -7.198  13.838  68.633  1.00  0.00    -0.100 OA 
HETATM   11  C   UNL     1      -9.508  13.044  66.415  1.00  0.00    -0.224 C  
HETATM   12  C   UNL     1      -8.044  13.553  67.821  1.00  0.00    -0.177 C  
ENDROOT
BRANCH   5  13
HETATM   13  C   UNL     1     -10.395  17.314  65.582  1.00  0.00    -0.171 C  
BRANCH  13  14
HETATM   14  N   UNL     1     -10.506  18.314  66.688  1.00  0.00    -0.375 NA 
HETATM   15  C   UNL     1     -10.464  20.559  67.498  1.00  0.00    -0.073 A  
HETATM   16  C   UNL     1     -10.239  20.101  68.789  1.00  0.00    -0.323 A  
HETATM   17  C   UNL     1     -10.609  19.644  66.455  1.00  0.00    -0.482 A  
HETATM   18  C   UNL     1     -10.382  17.857  67.957  1.00  0.00    -0.387 A  
HETATM   19  C   UNL     1     -10.222  18.735  69.024  1.00  0.00    -0.181 A  
ENDBRANCH  13  14
ENDBRANCH   5  13
BRANCH   7  20
HETATM   20  N   UNL     1     -10.052  12.341  68.922  1.00  0.00    -0.427 N  
HETATM   21  H   UNL     1     -10.039  13.106  69.597  1.00  0.00     0.000 HD 
HETATM   22  O   UNL     1     -10.995  10.268  68.447  1.00  0.00    -0.238 OA 
HETATM   23  C   UNL     1     -10.957  11.309  69.097  1.00  0.00    -0.240 C  
BRANCH  23  24
HETATM   24  C   UNL     1     -12.017  11.453  70.166  1.00  0.00    -0.377 C  
BRANCH  24  25
HETATM   25  N   UNL     1     -12.677  12.538  70.459  1.00  0.00    -0.061 NA 
HETATM   26  H   UNL     1     -13.174  13.076  69.748  1.00  0.00     0.000 HD 
BRANCH  25  27
HETATM   27  O   UNL     1     -12.663  12.924  71.805  1.00  0.00    -0.247 OA 
HETATM   28  C   UNL     1     -12.549  14.722  73.375  1.00  0.00    -0.556 C  
HETATM   29  C   UNL     1     -14.271  14.715  71.561  1.00  0.00    -0.540 C  
HETATM   30  O   UNL     1     -11.494  14.670  69.866  1.00  0.00    -0.255 OA 
HETATM   31  O   UNL     1     -11.522  16.369  71.331  1.00  0.00    -0.399 OA 
HETATM   32  C   UNL     1     -12.819  14.358  71.905  1.00  0.00    -0.349 C  
HETATM   33  C   UNL     1     -11.876  15.234  71.036  1.00  0.00    -0.345 C  
ENDBRANCH  25  27
ENDBRANCH  24  25
BRANCH  24  34
HETATM   34  C   UNL     1     -12.278  10.310  71.048  1.00  0.00    -0.384 A  
HETATM   35  H2  UNL     1     -11.286   6.884  73.382  1.00  0.00     0.000 HD 
HETATM   36  C   UNL     1     -13.528   9.783  71.324  1.00  0.00    -0.290 A  
HETATM   37  S   UNL     1     -13.377   8.387  72.302  1.00  0.00    -0.226 SA 
HETATM   38  H1  UNL     1      -9.858   7.788  72.889  1.00  0.00     0.000 HD 
HETATM   39  N   UNL     1     -10.872   7.681  72.898  1.00  0.00    -0.359 NA 
HETATM   40  N   UNL     1     -11.224   9.614  71.643  1.00  0.00    -0.325 NA 
HETATM   41  C   UNL     1     -11.672   8.567  72.286  1.00  0.00    -0.373 A  
ENDBRANCH  24  34
ENDBRANCH  23  24
ENDBRANCH   7  20
TORSDOF 7
ENDMDL
MODEL        4
REMARK 921   NORMALIZED FREE ENERGY PREDICTED BY IDOCK:   -7.66 KCAL/MOL
REMARK 922        TOTAL FREE ENERGY PREDICTED BY IDOCK:  -12.33 KCAL/MOL
REMARK 923 INTER-LIGAND FREE ENERGY PREDICTED BY IDOCK:  -10.54 KCAL/MOL
REMARK 924 INTRA-LIGAND FREE ENERGY PREDICTED BY IDOCK:   -1.79 KCAL/MOL
REMARK 927      BINDING AFFINITY PREDICTED BY RF-SCORE:    0.00 PKD
ROOT
HETATM    1  O   UNL     1     -12.460  14.768  63.792  1.00  0.00    -0.782 OA 
HETATM    2  C   UNL     1     -11.654  15.534  64.366  1.00  0.00    -0.258 C  
HETATM    3  CA  UNL     1     -11.133  15.090  65.802  1.00  0.00    -0.346 C  
HETATM    4  OXT UNL     1     -11.189  16.647  63.966  1.00  0.00    -1.052 OA 
HETATM    5  C   UNL     1     -10.033  15.679  66.337  1.00  0.00    -0.298 C  
HETATM    6  C   UNL     1      -9.400  15.331  67.659  1.00  0.00    -0.199 C  
HETATM    7  CA  UNL     1     -12.008  12.387  67.659  1.00  0.00    -0.180 C  
HETATM    8  S   UNL     1     -10.237  14.269  68.822  1.00  0.00    -0.198 SA 
HETATM    9  N   UNL     1     -11.705  14.056  66.485  1.00  0.00    -0.374 N  
HETATM   10  O   UNL     1     -12.578  12.245  65.189  1.00  0.00    -0.585 OA 
HETATM   11  C   UNL     1     -11.744  13.904  67.918  1.00  0.00    -0.361 C  
HETATM   12  C   UNL     1     -12.269  12.856  66.184  1.00  0.00    -0.317 C  
ENDROOT
BRANCH   5  13
HETATM   13  C   UNL     1      -9.217  16.733  65.611  1.00  0.00     0.238 C  
BRANCH  13  14
HETATM   14  N   UNL     1      -9.288  18.128  66.143  1.00  0.00    -0.505 NA 
HETATM   15  C   UNL     1      -8.256  20.087  67.037  1.00  0.00    -0.364 A  
HETATM   16  C   UNL     1      -9.474  20.503  67.559  1.00  0.00    -0.520 A  
HETATM   17  C   UNL     1      -8.185  18.895  66.316  1.00  0.00    -0.268 A  
HETATM   18  C   UNL     1     -10.495  18.574  66.566  1.00  0.00    -0.398 A  
HETATM   19  C   UNL     1     -10.609  19.750  67.300  1.00  0.00    -0.565 A  
ENDBRANCH  13  14
ENDBRANCH   5  13
BRANCH   7  20
HETATM   20  N   UNL     1     -10.866  11.396  67.801  1.00  0.00    -0.216 N  
HETATM   21  H   UNL     1     -10.113  11.410  67.113  1.00  0.00     0.000 HD 
HETATM   22  O   UNL     1     -11.706  10.255  69.646  1.00  0.00    -0.227 OA 
HETATM   23  C   UNL     1     -10.814  10.474  68.832  1.00  0.00    -0.235 C  
BRANCH  23  24
HETATM   24  C   UNL     1      -9.551   9.661  69.008  1.00  0.00    -0.168 C  
BRANCH  24  25
HETATM   25  N   UNL     1      -9.408   8.611  69.768  1.00  0.00    -0.163 NA 
HETATM   26  H   UNL     1      -9.462   7.663  69.394  1.00  0.00     0.000 HD 
BRANCH  25  27
HETATM   27  O   UNL     1      -9.178   8.859  71.126  1.00  0.00    -0.211 OA 
HETATM   28  C   UNL     1      -9.320   8.042  73.367  1.00  0.00    -0.323 C  
HETATM   29  C   UNL     1      -8.152   6.719  71.595  1.00  0.00    -0.106 C  
HETATM   30  O   UNL     1     -11.171   6.943  70.402  1.00  0.00    -0.276 OA 
HETATM   31  O   UNL     1     -11.183   6.118  72.488  1.00  0.00    -0.260 OA 
HETATM   32  C   UNL     1      -9.346   7.639  71.883  1.00  0.00    -0.145 C  
HETATM   33  C   UNL     1     -10.655   6.837  71.649  1.00  0.00    -0.214 C  
ENDBRANCH  25  27
ENDBRANCH  24  25
BRANCH  24  34
HETATM   34  C   UNL     1      -8.322  10.131  68.360  1.00  0.00    -0.113 A  
HETATM   35  H2  UNL     1      -5.534  13.020  66.928  1.00  0.00     0.000 HD 
HETATM   36  C   UNL     1      -7.474   9.351  67.594  1.00  0.00    -0.087 A  
HETATM   37  S   UNL     1      -6.225  10.314  66.930  1.00  0.00    -0.071 SA 
HETATM   38  H1  UNL     1      -6.755  13.737  67.975  1.00  0.00     0.000 HD 
HETATM   39  N   UNL     1      -6.357  12.914  67.521  1.00  0.00    -0.159 NA 
HETATM   40  N   UNL     1      -7.949  11.475  68.433  1.00  0.00    -0.137 NA 
HETATM   41  C   UNL     1      -6.895  11.697  67.691  1.00  0.00    -0.094 A  
ENDBRANCH  24  34
ENDBRANCH  23  24
ENDBRANCH   7  20
TORSDOF 7
ENDMDL
MODEL        5
REMARK 921   NORMALIZED FREE ENERGY PREDICTED BY IDOCK:   -7.59 KCAL/MOL
REMARK 922        TOTAL FREE ENERGY PREDICTED BY IDOCK:  -12.23 KCAL/MOL
REMARK 923 INTER-LIGAND FREE ENERGY PREDICTED BY IDOCK:  -10.32 KCAL/MOL
REMARK 924 INTRA-LIGAND FREE ENERGY PREDICTED BY IDOCK:   -1.92 KCAL/MOL
REMARK 927      BINDING AFFINITY PREDICTED BY RF-SCORE:    0.00 PKD
ROOT
HETATM    1  O   UNL     1     -12.540  14.492  63.862  1.00  0.00    -0.827 OA 
HETATM    2  C   UNL     1     -11.792  15.353  64.376  1.00  0.00    -0.256 C  
HETATM    3  CA  UNL     1     -11.213  15.033  65.824  1.00  0.00    -0.318 C  
HETATM    4  OXT UNL     1     -11.426  16.475  63.908  1.00  0.00    -1.145 OA 
HETATM    5  C   UNL     1     -10.157  15.738  66.304  1.00  0.00    -0.320 C  
HETATM    6  C   UNL     1      -9.477  15.517  67.630  1.00  0.00    -0.208 C  
HETATM    7  CA  UNL     1     -11.833  12.374  67.842  1.00  0.00    -0.308 C  
HETATM    8  S   UNL     1     -10.206  14.457  68.865  1.00  0.00    -0.177 SA 
HETATM    9  N   UNL     1     -11.687  13.995  66.573  1.00  0.00    -0.374 N  
HETATM   10  O   UNL     1     -12.428  12.050  65.395  1.00  0.00    -0.421 OA 
HETATM   11  C   UNL     1     -11.692  13.920  68.013  1.00  0.00    -0.352 C  
HETATM   12  C   UNL     1     -12.155  12.738  66.349  1.00  0.00    -0.300 C  
ENDROOT
BRANCH   5  13
HETATM   13  C   UNL     1      -9.442  16.813  65.505  1.00  0.00     0.345 C  
BRANCH  13  14
HETATM   14  N   UNL     1      -9.406  18.185  66.100  1.00  0.00    -0.505 NA 
HETATM   15  C   UNL     1      -8.236  19.994  67.127  1.00  0.00    -0.365 A  
HETATM   16  C   UNL     1      -9.432  20.503  67.617  1.00  0.00    -0.456 A  
HETATM   17  C   UNL     1      -8.245  18.833  66.354  1.00  0.00    -0.284 A  
HETATM   18  C   UNL     1     -10.584  18.726  66.492  1.00  0.00    -0.374 A  
HETATM   19  C   UNL     1     -10.620  19.875  67.275  1.00  0.00    -0.519 A  
ENDBRANCH  13  14
ENDBRANCH   5  13
BRANCH   7  20
HETATM   20  N   UNL     1     -10.612  11.489  68.014  1.00  0.00    -0.183 N  
HETATM   21  H   UNL     1      -9.954  11.401  67.239  1.00  0.00     0.000 HD 
HETATM   22  O   UNL     1     -11.124  10.706  70.143  1.00  0.00    -0.288 OA 
HETATM   23  C   UNL     1     -10.360  10.799  69.187  1.00  0.00    -0.217 C  
BRANCH  23  24
HETATM   24  C   UNL     1      -9.028  10.101  69.342  1.00  0.00    -0.191 C  
BRANCH  24  25
HETATM   25  N   UNL     1      -8.843   8.855  69.678  1.00  0.00    -0.138 NA 
HETATM   26  H   UNL     1      -8.045   8.561  70.242  1.00  0.00     0.000 HD 
BRANCH  25  27
HETATM   27  O   UNL     1      -9.803   7.944  69.222  1.00  0.00    -0.171 OA 
HETATM   28  C   UNL     1     -10.849   5.816  69.518  1.00  0.00    -0.410 C  
HETATM   29  C   UNL     1     -10.734   7.458  71.401  1.00  0.00    -0.239 C  
HETATM   30  O   UNL     1      -7.588   6.959  70.737  1.00  0.00    -0.088 OA 
HETATM   31  O   UNL     1      -8.657   5.020  71.101  1.00  0.00    -0.119 OA 
HETATM   32  C   UNL     1      -9.977   6.888  70.194  1.00  0.00    -0.178 C  
HETATM   33  C   UNL     1      -8.693   6.178  70.705  1.00  0.00    -0.136 C  
ENDBRANCH  25  27
ENDBRANCH  24  25
BRANCH  24  34
HETATM   34  C   UNL     1      -7.804  10.898  69.211  1.00  0.00    -0.092 A  
HETATM   35  H2  UNL     1      -5.118  13.635  67.349  1.00  0.00     0.000 HD 
HETATM   36  C   UNL     1      -6.661  10.739  69.976  1.00  0.00    -0.149 A  
HETATM   37  S   UNL     1      -5.429  11.788  69.421  1.00  0.00    -0.063 SA 
HETATM   38  H1  UNL     1      -6.703  13.633  66.581  1.00  0.00     0.000 HD 
HETATM   39  N   UNL     1      -6.075  13.284  67.306  1.00  0.00    -0.300 NA 
HETATM   40  N   UNL     1      -7.692  11.872  68.217  1.00  0.00    -0.120 NA 
HETATM   41  C   UNL     1      -6.484  12.374  68.202  1.00  0.00    -0.072 A  
ENDBRANCH  24  34
ENDBRANCH  23  24
ENDBRANCH   7  20
TORSDOF 7
ENDMDL
MODEL        6
REMARK 921   NORMALIZED FREE ENERGY PREDICTED BY IDOCK:   -7.58 KCAL/MOL
REMARK 922        TOTAL FREE ENERGY PREDICTED BY IDOCK:  -12.22 KCAL/MOL
REMARK 923 INTER-LIGAND FREE ENERGY PREDICTED BY IDOCK:  -10.34 KCAL/MOL
REMARK 924 INTRA-LIGAND FREE ENERGY PREDICTED BY IDOCK:   -1.88 KCAL/MOL
REMARK 927      BINDING AFFINITY PREDICTED BY RF-SCORE:    0.00 PKD
ROOT
HETATM    1  O   UNL     1     -12.476  14.633  63.977  1.00  0.00    -0.796 OA 
HETATM    2  C   UNL     1     -11.744  15.495  64.511  1.00  0.00    -0.253 C  
HETATM    3  CA  UNL     1     -11.253  15.207  65.997  1.00  0.00    -0.275 C  
HETATM    4  OXT UNL     1     -11.333  16.599  64.035  1.00  0.00    -1.120 OA 
HETATM    5  C   UNL     1     -10.215  15.908  66.518  1.00  0.00    -0.297 C  
HETATM    6  C   UNL     1      -9.614  15.714  67.885  1.00  0.00    -0.206 C  
HETATM    7  CA  UNL     1     -12.031  12.614  68.046  1.00  0.00    -0.245 C  
HETATM    8  S   UNL     1     -10.430  14.699  69.105  1.00  0.00    -0.204 SA 
HETATM    9  N   UNL     1     -11.786  14.197  66.745  1.00  0.00    -0.407 N  
HETATM   10  O   UNL     1     -12.492  12.232  65.579  1.00  0.00    -0.597 OA 
HETATM   11  C   UNL     1     -11.873  14.161  68.184  1.00  0.00    -0.352 C  
HETATM   12  C   UNL     1     -12.262  12.941  66.528  1.00  0.00    -0.188 C  
ENDROOT
BRANCH   5  13
HETATM   13  C   UNL     1      -9.438  16.950  65.733  1.00  0.00     0.005 C  
BRANCH  13  14
HETATM   14  N   UNL     1      -9.431  18.342  66.281  1.00  0.00    -0.450 NA 
HETATM   15  C   UNL     1      -8.285  20.250  67.142  1.00  0.00    -0.385 A  
HETATM   16  C   UNL     1      -9.460  20.707  67.724  1.00  0.00    -0.328 A  
HETATM   17  C   UNL     1      -8.293  19.064  66.408  1.00  0.00    -0.307 A  
HETATM   18  C   UNL     1     -10.599  18.828  66.763  1.00  0.00    -0.395 A  
HETATM   19  C   UNL     1     -10.634  20.000  67.511  1.00  0.00    -0.429 A  
ENDBRANCH  13  14
ENDBRANCH   5  13
BRANCH   7  20
HETATM   20  N   UNL     1     -10.836  11.715  68.310  1.00  0.00    -0.207 N  
HETATM   21  H   UNL     1     -10.027  11.777  67.692  1.00  0.00     0.000 HD 
HETATM   22  O   UNL     1     -11.752  10.541  70.097  1.00  0.00    -0.274 OA 
HETATM   23  C   UNL     1     -10.808  10.816  69.362  1.00  0.00    -0.244 C  
BRANCH  23  24
HETATM   24  C   UNL     1      -9.510  10.104  69.668  1.00  0.00    -0.200 C  
BRANCH  24  25
HETATM   25  N   UNL     1      -8.309  10.593  69.528  1.00  0.00    -0.371 NA 
HETATM   26  H   UNL     1      -8.026  11.464  69.977  1.00  0.00     0.000 HD 
BRANCH  25  27
HETATM   27  O   UNL     1      -7.432   9.853  68.726  1.00  0.00    -0.076 OA 
HETATM   28  C   UNL     1      -5.517   9.877  67.298  1.00  0.00    -0.042 C  
HETATM   29  C   UNL     1      -5.406  10.844  69.602  1.00  0.00    -0.039 C  
HETATM   30  O   UNL     1      -7.731  12.649  68.213  1.00  0.00    -0.121 OA 
HETATM   31  O   UNL     1      -5.854  12.657  66.983  1.00  0.00    -0.319 OA 
HETATM   32  C   UNL     1      -6.295  10.668  68.363  1.00  0.00    -0.054 C  
HETATM   33  C   UNL     1      -6.592  12.070  67.765  1.00  0.00    -0.093 C  
ENDBRANCH  25  27
ENDBRANCH  24  25
BRANCH  24  34
HETATM   34  C   UNL     1      -9.564   8.692  70.062  1.00  0.00    -0.170 A  
HETATM   35  H2  UNL     1     -10.641   4.584  69.695  1.00  0.00     0.000 HD 
HETATM   36  C   UNL     1      -9.220   8.197  71.308  1.00  0.00    -0.156 A  
HETATM   37  S   UNL     1      -9.540   6.517  71.384  1.00  0.00    -0.164 SA 
HETATM   38  H1  UNL     1     -10.954   5.488  68.216  1.00  0.00     0.000 HD 
HETATM   39  N   UNL     1     -10.611   5.462  69.176  1.00  0.00    -0.213 NA 
HETATM   40  N   UNL     1     -10.046   7.725  69.178  1.00  0.00    -0.191 NA 
HETATM   41  C   UNL     1     -10.119   6.561  69.770  1.00  0.00    -0.178 A  
ENDBRANCH  24  34
ENDBRANCH  23  24
ENDBRANCH   7  20
TORSDOF 7
ENDMDL
MODEL        7
REMARK 921   NORMALIZED FREE ENERGY PREDICTED BY IDOCK:   -7.51 KCAL/MOL
REMARK 922        TOTAL FREE ENERGY PREDICTED BY IDOCK:  -12.13 KCAL/MOL
REMARK 923 INTER-LIGAND FREE ENERGY PREDICTED BY IDOCK:  -10.31 KCAL/MOL
REMARK 924 INTRA-LIGAND FREE ENERGY PREDICTED BY IDOCK:   -1.82 KCAL/MOL
REMARK 927      BINDING AFFINITY PREDICTED BY RF-SCORE:    0.00 PKD
ROOT
HETATM    1  O   UNL     1      -7.702  15.817  68.873  1.00  0.00    -0.157 OA 
HETATM    2  C   UNL     1      -8.945  15.917  68.772  1.00  0.00    -0.216 C  
HETATM    3  CA  UNL     1      -9.761  14.572  68.532  1.00  0.00    -0.224 C  
HETATM    4  OXT UNL     1      -9.669  16.960  68.823  1.00  0.00    -0.247 OA 
HETATM    5  C   UNL     1     -11.102  14.546  68.737  1.00  0.00    -0.267 C  
HETATM    6  C   UNL     1     -11.994  13.340  68.596  1.00  0.00    -0.310 C  
HETATM    7  CA  UNL     1      -8.603  11.411  68.092  1.00  0.00    -0.153 C  
HETATM    8  S   UNL     1     -11.392  11.843  67.836  1.00  0.00    -0.312 SA 
HETATM    9  N   UNL     1      -9.136  13.401  68.213  1.00  0.00    -0.191 N  
HETATM   10  O   UNL     1      -6.960  13.041  69.137  1.00  0.00    -0.094 OA 
HETATM   11  C   UNL     1      -9.704  12.316  67.452  1.00  0.00    -0.185 C  
HETATM   12  C   UNL     1      -7.967  12.780  68.524  1.00  0.00    -0.095 C  
ENDROOT
BRANCH   5  13
HETATM   13  C   UNL     1     -11.891  15.741  69.242  1.00  0.00    -0.346 C  
BRANCH  13  14
HETATM   14  N   UNL     1     -12.444  15.649  70.628  1.00  0.00    -0.429 NA 
HETATM   15  C   UNL     1     -14.271  15.411  72.146  1.00  0.00    -0.660 A  
HETATM   16  C   UNL     1     -13.507  15.958  73.168  1.00  0.00    -0.650 A  
HETATM   17  C   UNL     1     -13.714  15.252  70.877  1.00  0.00    -0.293 A  
HETATM   18  C   UNL     1     -11.663  16.094  71.642  1.00  0.00    -0.484 A  
HETATM   19  C   UNL     1     -12.182  16.279  72.919  1.00  0.00    -0.610 A  
ENDBRANCH  13  14
ENDBRANCH   5  13
BRANCH   7  20
HETATM   20  N   UNL     1      -8.965  10.503  69.252  1.00  0.00    -0.304 N  
HETATM   21  H   UNL     1      -8.811  10.835  70.205  1.00  0.00     0.000 HD 
HETATM   22  O   UNL     1      -9.610   8.663  67.984  1.00  0.00    -0.145 OA 
HETATM   23  C   UNL     1      -9.496   9.239  69.062  1.00  0.00    -0.155 C  
BRANCH  23  24
HETATM   24  C   UNL     1     -10.008   8.483  70.267  1.00  0.00    -0.183 C  
BRANCH  24  25
HETATM   25  N   UNL     1      -9.482   7.408  70.785  1.00  0.00    -0.167 NA 
HETATM   26  H   UNL     1      -8.952   7.433  71.656  1.00  0.00     0.000 HD 
BRANCH  25  27
HETATM   27  O   UNL     1      -9.686   6.218  70.076  1.00  0.00    -0.165 OA 
HETATM   28  C   UNL     1      -9.321   3.859  69.969  1.00  0.00    -0.247 C  
HETATM   29  C   UNL     1     -10.354   4.903  71.993  1.00  0.00    -0.263 C  
HETATM   30  O   UNL     1      -7.460   6.385  71.861  1.00  0.00    -0.091 OA 
HETATM   31  O   UNL     1      -7.230   4.154  71.835  1.00  0.00    -0.054 OA 
HETATM   32  C   UNL     1      -9.301   5.089  70.892  1.00  0.00    -0.151 C  
HETATM   33  C   UNL     1      -7.897   5.141  71.555  1.00  0.00    -0.111 C  
ENDBRANCH  25  27
ENDBRANCH  24  25
BRANCH  24  34
HETATM   34  C   UNL     1     -11.274   8.909  70.873  1.00  0.00    -0.279 A  
HETATM   35  H2  UNL     1     -14.048  11.668  72.564  1.00  0.00     0.000 HD 
HETATM   36  C   UNL     1     -12.238   8.061  71.388  1.00  0.00    -0.309 A  
HETATM   37  S   UNL     1     -13.500   8.969  72.104  1.00  0.00    -0.489 SA 
HETATM   38  H1  UNL     1     -12.686  12.480  71.798  1.00  0.00     0.000 HD 
HETATM   39  N   UNL     1     -13.172  11.618  72.043  1.00  0.00    -0.457 NA 
HETATM   40  N   UNL     1     -11.567  10.265  71.027  1.00  0.00    -0.359 NA 
HETATM   41  C   UNL     1     -12.682  10.419  71.693  1.00  0.00    -0.455 A  
ENDBRANCH  24  34
ENDBRANCH  23  24
ENDBRANCH   7  20
TORSDOF 7
ENDMDL
MODEL        8
REMARK 921   NORMALIZED FREE ENERGY PREDICTED BY IDOCK:   -7.44 KCAL/MOL
REMARK 922        TOTAL FREE ENERGY PREDICTED BY IDOCK:  -12.03 KCAL/MOL
REMARK 923 INTER-LIGAND FREE ENERGY PREDICTED BY IDOCK:  -10.28 KCAL/MOL
REMARK 924 INTRA-LIGAND FREE ENERGY PREDICTED BY IDOCK:   -1.74 KCAL/MOL
REMARK 927      BINDING AFFINITY PREDICTED BY RF-SCORE:    0.00 PKD
ROOT
HETATM    1  O   UNL     1     -12.327  14.715  63.832  1.00  0.00    -0.730 OA 
HETATM    2  C   UNL     1     -11.598  15.481  64.500  1.00  0.00    -0.283 C  
HETATM    3  CA  UNL     1     -11.114  14.959  65.923  1.00  0.00    -0.338 C  
HETATM    4  OXT UNL     1     -11.186  16.647  64.208  1.00  0.00    -1.098 OA 
HETATM    5  C   UNL     1     -10.078  15.568  66.554  1.00  0.00    -0.290 C  
HETATM    6  C   UNL     1      -9.483  15.158  67.875  1.00  0.00    -0.194 C  
HETATM    7  CA  UNL     1     -11.898  12.072  67.528  1.00  0.00    -0.205 C  
HETATM    8  S   UNL     1     -10.303  13.961  68.914  1.00  0.00    -0.094 SA 
HETATM    9  N   UNL     1     -11.649  13.842  66.498  1.00  0.00    -0.352 N  
HETATM   10  O   UNL     1     -12.349  12.089  65.030  1.00  0.00    -0.399 OA 
HETATM   11  C   UNL     1     -11.743  13.578  67.912  1.00  0.00    -0.357 C  
HETATM   12  C   UNL     1     -12.123  12.638  66.081  1.00  0.00    -0.333 C  
ENDROOT
BRANCH   5  13
HETATM   13  C   UNL     1      -9.298  16.722  65.949  1.00  0.00    -0.127 C  
BRANCH  13  14
HETATM   14  N   UNL     1      -9.385  18.039  66.653  1.00  0.00    -0.284 NA 
HETATM   15  C   UNL     1     -10.641  19.789  67.679  1.00  0.00    -0.530 A  
HETATM   16  C   UNL     1      -9.576  20.665  67.515  1.00  0.00    -0.507 A  
HETATM   17  C   UNL     1     -10.521  18.467  67.251  1.00  0.00    -0.419 A  
HETATM   18  C   UNL     1      -8.309  18.859  66.576  1.00  0.00    -0.302 A  
HETATM   19  C   UNL     1      -8.390  20.187  66.980  1.00  0.00    -0.382 A  
ENDBRANCH  13  14
ENDBRANCH   5  13
BRANCH   7  20
HETATM   20  N   UNL     1     -10.704  11.143  67.651  1.00  0.00    -0.214 N  
HETATM   21  H   UNL     1      -9.973  11.184  66.941  1.00  0.00     0.000 HD 
HETATM   22  O   UNL     1     -11.432   9.992  69.537  1.00  0.00    -0.208 OA 
HETATM   23  C   UNL     1     -10.576  10.242  68.694  1.00  0.00    -0.208 C  
BRANCH  23  24
HETATM   24  C   UNL     1      -9.269   9.497  68.846  1.00  0.00    -0.145 C  
BRANCH  24  25
HETATM   25  N   UNL     1      -8.310   9.430  67.964  1.00  0.00    -0.119 NA 
HETATM   26  H   UNL     1      -7.527  10.084  67.969  1.00  0.00     0.000 HD 
BRANCH  25  27
HETATM   27  O   UNL     1      -8.419   8.411  67.012  1.00  0.00    -0.119 OA 
HETATM   28  C   UNL     1      -8.017   7.718  64.760  1.00  0.00    -0.142 C  
HETATM   29  C   UNL     1      -6.160   8.619  66.173  1.00  0.00    -0.049 C  
HETATM   30  O   UNL     1      -8.243  11.117  66.109  1.00  0.00    -0.169 OA 
HETATM   31  O   UNL     1      -7.741  10.428  64.034  1.00  0.00    -0.128 OA 
HETATM   32  C   UNL     1      -7.651   8.755  65.836  1.00  0.00    -0.090 C  
HETATM   33  C   UNL     1      -7.892  10.160  65.219  1.00  0.00    -0.143 C  
ENDBRANCH  25  27
ENDBRANCH  24  25
BRANCH  24  34
HETATM   34  C   UNL     1      -9.070   8.673  70.043  1.00  0.00    -0.156 A  
HETATM   35  H2  UNL     1      -7.827   7.836  74.034  1.00  0.00     0.000 HD 
HETATM   36  C   UNL     1      -9.182   7.294  70.092  1.00  0.00    -0.152 A  
HETATM   37  S   UNL     1      -8.757   6.722  71.647  1.00  0.00    -0.125 SA 
HETATM   38  H1  UNL     1      -7.806   9.561  73.679  1.00  0.00     0.000 HD 
HETATM   39  N   UNL     1      -7.991   8.603  73.381  1.00  0.00    -0.411 NA 
HETATM   40  N   UNL     1      -8.679   9.255  71.250  1.00  0.00    -0.308 NA 
HETATM   41  C   UNL     1      -8.445   8.333  72.148  1.00  0.00    -0.179 A  
ENDBRANCH  24  34
ENDBRANCH  23  24
ENDBRANCH   7  20
TORSDOF 7
ENDMDL
MODEL        9
REMARK 921   NORMALIZED FREE ENERGY PREDICTED BY IDOCK:   -7.41 KCAL/MOL
REMARK 922        TOTAL FREE ENERGY PREDICTED BY IDOCK:  -11.99 KCAL/MOL
REMARK 923 INTER-LIGAND FREE ENERGY PREDICTED BY IDOCK:  -10.21 KCAL/MOL
REMARK 924 INTRA-LIGAND FREE ENERGY PREDICTED BY IDOCK:   -1.77 KCAL/MOL
REMARK 927      BINDING AFFINITY PREDICTED BY RF-SCORE:    0.00 PKD
ROOT
HETATM    1  O   UNL     1     -13.514  11.280  71.976  1.00  0.00    -0.389 OA 
HETATM    2  C   UNL     1     -12.689  10.363  71.765  1.00  0.00    -0.421 C  
HETATM    3  CA  UNL     1     -11.602  10.617  70.631  1.00  0.00    -0.336 C  
HETATM    4  OXT UNL     1     -12.596   9.228  72.328  1.00  0.00    -0.369 OA 
HETATM    5  C   UNL     1     -10.494   9.835  70.566  1.00  0.00    -0.366 C  
HETATM    6  C   UNL     1      -9.363   9.986  69.582  1.00  0.00    -0.220 C  
HETATM    7  CA  UNL     1     -11.261  13.271  68.542  1.00  0.00    -0.271 C  
HETATM    8  S   UNL     1      -9.517  11.067  68.172  1.00  0.00    -0.179 SA 
HETATM    9  N   UNL     1     -11.698  11.669  69.766  1.00  0.00    -0.331 N  
HETATM   10  O   UNL     1     -12.684  13.680  70.604  1.00  0.00    -0.298 OA 
HETATM   11  C   UNL     1     -11.172  11.716  68.425  1.00  0.00    -0.249 C  
HETATM   12  C   UNL     1     -12.129  12.958  69.812  1.00  0.00    -0.245 C  
ENDROOT
BRANCH   5  13
HETATM   13  C   UNL     1     -10.194   8.731  71.564  1.00  0.00    -0.300 C  
BRANCH  13  14
HETATM   14  N   UNL     1     -10.092   7.341  71.023  1.00  0.00    -0.192 NA 
HETATM   15  C   UNL     1      -8.830   5.386  70.490  1.00  0.00    -0.148 A  
HETATM   16  C   UNL     1      -9.815   4.980  69.600  1.00  0.00    -0.290 A  
HETATM   17  C   UNL     1      -8.993   6.571  71.207  1.00  0.00    -0.141 A  
HETATM   18  C   UNL     1     -11.099   6.904  70.230  1.00  0.00    -0.297 A  
HETATM   19  C   UNL     1     -10.972   5.735  69.488  1.00  0.00    -0.374 A  
ENDBRANCH  13  14
ENDBRANCH   5  13
BRANCH   7  20
HETATM   20  N   UNL     1     -10.004  14.071  68.834  1.00  0.00    -0.393 N  
HETATM   21  H   UNL     1      -9.192  13.589  69.220  1.00  0.00     0.000 HD 
HETATM   22  O   UNL     1     -10.855  16.158  68.261  1.00  0.00    -0.297 OA 
HETATM   23  C   UNL     1      -9.924  15.432  68.593  1.00  0.00    -0.210 C  
BRANCH  23  24
HETATM   24  C   UNL     1      -8.579  16.110  68.728  1.00  0.00    -0.236 C  
BRANCH  24  25
HETATM   25  N   UNL     1      -8.354  17.394  68.695  1.00  0.00    -0.275 NA 
HETATM   26  H   UNL     1      -8.534  17.994  69.500  1.00  0.00     0.000 HD 
BRANCH  25  27
HETATM   27  O   UNL     1      -7.852  17.901  67.490  1.00  0.00    -0.209 OA 
HETATM   28  C   UNL     1      -7.666  19.781  66.029  1.00  0.00    -0.340 C  
HETATM   29  C   UNL     1      -6.991  19.956  68.431  1.00  0.00    -0.335 C  
HETATM   30  O   UNL     1     -10.137  19.158  68.661  1.00  0.00    -0.391 OA 
HETATM   31  O   UNL     1      -9.852  20.963  67.359  1.00  0.00    -0.444 OA 
HETATM   32  C   UNL     1      -8.007  19.337  67.461  1.00  0.00    -0.260 C  
HETATM   33  C   UNL     1      -9.415  19.904  67.793  1.00  0.00    -0.362 C  
ENDBRANCH  25  27
ENDBRANCH  24  25
BRANCH  24  34
HETATM   34  C   UNL     1      -7.378  15.270  68.799  1.00  0.00    -0.131 A  
HETATM   35  H2  UNL     1      -4.626  12.291  67.486  1.00  0.00     0.000 HD 
HETATM   36  C   UNL     1      -6.582  15.107  69.919  1.00  0.00    -0.172 A  
HETATM   37  S   UNL     1      -5.355  13.955  69.608  1.00  0.00    -0.088 SA 
HETATM   38  H1  UNL     1      -5.781  12.728  66.231  1.00  0.00     0.000 HD 
HETATM   39  N   UNL     1      -5.419  12.853  67.176  1.00  0.00    -0.341 NA 
HETATM   40  N   UNL     1      -6.983  14.501  67.702  1.00  0.00    -0.177 NA 
HETATM   41  C   UNL     1      -5.965  13.743  68.019  1.00  0.00    -0.135 A  
ENDBRANCH  24  34
ENDBRANCH  23  24
ENDBRANCH   7  20
TORSDOF 7
ENDMDL
MODEL       10
REMARK 921   NORMALIZED FREE ENERGY PREDICTED BY IDOCK:   -7.40 KCAL/MOL
REMARK 922        TOTAL FREE ENERGY PREDICTED BY IDOCK:  -11.97 KCAL/MOL
REMARK 923 INTER-LIGAND FREE ENERGY PREDICTED BY IDOCK:  -10.30 KCAL/MOL
REMARK 924 INTRA-LIGAND FREE ENERGY PREDICTED BY IDOCK:   -1.67 KCAL/MOL
REMARK 927      BINDING AFFINITY PREDICTED BY RF-SCORE:    0.00 PKD
ROOT
HETATM    1  O   UNL     1     -12.518  14.881  63.797  1.00  0.00    -0.768 OA 
HETATM    2  C   UNL     1     -11.737  15.623  64.433  1.00  0.00    -0.218 C  
HETATM    3  CA  UNL     1     -11.210  15.084  65.835  1.00  0.00    -0.313 C  
HETATM    4  OXT UNL     1     -11.301  16.775  64.124  1.00  0.00    -1.194 OA 
HETATM    5  C   UNL     1     -10.130  15.659  66.421  1.00  0.00    -0.301 C  
HETATM    6  C   UNL     1      -9.493  15.229  67.716  1.00  0.00    -0.197 C  
HETATM    7  CA  UNL     1     -12.019  12.222  67.473  1.00  0.00    -0.140 C  
HETATM    8  S   UNL     1     -10.307  14.058  68.789  1.00  0.00    -0.186 SA 
HETATM    9  N   UNL     1     -11.757  13.985  66.433  1.00  0.00    -0.372 N  
HETATM   10  O   UNL     1     -12.573  12.256  64.996  1.00  0.00    -0.575 OA 
HETATM   11  C   UNL     1     -11.799  13.722  67.849  1.00  0.00    -0.378 C  
HETATM   12  C   UNL     1     -12.286  12.796  66.036  1.00  0.00    -0.314 C  
ENDROOT
BRANCH   5  13
HETATM   13  C   UNL     1      -9.340  16.788  65.783  1.00  0.00     0.003 C  
BRANCH  13  14
HETATM   14  N   UNL     1      -9.379  18.114  66.473  1.00  0.00    -0.296 NA 
HETATM   15  C   UNL     1     -10.573  19.962  67.399  1.00  0.00    -0.505 A  
HETATM   16  C   UNL     1      -9.436  20.755  67.308  1.00  0.00    -0.467 A  
HETATM   17  C   UNL     1     -10.520  18.631  66.986  1.00  0.00    -0.407 A  
HETATM   18  C   UNL     1      -8.243  18.852  66.471  1.00  0.00    -0.297 A  
HETATM   19  C   UNL     1      -8.253  20.187  66.862  1.00  0.00    -0.363 A  
ENDBRANCH  13  14
ENDBRANCH   5  13
BRANCH   7  20
HETATM   20  N   UNL     1     -10.851  11.255  67.546  1.00  0.00    -0.228 N  
HETATM   21  H   UNL     1     -10.227  11.175  66.743  1.00  0.00     0.000 HD 
HETATM   22  O   UNL     1     -11.341  10.374  69.642  1.00  0.00    -0.242 OA 
HETATM   23  C   UNL     1     -10.605  10.479  68.665  1.00  0.00    -0.200 C  
BRANCH  23  24
HETATM   24  C   UNL     1      -9.316   9.692  68.728  1.00  0.00    -0.148 C  
BRANCH  24  25
HETATM   25  N   UNL     1      -8.833   9.081  69.774  1.00  0.00    -0.144 NA 
HETATM   26  H   UNL     1      -8.629   9.577  70.642  1.00  0.00     0.000 HD 
BRANCH  25  27
HETATM   27  O   UNL     1      -8.612   7.706  69.637  1.00  0.00    -0.133 OA 
HETATM   28  C   UNL     1      -8.950   5.520  70.541  1.00  0.00    -0.153 C  
HETATM   29  C   UNL     1     -10.888   7.043  70.119  1.00  0.00    -0.285 C  
HETATM   30  O   UNL     1      -9.121   8.760  72.245  1.00  0.00    -0.355 OA 
HETATM   31  O   UNL     1      -9.557   6.702  73.027  1.00  0.00    -0.145 OA 
HETATM   32  C   UNL     1      -9.428   6.981  70.586  1.00  0.00    -0.165 C  
HETATM   33  C   UNL     1      -9.363   7.439  72.068  1.00  0.00    -0.132 C  
ENDBRANCH  25  27
ENDBRANCH  24  25
BRANCH  24  34
HETATM   34  C   UNL     1      -8.446   9.683  67.546  1.00  0.00    -0.125 A  
HETATM   35  H2  UNL     1      -7.195   8.522  63.640  1.00  0.00     0.000 HD 
HETATM   36  C   UNL     1      -7.164  10.201  67.494  1.00  0.00    -0.088 A  
HETATM   37  S   UNL     1      -6.459   9.879  65.968  1.00  0.00    -0.090 SA 
HETATM   38  H1  UNL     1      -8.840   8.004  63.992  1.00  0.00     0.000 HD 
HETATM   39  N   UNL     1      -7.988   8.485  64.280  1.00  0.00    -0.142 NA 
HETATM   40  N   UNL     1      -8.860   9.066  66.364  1.00  0.00    -0.139 NA 
HETATM   41  C   UNL     1      -7.892   9.069  65.484  1.00  0.00    -0.096 A  
ENDBRANCH  24  34
ENDBRANCH  23  24
ENDBRANCH   7  20
TORSDOF 7
ENDMDL
MODEL       11
REMARK 921   NORMALIZED FREE ENERGY PREDICTED BY IDOCK:   -7.40 KCAL/MOL
REMARK 922        TOTAL FREE ENERGY PREDICTED BY IDOCK:  -11.97 KCAL/MOL
REMARK 923 INTER-LIGAND FREE ENERGY PREDICTED BY IDOCK:   -9.97 KCAL/MOL
REMARK 924 INTRA-LIGAND FREE ENERGY PREDICTED BY IDOCK:   -1.99 KCAL/MOL
REMARK 927      BINDING AFFINITY PREDICTED BY RF-SCORE:    0.00 PKD
ROOT
HETATM    1  O   UNL     1      -7.547  14.858  69.203  1.00  0.00    -0.140 OA 
HETATM    2  C   UNL     1      -8.694  15.324  69.025  1.00  0.00    -0.226 C  
HETATM    3  CA  UNL     1      -9.729  14.413  68.231  1.00  0.00    -0.222 C  
HETATM    4  OXT UNL     1      -9.162  16.450  69.382  1.00  0.00    -0.201 OA 
HETATM    5  C   UNL     1     -11.057  14.691  68.281  1.00  0.00    -0.283 C  
HETATM    6  C   UNL     1     -12.152  13.894  67.623  1.00  0.00    -0.307 C  
HETATM    7  CA  UNL     1      -9.244  11.381  66.782  1.00  0.00    -0.177 C  
HETATM    8  S   UNL     1     -11.767  12.624  66.431  1.00  0.00    -0.399 SA 
HETATM    9  N   UNL     1      -9.333  13.286  67.569  1.00  0.00    -0.209 N  
HETATM   10  O   UNL     1      -7.507  12.058  68.505  1.00  0.00    -0.107 OA 
HETATM   11  C   UNL     1      -9.974  12.712  66.413  1.00  0.00    -0.255 C  
HETATM   12  C   UNL     1      -8.412  12.301  67.744  1.00  0.00    -0.163 C  
ENDROOT
BRANCH   5  13
HETATM   13  C   UNL     1     -11.639  15.823  69.108  1.00  0.00    -0.392 C  
BRANCH  13  14
HETATM   14  N   UNL     1     -12.240  15.457  70.427  1.00  0.00    -0.365 NA 
HETATM   15  C   UNL     1     -14.124  15.155  71.862  1.00  0.00    -0.649 A  
HETATM   16  C   UNL     1     -13.302  15.243  72.977  1.00  0.00    -0.610 A  
HETATM   17  C   UNL     1     -13.569  15.251  70.586  1.00  0.00    -0.131 A  
HETATM   18  C   UNL     1     -11.420  15.448  71.506  1.00  0.00    -0.413 A  
HETATM   19  C   UNL     1     -11.933  15.367  72.796  1.00  0.00    -0.552 A  
ENDBRANCH  13  14
ENDBRANCH   5  13
BRANCH   7  20
HETATM   20  N   UNL     1     -10.012  10.279  67.489  1.00  0.00    -0.182 N  
HETATM   21  H   UNL     1     -11.008  10.410  67.669  1.00  0.00     0.000 HD 
HETATM   22  O   UNL     1      -8.202   8.869  67.869  1.00  0.00    -0.109 OA 
HETATM   23  C   UNL     1      -9.406   9.104  67.898  1.00  0.00    -0.137 C  
BRANCH  23  24
HETATM   24  C   UNL     1     -10.280   7.985  68.417  1.00  0.00    -0.207 C  
BRANCH  24  25
HETATM   25  N   UNL     1     -11.231   8.093  69.303  1.00  0.00    -0.412 NA 
HETATM   26  H   UNL     1     -11.734   7.280  69.656  1.00  0.00     0.000 HD 
BRANCH  25  27
HETATM   27  O   UNL     1     -11.520   9.391  69.740  1.00  0.00    -0.119 OA 
HETATM   28  C   UNL     1     -12.493  10.765  71.435  1.00  0.00    -0.478 C  
HETATM   29  C   UNL     1     -10.759   9.058  72.012  1.00  0.00    -0.333 C  
HETATM   30  O   UNL     1     -13.115   7.228  70.714  1.00  0.00    -0.134 OA 
HETATM   31  O   UNL     1     -13.910   8.515  72.371  1.00  0.00    -0.350 OA 
HETATM   32  C   UNL     1     -11.968   9.356  71.115  1.00  0.00    -0.337 C  
HETATM   33  C   UNL     1     -13.102   8.354  71.464  1.00  0.00    -0.296 C  
ENDBRANCH  25  27
ENDBRANCH  24  25
BRANCH  24  34
HETATM   34  C   UNL     1      -9.990   6.614  67.982  1.00  0.00    -0.142 A  
HETATM   35  H2  UNL     1     -10.076   3.261  65.351  1.00  0.00     0.000 HD 
HETATM   36  C   UNL     1      -9.507   5.604  68.795  1.00  0.00    -0.126 A  
HETATM   37  S   UNL     1      -9.419   4.135  67.922  1.00  0.00    -0.152 SA 
HETATM   38  H1  UNL     1     -10.633   4.736  64.567  1.00  0.00     0.000 HD 
HETATM   39  N   UNL     1     -10.268   4.262  65.393  1.00  0.00    -0.237 NA 
HETATM   40  N   UNL     1     -10.253   6.213  66.671  1.00  0.00    -0.190 NA 
HETATM   41  C   UNL     1     -10.034   4.931  66.532  1.00  0.00    -0.232 A  
ENDBRANCH  24  34
ENDBRANCH  23  24
ENDBRANCH   7  20
TORSDOF 7
ENDMDL
MODEL       12
REMARK 921   NORMALIZED FREE ENERGY PREDICTED BY IDOCK:   -7.38 KCAL/MOL
REMARK 922        TOTAL FREE ENERGY PREDICTED BY IDOCK:  -11.93 KCAL/MOL
REMARK 923 INTER-LIGAND FREE ENERGY PREDICTED BY IDOCK:  -10.26 KCAL/MOL
REMARK 924 INTRA-LIGAND FREE ENERGY PREDICTED BY IDOCK:   -1.67 KCAL/MOL
REMARK 927      BINDING AFFINITY PREDICTED BY RF-SCORE:    0.00 PKD
ROOT
HETATM    1  O   UNL     1     -12.564  15.090  63.723  1.00  0.00    -0.776 OA 
HETATM    2  C   UNL     1     -11.745  15.729  64.421  1.00  0.00    -0.201 C  
HETATM    3  CA  UNL     1     -11.115  14.970  65.670  1.00  0.00    -0.349 C  
HETATM    4  OXT UNL     1     -11.341  16.925  64.284  1.00  0.00    -1.202 OA 
HETATM    5  C   UNL     1     -10.000  15.459  66.270  1.00  0.00    -0.308 C  
HETATM    6  C   UNL     1      -9.269  14.827  67.425  1.00  0.00    -0.196 C  
HETATM    7  CA  UNL     1     -11.782  11.856  66.848  1.00  0.00    -0.212 C  
HETATM    8  S   UNL     1      -9.994  13.475  68.336  1.00  0.00    -0.209 SA 
HETATM    9  N   UNL     1     -11.609  13.775  66.108  1.00  0.00    -0.339 N  
HETATM   10  O   UNL     1     -12.513  12.300  64.457  1.00  0.00    -0.439 OA 
HETATM   11  C   UNL     1     -11.547  13.274  67.458  1.00  0.00    -0.346 C  
HETATM   12  C   UNL     1     -12.156  12.661  65.552  1.00  0.00    -0.458 C  
ENDROOT
BRANCH   5  13
HETATM   13  C   UNL     1      -9.266  16.695  65.781  1.00  0.00     0.003 C  
BRANCH  13  14
HETATM   14  N   UNL     1      -9.236  17.871  66.703  1.00  0.00    -0.271 NA 
HETATM   15  C   UNL     1      -8.202  19.158  68.428  1.00  0.00    -0.384 A  
HETATM   16  C   UNL     1      -9.417  19.766  68.717  1.00  0.00    -0.344 A  
HETATM   17  C   UNL     1      -8.128  18.217  67.401  1.00  0.00    -0.227 A  
HETATM   18  C   UNL     1     -10.401  18.528  66.915  1.00  0.00    -0.397 A  
HETATM   19  C   UNL     1     -10.522  19.465  67.936  1.00  0.00    -0.536 A  
ENDBRANCH  13  14
ENDBRANCH   5  13
BRANCH   7  20
HETATM   20  N   UNL     1     -10.605  10.914  66.673  1.00  0.00    -0.254 N  
HETATM   21  H   UNL     1     -10.047  10.976  65.821  1.00  0.00     0.000 HD 
HETATM   22  O   UNL     1     -10.918   9.701  68.633  1.00  0.00    -0.195 OA 
HETATM   23  C   UNL     1     -10.264   9.975  67.631  1.00  0.00    -0.204 C  
BRANCH  23  24
HETATM   24  C   UNL     1      -8.967   9.215  67.466  1.00  0.00    -0.122 C  
BRANCH  24  25
HETATM   25  N   UNL     1      -8.787   7.941  67.675  1.00  0.00    -0.128 NA 
HETATM   26  H   UNL     1      -8.208   7.597  68.441  1.00  0.00     0.000 HD 
BRANCH  25  27
HETATM   27  O   UNL     1      -9.433   7.073  66.787  1.00  0.00    -0.151 OA 
HETATM   28  C   UNL     1     -10.414   4.922  66.442  1.00  0.00    -0.325 C  
HETATM   29  C   UNL     1     -11.157   6.378  68.334  1.00  0.00    -0.374 C  
HETATM   30  O   UNL     1      -7.998   5.959  68.994  1.00  0.00    -0.096 OA 
HETATM   31  O   UNL     1      -9.037   3.989  68.717  1.00  0.00    -0.111 OA 
HETATM   32  C   UNL     1      -9.946   5.928  67.506  1.00  0.00    -0.143 C  
HETATM   33  C   UNL     1      -8.957   5.179  68.441  1.00  0.00    -0.106 C  
ENDBRANCH  25  27
ENDBRANCH  24  25
BRANCH  24  34
HETATM   34  C   UNL     1      -7.752   9.970  67.143  1.00  0.00    -0.092 A  
HETATM   35  H2  UNL     1      -5.266  13.424  66.880  1.00  0.00     0.000 HD 
HETATM   36  C   UNL     1      -6.713   9.512  66.352  1.00  0.00    -0.075 A  
HETATM   37  S   UNL     1      -5.549  10.747  66.134  1.00  0.00    -0.135 SA 
HETATM   38  H1  UNL     1      -6.696  13.707  67.869  1.00  0.00     0.000 HD 
HETATM   39  N   UNL     1      -6.130  13.078  67.299  1.00  0.00    -0.314 NA 
HETATM   40  N   UNL     1      -7.591  11.284  67.589  1.00  0.00    -0.102 NA 
HETATM   41  C   UNL     1      -6.500  11.805  67.091  1.00  0.00    -0.146 A  
ENDBRANCH  24  34
ENDBRANCH  23  24
ENDBRANCH   7  20
TORSDOF 7
ENDMDL
MODEL       13
REMARK 921   NORMALIZED FREE ENERGY PREDICTED BY IDOCK:   -7.37 KCAL/MOL
REMARK 922        TOTAL FREE ENERGY PREDICTED BY IDOCK:  -11.92 KCAL/MOL
REMARK 923 INTER-LIGAND FREE ENERGY PREDICTED BY IDOCK:  -10.35 KCAL/MOL
REMARK 924 INTRA-LIGAND FREE ENERGY PREDICTED BY IDOCK:   -1.57 KCAL/MOL
REMARK 927      BINDING AFFINITY PREDICTED BY RF-SCORE:    0.00 PKD
ROOT
HETATM    1  O   UNL     1      -7.717  15.835  68.684  1.00  0.00    -0.137 OA 
HETATM    2  C   UNL     1      -8.954  16.018  68.653  1.00  0.00    -0.210 C  
HETATM    3  CA  UNL     1      -9.845  14.837  68.066  1.00  0.00    -0.218 C  
HETATM    4  OXT UNL     1      -9.620  17.036  69.020  1.00  0.00    -0.255 OA 
HETATM    5  C   UNL     1     -11.182  14.816  68.296  1.00  0.00    -0.299 C  
HETATM    6  C   UNL     1     -12.139  13.743  67.846  1.00  0.00    -0.287 C  
HETATM    7  CA  UNL     1      -8.864  11.883  66.711  1.00  0.00    -0.193 C  
HETATM    8  S   UNL     1     -11.630  12.499  66.673  1.00  0.00    -0.379 SA 
HETATM    9  N   UNL     1      -9.288  13.778  67.409  1.00  0.00    -0.217 N  
HETATM   10  O   UNL     1      -7.120  13.067  68.126  1.00  0.00    -0.083 OA 
HETATM   11  C   UNL     1      -9.925  12.982  66.389  1.00  0.00    -0.277 C  
HETATM   12  C   UNL     1      -8.149  13.040  67.495  1.00  0.00    -0.179 C  
ENDROOT
BRANCH   5  13
HETATM   13  C   UNL     1     -11.897  15.853  69.143  1.00  0.00    -0.330 C  
BRANCH  13  14
HETATM   14  N   UNL     1     -12.240  15.461  70.545  1.00  0.00    -0.365 NA 
HETATM   15  C   UNL     1     -13.704  14.462  72.144  1.00  0.00    -0.557 A  
HETATM   16  C   UNL     1     -13.084  15.166  73.167  1.00  0.00    -0.625 A  
HETATM   17  C   UNL     1     -13.256  14.613  70.832  1.00  0.00    -0.337 A  
HETATM   18  C   UNL     1     -11.569  16.077  71.547  1.00  0.00    -0.456 A  
HETATM   19  C   UNL     1     -11.990  15.963  72.868  1.00  0.00    -0.609 A  
ENDBRANCH  13  14
ENDBRANCH   5  13
BRANCH   7  20
HETATM   20  N   UNL     1      -9.255  10.699  67.576  1.00  0.00    -0.143 N  
HETATM   21  H   UNL     1      -9.176  10.782  68.590  1.00  0.00     0.000 HD 
HETATM   22  O   UNL     1      -9.735   9.224  65.842  1.00  0.00    -0.265 OA 
HETATM   23  C   UNL     1      -9.716   9.511  67.036  1.00  0.00    -0.176 C  
BRANCH  23  24
HETATM   24  C   UNL     1     -10.265   8.458  67.971  1.00  0.00    -0.212 C  
BRANCH  24  25
HETATM   25  N   UNL     1     -10.983   8.672  69.039  1.00  0.00    -0.437 NA 
HETATM   26  H   UNL     1     -11.897   9.123  68.993  1.00  0.00     0.000 HD 
BRANCH  25  27
HETATM   27  O   UNL     1     -10.428   8.246  70.251  1.00  0.00    -0.209 OA 
HETATM   28  C   UNL     1     -10.715   7.991  72.609  1.00  0.00    -0.426 C  
HETATM   29  C   UNL     1     -12.385   7.042  71.007  1.00  0.00    -0.402 C  
HETATM   30  O   UNL     1     -12.496  10.218  70.308  1.00  0.00    -0.252 OA 
HETATM   31  O   UNL     1     -12.823   9.858  72.499  1.00  0.00    -0.232 OA 
HETATM   32  C   UNL     1     -11.446   8.226  71.277  1.00  0.00    -0.274 C  
HETATM   33  C   UNL     1     -12.305   9.509  71.446  1.00  0.00    -0.364 C  
ENDBRANCH  25  27
ENDBRANCH  24  25
BRANCH  24  34
HETATM   34  C   UNL     1      -9.887   7.058  67.747  1.00  0.00    -0.139 A  
HETATM   35  H2  UNL     1      -7.215   3.759  67.367  1.00  0.00     0.000 HD 
HETATM   36  C   UNL     1     -10.718   6.079  67.232  1.00  0.00    -0.318 A  
HETATM   37  S   UNL     1      -9.850   4.619  67.023  1.00  0.00    -0.196 SA 
HETATM   38  H1  UNL     1      -6.422   5.183  68.034  1.00  0.00     0.000 HD 
HETATM   39  N   UNL     1      -7.264   4.729  67.680  1.00  0.00    -0.069 NA 
HETATM   40  N   UNL     1      -8.583   6.625  67.997  1.00  0.00    -0.119 NA 
HETATM   41  C   UNL     1      -8.434   5.382  67.618  1.00  0.00    -0.105 A  
ENDBRANCH  24  34
ENDBRANCH  23  24
ENDBRANCH   7  20
TORSDOF 7
ENDMDL
MODEL       14
REMARK 921   NORMALIZED FREE ENERGY PREDICTED BY IDOCK:   -7.37 KCAL/MOL
REMARK 922        TOTAL FREE ENERGY PREDICTED BY IDOCK:  -11.92 KCAL/MOL
REMARK 923 INTER-LIGAND FREE ENERGY PREDICTED BY IDOCK:  -10.14 KCAL/MOL
REMARK 924 INTRA-LIGAND FREE ENERGY PREDICTED BY IDOCK:   -1.78 KCAL/MOL
REMARK 927      BINDING AFFINITY PREDICTED BY RF-SCORE:    0.00 PKD
ROOT
HETATM    1  O   UNL     1      -7.677  15.859  68.865  1.00  0.00    -0.166 OA 
HETATM    2  C   UNL     1      -8.920  15.980  68.780  1.00  0.00    -0.226 C  
HETATM    3  CA  UNL     1      -9.758  14.653  68.516  1.00  0.00    -0.225 C  
HETATM    4  OXT UNL     1      -9.627  17.032  68.863  1.00  0.00    -0.266 OA 
HETATM    5  C   UNL     1     -11.097  14.641  68.736  1.00  0.00    -0.274 C  
HETATM    6  C   UNL     1     -12.008  13.452  68.576  1.00  0.00    -0.328 C  
HETATM    7  CA  UNL     1      -8.651  11.487  67.989  1.00  0.00    -0.150 C  
HETATM    8  S   UNL     1     -11.436  11.965  67.774  1.00  0.00    -0.317 SA 
HETATM    9  N   UNL     1      -9.154  13.480  68.163  1.00  0.00    -0.195 N  
HETATM   10  O   UNL     1      -6.974  13.067  69.054  1.00  0.00    -0.098 OA 
HETATM   11  C   UNL     1      -9.745  12.422  67.383  1.00  0.00    -0.193 C  
HETATM   12  C   UNL     1      -7.990  12.836  68.447  1.00  0.00    -0.137 C  
ENDROOT
BRANCH   5  13
HETATM   13  C   UNL     1     -11.862  15.835  69.278  1.00  0.00    -0.346 C  
BRANCH  13  14
HETATM   14  N   UNL     1     -12.429  15.706  70.656  1.00  0.00    -0.429 NA 
HETATM   15  C   UNL     1     -14.268  15.407  72.148  1.00  0.00    -0.660 A  
HETATM   16  C   UNL     1     -13.524  15.946  73.189  1.00  0.00    -0.650 A  
HETATM   17  C   UNL     1     -13.694  15.282  70.883  1.00  0.00    -0.293 A  
HETATM   18  C   UNL     1     -11.666  16.144  71.687  1.00  0.00    -0.484 A  
HETATM   19  C   UNL     1     -12.202  16.295  72.961  1.00  0.00    -0.619 A  
ENDBRANCH  13  14
ENDBRANCH   5  13
BRANCH   7  20
HETATM   20  N   UNL     1      -9.014  10.556  69.132  1.00  0.00    -0.237 N  
HETATM   21  H   UNL     1      -8.879  10.877  70.090  1.00  0.00     0.000 HD 
HETATM   22  O   UNL     1      -9.610   8.723  67.829  1.00  0.00    -0.143 OA 
HETATM   23  C   UNL     1      -9.521   9.287  68.916  1.00  0.00    -0.154 C  
BRANCH  23  24
HETATM   24  C   UNL     1     -10.036   8.505  70.103  1.00  0.00    -0.190 C  
BRANCH  24  25
HETATM   25  N   UNL     1      -9.496   7.436  70.618  1.00  0.00    -0.164 NA 
HETATM   26  H   UNL     1      -9.294   6.609  70.055  1.00  0.00     0.000 HD 
BRANCH  25  27
HETATM   27  O   UNL     1      -9.208   7.488  71.986  1.00  0.00    -0.130 OA 
HETATM   28  C   UNL     1      -8.716   6.267  73.981  1.00  0.00    -0.130 C  
HETATM   29  C   UNL     1      -7.359   5.931  71.907  1.00  0.00    -0.094 C  
HETATM   30  O   UNL     1     -10.343   5.093  70.915  1.00  0.00    -0.229 OA 
HETATM   31  O   UNL     1      -9.749   3.951  72.752  1.00  0.00    -0.128 OA 
HETATM   32  C   UNL     1      -8.773   6.188  72.446  1.00  0.00    -0.125 C  
HETATM   33  C   UNL     1      -9.669   4.973  72.083  1.00  0.00    -0.161 C  
ENDBRANCH  25  27
ENDBRANCH  24  25
BRANCH  24  34
HETATM   34  C   UNL     1     -11.322   8.896  70.691  1.00  0.00    -0.259 A  
HETATM   35  H2  UNL     1     -14.168  11.563  72.411  1.00  0.00     0.000 HD 
HETATM   36  C   UNL     1     -12.290   8.020  71.150  1.00  0.00    -0.218 A  
HETATM   37  S   UNL     1     -13.580   8.888  71.866  1.00  0.00    -0.450 SA 
HETATM   38  H1  UNL     1     -12.795  12.417  71.711  1.00  0.00     0.000 HD 
HETATM   39  N   UNL     1     -13.279  11.541  71.911  1.00  0.00    -0.456 NA 
HETATM   40  N   UNL     1     -11.634  10.243  70.888  1.00  0.00    -0.359 NA 
HETATM   41  C   UNL     1     -12.767  10.361  71.530  1.00  0.00    -0.459 A  
ENDBRANCH  24  34
ENDBRANCH  23  24
ENDBRANCH   7  20
TORSDOF 7
ENDMDL
MODEL       15
REMARK 921   NORMALIZED FREE ENERGY PREDICTED BY IDOCK:   -7.34 KCAL/MOL
REMARK 922        TOTAL FREE ENERGY PREDICTED BY IDOCK:  -11.88 KCAL/MOL
REMARK 923 INTER-LIGAND FREE ENERGY PREDICTED BY IDOCK:  -10.51 KCAL/MOL
REMARK 924 INTRA-LIGAND FREE ENERGY PREDICTED BY IDOCK:   -1.37 KCAL/MOL
REMARK 927      BINDING AFFINITY PREDICTED BY RF-SCORE:    0.00 PKD
ROOT
HETATM    1  O   UNL     1     -10.655   8.488  66.499  1.00  0.00    -0.200 OA 
HETATM    2  C   UNL     1      -9.836   8.316  67.429  1.00  0.00    -0.188 C  
HETATM    3  CA  UNL     1      -8.994   9.585  67.894  1.00  0.00    -0.123 C  
HETATM    4  OXT UNL     1      -9.562   7.251  68.065  1.00  0.00    -0.138 OA 
HETATM    5  C   UNL     1      -8.343   9.568  69.085  1.00  0.00    -0.125 C  
HETATM    6  C   UNL     1      -7.550  10.705  69.674  1.00  0.00    -0.092 C  
HETATM    7  CA  UNL     1      -8.973  12.730  66.616  1.00  0.00    -0.150 C  
HETATM    8  S   UNL     1      -7.137  12.136  68.692  1.00  0.00    -0.106 SA 
HETATM    9  N   UNL     1      -8.982  10.742  67.171  1.00  0.00    -0.140 N  
HETATM   10  O   UNL     1     -10.982  11.310  65.989  1.00  0.00    -0.257 OA 
HETATM   11  C   UNL     1      -7.911  11.706  67.131  1.00  0.00    -0.163 C  
HETATM   12  C   UNL     1      -9.860  11.451  66.411  1.00  0.00    -0.211 C  
ENDROOT
BRANCH   5  13
HETATM   13  C   UNL     1      -8.406   8.399  70.052  1.00  0.00    -0.123 C  
BRANCH  13  14
HETATM   14  N   UNL     1      -9.489   8.432  71.082  1.00  0.00    -0.167 NA 
HETATM   15  C   UNL     1     -10.673   7.458  72.912  1.00  0.00    -0.387 A  
HETATM   16  C   UNL     1     -11.764   8.278  72.655  1.00  0.00    -0.406 A  
HETATM   17  C   UNL     1      -9.532   7.560  72.117  1.00  0.00    -0.147 A  
HETATM   18  C   UNL     1     -10.510   9.300  70.886  1.00  0.00    -0.302 A  
HETATM   19  C   UNL     1     -11.672   9.225  71.647  1.00  0.00    -0.462 A  
ENDBRANCH  13  14
ENDBRANCH   5  13
BRANCH   7  20
HETATM   20  N   UNL     1      -9.561  13.743  67.581  1.00  0.00    -0.214 N  
HETATM   21  H   UNL     1      -9.216  13.769  68.540  1.00  0.00     0.000 HD 
HETATM   22  O   UNL     1     -11.151  14.626  66.130  1.00  0.00    -0.323 OA 
HETATM   23  C   UNL     1     -10.552  14.632  67.201  1.00  0.00    -0.282 C  
BRANCH  23  24
HETATM   24  C   UNL     1     -10.941  15.732  68.163  1.00  0.00    -0.330 C  
BRANCH  24  25
HETATM   25  N   UNL     1     -10.681  17.003  68.031  1.00  0.00    -0.369 NA 
HETATM   26  H   UNL     1     -11.342  17.646  67.594  1.00  0.00     0.000 HD 
BRANCH  25  27
HETATM   27  O   UNL     1      -9.443  17.434  68.522  1.00  0.00    -0.280 OA 
HETATM   28  C   UNL     1      -7.668  19.026  68.367  1.00  0.00    -0.354 C  
HETATM   29  C   UNL     1     -10.037  19.775  68.659  1.00  0.00    -0.546 C  
HETATM   30  O   UNL     1     -10.178  18.137  65.851  1.00  0.00    -0.548 OA 
HETATM   31  O   UNL     1      -8.582  19.712  65.791  1.00  0.00    -0.395 OA 
HETATM   32  C   UNL     1      -9.129  18.738  67.983  1.00  0.00    -0.299 C  
HETATM   33  C   UNL     1      -9.241  18.913  66.444  1.00  0.00    -0.313 C  
ENDBRANCH  25  27
ENDBRANCH  24  25
BRANCH  24  34
HETATM   34  C   UNL     1     -11.580  15.357  69.430  1.00  0.00    -0.340 A  
HETATM   35  H2  UNL     1     -12.437  15.648  73.595  1.00  0.00     0.000 HD 
HETATM   36  C   UNL     1     -12.263  14.176  69.661  1.00  0.00    -0.326 A  
HETATM   37  S   UNL     1     -12.748  14.087  71.300  1.00  0.00    -0.380 SA 
HETATM   38  H1  UNL     1     -11.567  17.057  72.996  1.00  0.00     0.000 HD 
HETATM   39  N   UNL     1     -12.003  16.151  72.821  1.00  0.00    -0.521 NA 
HETATM   40  N   UNL     1     -11.480  16.186  70.549  1.00  0.00    -0.373 NA 
HETATM   41  C   UNL     1     -12.015  15.609  71.594  1.00  0.00    -0.430 A  
ENDBRANCH  24  34
ENDBRANCH  23  24
ENDBRANCH   7  20
TORSDOF 7
ENDMDL
MODEL       16
REMARK 921   NORMALIZED FREE ENERGY PREDICTED BY IDOCK:   -7.31 KCAL/MOL
REMARK 922        TOTAL FREE ENERGY PREDICTED BY IDOCK:  -11.84 KCAL/MOL
REMARK 923 INTER-LIGAND FREE ENERGY PREDICTED BY IDOCK:  -10.26 KCAL/MOL
REMARK 924 INTRA-LIGAND FREE ENERGY PREDICTED BY IDOCK:   -1.58 KCAL/MOL
REMARK 927      BINDING AFFINITY PREDICTED BY RF-SCORE:    0.00 PKD
ROOT
HETATM    1  O   UNL     1     -13.242  13.266  72.459  1.00  0.00    -0.485 OA 
HETATM    2  C   UNL     1     -13.041  12.277  71.719  1.00  0.00    -0.344 C  
HETATM    3  CA  UNL     1     -12.364  12.558  70.306  1.00  0.00    -0.190 C  
HETATM    4  OXT UNL     1     -13.314  11.055  71.929  1.00  0.00    -0.422 OA 
HETATM    5  C   UNL     1     -11.820  11.535  69.599  1.00  0.00    -0.421 C  
HETATM    6  C   UNL     1     -11.109  11.656  68.277  1.00  0.00    -0.234 C  
HETATM    7  CA  UNL     1     -11.498  15.521  68.894  1.00  0.00    -0.354 C  
HETATM    8  S   UNL     1     -11.171  13.174  67.341  1.00  0.00    -0.301 SA 
HETATM    9  N   UNL     1     -12.225  13.824  69.816  1.00  0.00    -0.327 N  
HETATM   10  O   UNL     1     -11.866  15.575  71.406  1.00  0.00    -0.321 OA 
HETATM   11  C   UNL     1     -12.174  14.195  68.424  1.00  0.00    -0.164 C  
HETATM   12  C   UNL     1     -11.978  15.064  70.318  1.00  0.00    -0.315 C  
ENDROOT
BRANCH   5  13
HETATM   13  C   UNL     1     -11.773  10.105  70.106  1.00  0.00    -0.256 C  
BRANCH  13  14
HETATM   14  N   UNL     1     -10.507   9.665  70.769  1.00  0.00    -0.307 NA 
HETATM   15  C   UNL     1      -8.167   9.196  70.719  1.00  0.00    -0.226 A  
HETATM   16  C   UNL     1      -8.290   8.407  71.855  1.00  0.00    -0.223 A  
HETATM   17  C   UNL     1      -9.293   9.832  70.195  1.00  0.00    -0.215 A  
HETATM   18  C   UNL     1     -10.618   8.976  71.930  1.00  0.00    -0.317 A  
HETATM   19  C   UNL     1      -9.524   8.316  72.480  1.00  0.00    -0.356 A  
ENDBRANCH  13  14
ENDBRANCH   5  13
BRANCH   7  20
HETATM   20  N   UNL     1      -9.993  15.677  68.770  1.00  0.00    -0.206 N  
HETATM   21  H   UNL     1      -9.418  14.841  68.659  1.00  0.00     0.000 HD 
HETATM   22  O   UNL     1      -9.920  17.984  69.059  1.00  0.00    -0.357 OA 
HETATM   23  C   UNL     1      -9.375  16.915  68.800  1.00  0.00    -0.260 C  
BRANCH  23  24
HETATM   24  C   UNL     1      -7.901  16.994  68.474  1.00  0.00    -0.251 C  
BRANCH  24  25
HETATM   25  N   UNL     1      -7.347  17.760  67.576  1.00  0.00    -0.196 NA 
HETATM   26  H   UNL     1      -7.202  17.448  66.616  1.00  0.00     0.000 HD 
BRANCH  25  27
HETATM   27  O   UNL     1      -6.965  19.036  68.006  1.00  0.00    -0.226 OA 
HETATM   28  C   UNL     1      -6.593  21.323  67.420  1.00  0.00    -0.402 C  
HETATM   29  C   UNL     1      -8.779  20.213  66.923  1.00  0.00    -0.412 C  
HETATM   30  O   UNL     1      -6.684  18.380  65.238  1.00  0.00    -0.490 OA 
HETATM   31  O   UNL     1      -6.467  20.551  64.712  1.00  0.00    -0.289 OA 
HETATM   32  C   UNL     1      -7.259  20.009  66.978  1.00  0.00    -0.241 C  
HETATM   33  C   UNL     1      -6.751  19.698  65.544  1.00  0.00    -0.285 C  
ENDBRANCH  25  27
ENDBRANCH  24  25
BRANCH  24  34
HETATM   34  C   UNL     1      -6.988  16.056  69.138  1.00  0.00    -0.189 A  
HETATM   35  H2  UNL     1      -5.581  12.245  70.429  1.00  0.00     0.000 HD 
HETATM   36  C   UNL     1      -5.983  16.409  70.021  1.00  0.00    -0.174 A  
HETATM   37  S   UNL     1      -5.234  15.007  70.654  1.00  0.00    -0.135 SA 
HETATM   38  H1  UNL     1      -6.885  12.109  69.253  1.00  0.00     0.000 HD 
HETATM   39  N   UNL     1      -6.255  12.690  69.805  1.00  0.00    -0.129 NA 
HETATM   40  N   UNL     1      -7.127  14.679  68.955  1.00  0.00    -0.109 NA 
HETATM   41  C   UNL     1      -6.294  14.029  69.726  1.00  0.00    -0.134 A  
ENDBRANCH  24  34
ENDBRANCH  23  24
ENDBRANCH   7  20
TORSDOF 7
ENDMDL
MODEL       17
REMARK 921   NORMALIZED FREE ENERGY PREDICTED BY IDOCK:   -7.29 KCAL/MOL
REMARK 922        TOTAL FREE ENERGY PREDICTED BY IDOCK:  -11.81 KCAL/MOL
REMARK 923 INTER-LIGAND FREE ENERGY PREDICTED BY IDOCK:   -9.90 KCAL/MOL
REMARK 924 INTRA-LIGAND FREE ENERGY PREDICTED BY IDOCK:   -1.91 KCAL/MOL
REMARK 927      BINDING AFFINITY PREDICTED BY RF-SCORE:    0.00 PKD
ROOT
HETATM    1  O   UNL     1      -7.729  16.413  69.079  1.00  0.00    -0.220 OA 
HETATM    2  C   UNL     1      -8.968  16.406  68.903  1.00  0.00    -0.256 C  
HETATM    3  CA  UNL     1      -9.633  15.014  68.510  1.00  0.00    -0.210 C  
HETATM    4  OXT UNL     1      -9.792  17.369  68.983  1.00  0.00    -0.283 OA 
HETATM    5  C   UNL     1     -10.975  14.846  68.624  1.00  0.00    -0.263 C  
HETATM    6  C   UNL     1     -11.734  13.579  68.335  1.00  0.00    -0.358 C  
HETATM    7  CA  UNL     1      -8.147  12.020  67.916  1.00  0.00    -0.150 C  
HETATM    8  S   UNL     1     -10.945  12.209  67.508  1.00  0.00    -0.273 SA 
HETATM    9  N   UNL     1      -8.879  13.935  68.148  1.00  0.00    -0.178 N  
HETATM   10  O   UNL     1      -6.736  13.706  69.187  1.00  0.00    -0.108 OA 
HETATM   11  C   UNL     1      -9.291  12.866  67.274  1.00  0.00    -0.212 C  
HETATM   12  C   UNL     1      -7.674  13.403  68.490  1.00  0.00    -0.124 C  
ENDROOT
BRANCH   5  13
HETATM   13  C   UNL     1     -11.905  15.919  69.162  1.00  0.00    -0.330 C  
BRANCH  13  14
HETATM   14  N   UNL     1     -12.478  15.696  70.524  1.00  0.00    -0.419 NA 
HETATM   15  C   UNL     1     -14.333  15.380  71.994  1.00  0.00    -0.653 A  
HETATM   16  C   UNL     1     -13.552  15.761  73.077  1.00  0.00    -0.638 A  
HETATM   17  C   UNL     1     -13.770  15.340  70.718  1.00  0.00    -0.189 A  
HETATM   18  C   UNL     1     -11.686  15.975  71.587  1.00  0.00    -0.506 A  
HETATM   19  C   UNL     1     -12.209  16.037  72.875  1.00  0.00    -0.621 A  
ENDBRANCH  13  14
ENDBRANCH   5  13
BRANCH   7  20
HETATM   20  N   UNL     1      -8.486  10.992  68.980  1.00  0.00    -0.317 N  
HETATM   21  H   UNL     1      -9.018  11.287  69.799  1.00  0.00     0.000 HD 
HETATM   22  O   UNL     1      -7.347   9.204  68.022  1.00  0.00    -0.082 OA 
HETATM   23  C   UNL     1      -8.098   9.667  68.876  1.00  0.00    -0.098 C  
BRANCH  23  24
HETATM   24  C   UNL     1      -8.642   8.675  69.878  1.00  0.00    -0.131 C  
BRANCH  24  25
HETATM   25  N   UNL     1      -9.890   8.321  70.015  1.00  0.00    -0.180 NA 
HETATM   26  H   UNL     1     -10.227   7.406  69.716  1.00  0.00     0.000 HD 
BRANCH  25  27
HETATM   27  O   UNL     1     -10.740   9.269  70.597  1.00  0.00    -0.227 OA 
HETATM   28  C   UNL     1     -12.695   9.673  71.910  1.00  0.00    -0.499 C  
HETATM   29  C   UNL     1     -10.869   8.189  72.757  1.00  0.00    -0.390 C  
HETATM   30  O   UNL     1     -11.775   6.666  70.028  1.00  0.00    -0.383 OA 
HETATM   31  O   UNL     1     -13.533   7.036  71.372  1.00  0.00    -0.345 OA 
HETATM   32  C   UNL     1     -11.652   8.616  71.508  1.00  0.00    -0.302 C  
HETATM   33  C   UNL     1     -12.431   7.386  70.969  1.00  0.00    -0.250 C  
ENDBRANCH  25  27
ENDBRANCH  24  25
BRANCH  24  34
HETATM   34  C   UNL     1      -7.725   8.117  70.877  1.00  0.00    -0.085 A  
HETATM   35  H2  UNL     1      -5.316   8.134  74.394  1.00  0.00     0.000 HD 
HETATM   36  C   UNL     1      -7.004   6.944  70.732  1.00  0.00    -0.066 A  
HETATM   37  S   UNL     1      -5.969   6.718  72.077  1.00  0.00    -0.038 SA 
HETATM   38  H1  UNL     1      -6.381   9.534  74.311  1.00  0.00     0.000 HD 
HETATM   39  N   UNL     1      -6.043   8.660  73.908  1.00  0.00    -0.121 NA 
HETATM   40  N   UNL     1      -7.467   8.800  72.067  1.00  0.00    -0.311 NA 
HETATM   41  C   UNL     1      -6.536   8.189  72.753  1.00  0.00    -0.085 A  
ENDBRANCH  24  34
ENDBRANCH  23  24
ENDBRANCH   7  20
TORSDOF 7
ENDMDL
MODEL       18
REMARK 921   NORMALIZED FREE ENERGY PREDICTED BY IDOCK:   -7.27 KCAL/MOL
REMARK 922        TOTAL FREE ENERGY PREDICTED BY IDOCK:  -11.78 KCAL/MOL
REMARK 923 INTER-LIGAND FREE ENERGY PREDICTED BY IDOCK:  -10.02 KCAL/MOL
REMARK 924 INTRA-LIGAND FREE ENERGY PREDICTED BY IDOCK:   -1.76 KCAL/MOL
REMARK 927      BINDING AFFINITY PREDICTED BY RF-SCORE:    0.00 PKD
ROOT
HETATM    1  O   UNL     1     -13.439  12.374  71.840  1.00  0.00    -0.423 OA 
HETATM    2  C   UNL     1     -12.791  11.337  71.571  1.00  0.00    -0.414 C  
HETATM    3  CA  UNL     1     -11.886  11.370  70.262  1.00  0.00    -0.350 C  
HETATM    4  OXT UNL     1     -12.757  10.233  72.198  1.00  0.00    -0.358 OA 
HETATM    5  C   UNL     1     -10.920  10.435  70.082  1.00  0.00    -0.365 C  
HETATM    6  C   UNL     1      -9.961  10.368  68.922  1.00  0.00    -0.199 C  
HETATM    7  CA  UNL     1     -11.553  13.831  67.948  1.00  0.00    -0.341 C  
HETATM    8  S   UNL     1     -10.206  11.383  67.475  1.00  0.00    -0.189 SA 
HETATM    9  N   UNL     1     -11.986  12.377  69.346  1.00  0.00    -0.289 N  
HETATM   10  O   UNL     1     -12.541  14.551  70.173  1.00  0.00    -0.341 OA 
HETATM   11  C   UNL     1     -11.692  12.276  67.939  1.00  0.00    -0.347 C  
HETATM   12  C   UNL     1     -12.229  13.715  69.360  1.00  0.00    -0.259 C  
ENDROOT
BRANCH   5  13
HETATM   13  C   UNL     1     -10.605   9.355  71.101  1.00  0.00    -0.333 C  
BRANCH  13  14
HETATM   14  N   UNL     1     -10.327   7.985  70.571  1.00  0.00    -0.200 NA 
HETATM   15  C   UNL     1     -11.055   5.885  69.700  1.00  0.00    -0.414 A  
HETATM   16  C   UNL     1      -9.840   5.308  70.046  1.00  0.00    -0.288 A  
HETATM   17  C   UNL     1     -11.276   7.237  69.960  1.00  0.00    -0.209 A  
HETATM   18  C   UNL     1      -9.106   7.454  70.824  1.00  0.00    -0.151 A  
HETATM   19  C   UNL     1      -8.847   6.108  70.592  1.00  0.00    -0.143 A  
ENDBRANCH  13  14
ENDBRANCH   5  13
BRANCH   7  20
HETATM   20  N   UNL     1     -10.170  14.456  67.973  1.00  0.00    -0.225 N  
HETATM   21  H   UNL     1      -9.354  13.846  68.020  1.00  0.00     0.000 HD 
HETATM   22  O   UNL     1     -10.862  16.677  68.012  1.00  0.00    -0.343 OA 
HETATM   23  C   UNL     1      -9.980  15.827  67.935  1.00  0.00    -0.227 C  
BRANCH  23  24
HETATM   24  C   UNL     1      -8.573  16.355  67.767  1.00  0.00    -0.168 C  
BRANCH  24  25
HETATM   25  N   UNL     1      -8.220  17.410  67.086  1.00  0.00    -0.204 NA 
HETATM   26  H   UNL     1      -8.192  17.409  66.066  1.00  0.00     0.000 HD 
BRANCH  25  27
HETATM   27  O   UNL     1      -7.881  18.543  67.835  1.00  0.00    -0.244 OA 
HETATM   28  C   UNL     1      -7.268  20.852  67.813  1.00  0.00    -0.245 C  
HETATM   29  C   UNL     1      -9.335  20.066  66.645  1.00  0.00    -0.505 C  
HETATM   30  O   UNL     1      -7.006  18.383  65.118  1.00  0.00    -0.501 OA 
HETATM   31  O   UNL     1      -6.563  20.582  65.097  1.00  0.00    -0.273 OA 
HETATM   32  C   UNL     1      -7.881  19.711  66.984  1.00  0.00    -0.270 C  
HETATM   33  C   UNL     1      -7.073  19.622  65.660  1.00  0.00    -0.300 C  
ENDBRANCH  25  27
ENDBRANCH  24  25
BRANCH  24  34
HETATM   34  C   UNL     1      -7.463  15.573  68.321  1.00  0.00    -0.115 A  
HETATM   35  H2  UNL     1      -5.185  13.672  71.382  1.00  0.00     0.000 HD 
HETATM   36  C   UNL     1      -6.296  15.255  67.649  1.00  0.00    -0.146 A  
HETATM   37  S   UNL     1      -5.218  14.434  68.695  1.00  0.00    -0.101 SA 
HETATM   38  H1  UNL     1      -6.770  14.182  71.953  1.00  0.00     0.000 HD 
HETATM   39  N   UNL     1      -6.090  14.105  71.198  1.00  0.00    -0.172 NA 
HETATM   40  N   UNL     1      -7.495  15.133  69.646  1.00  0.00    -0.208 NA 
HETATM   41  C   UNL     1      -6.362  14.563  69.966  1.00  0.00    -0.165 A  
ENDBRANCH  24  34
ENDBRANCH  23  24
ENDBRANCH   7  20
TORSDOF 7
ENDMDL
MODEL       19
REMARK 921   NORMALIZED FREE ENERGY PREDICTED BY IDOCK:   -7.25 KCAL/MOL
REMARK 922        TOTAL FREE ENERGY PREDICTED BY IDOCK:  -11.76 KCAL/MOL
REMARK 923 INTER-LIGAND FREE ENERGY PREDICTED BY IDOCK:   -9.78 KCAL/MOL
REMARK 924 INTRA-LIGAND FREE ENERGY PREDICTED BY IDOCK:   -1.99 KCAL/MOL
REMARK 927      BINDING AFFINITY PREDICTED BY RF-SCORE:    0.00 PKD
ROOT
HETATM    1  O   UNL     1     -11.069  16.102  64.310  1.00  0.00    -0.653 OA 
HETATM    2  C   UNL     1     -10.902  16.907  65.253  1.00  0.00    -0.104 C  
HETATM    3  CA  UNL     1     -11.018  16.323  66.729  1.00  0.00    -0.031 C  
HETATM    4  OXT UNL     1     -10.659  18.153  65.206  1.00  0.00    -0.591 OA 
HETATM    5  C   UNL     1     -10.536  17.034  67.780  1.00  0.00    -0.350 C  
HETATM    6  C   UNL     1     -10.534  16.591  69.220  1.00  0.00    -0.326 C  
HETATM    7  CA  UNL     1     -11.817  13.181  67.735  1.00  0.00    -0.348 C  
HETATM    8  S   UNL     1     -11.463  15.157  69.735  1.00  0.00    -0.321 SA 
HETATM    9  N   UNL     1     -11.507  15.072  66.970  1.00  0.00    -0.323 N  
HETATM   10  O   UNL     1     -11.077  13.398  65.316  1.00  0.00    -0.285 OA 
HETATM   11  C   UNL     1     -12.174  14.637  68.171  1.00  0.00    -0.059 C  
HETATM   12  C   UNL     1     -11.474  13.856  66.360  1.00  0.00    -0.344 C  
ENDROOT
BRANCH   5  13
HETATM   13  C   UNL     1      -9.830  18.369  67.628  1.00  0.00    -0.313 C  
BRANCH  13  14
HETATM   14  N   UNL     1      -8.356  18.386  67.877  1.00  0.00    -0.256 NA 
HETATM   15  C   UNL     1      -6.214  17.332  67.864  1.00  0.00    -0.156 A  
HETATM   16  C   UNL     1      -5.739  18.262  68.778  1.00  0.00    -0.192 A  
HETATM   17  C   UNL     1      -7.531  17.419  67.412  1.00  0.00    -0.182 A  
HETATM   18  C   UNL     1      -7.872  19.352  68.695  1.00  0.00    -0.364 A  
HETATM   19  C   UNL     1      -6.570  19.296  69.179  1.00  0.00    -0.342 A  
ENDBRANCH  13  14
ENDBRANCH   5  13
BRANCH   7  20
HETATM   20  N   UNL     1     -10.643  12.473  68.387  1.00  0.00    -0.236 N  
HETATM   21  H   UNL     1      -9.987  13.019  68.945  1.00  0.00     0.000 HD 
HETATM   22  O   UNL     1     -11.058  10.361  67.504  1.00  0.00    -0.313 OA 
HETATM   23  C   UNL     1     -10.433  11.112  68.248  1.00  0.00    -0.191 C  
BRANCH  23  24
HETATM   24  C   UNL     1      -9.358  10.459  69.085  1.00  0.00    -0.199 C  
BRANCH  24  25
HETATM   25  N   UNL     1      -9.544   9.718  70.142  1.00  0.00    -0.288 NA 
HETATM   26  H   UNL     1      -8.889   8.983  70.408  1.00  0.00     0.000 HD 
BRANCH  25  27
HETATM   27  O   UNL     1     -10.695   9.992  70.891  1.00  0.00    -0.300 OA 
HETATM   28  C   UNL     1     -12.587   9.111  72.053  1.00  0.00    -0.463 C  
HETATM   29  C   UNL     1     -10.275   8.330  72.599  1.00  0.00    -0.368 C  
HETATM   30  O   UNL     1     -10.546   7.523  69.458  1.00  0.00    -0.233 OA 
HETATM   31  O   UNL     1     -12.245   6.685  70.660  1.00  0.00    -0.377 OA 
HETATM   32  C   UNL     1     -11.209   8.767  71.463  1.00  0.00    -0.307 C  
HETATM   33  C   UNL     1     -11.411   7.566  70.499  1.00  0.00    -0.260 C  
ENDBRANCH  25  27
ENDBRANCH  24  25
BRANCH  24  34
HETATM   34  C   UNL     1      -7.955  10.750  68.771  1.00  0.00    -0.136 A  
HETATM   35  H2  UNL     1      -4.733  12.782  66.856  1.00  0.00     0.000 HD 
HETATM   36  C   UNL     1      -6.879   9.939  69.088  1.00  0.00    -0.055 A  
HETATM   37  S   UNL     1      -5.437  10.591  68.438  1.00  0.00    -0.036 SA 
HETATM   38  H1  UNL     1      -6.270  13.615  66.635  1.00  0.00     0.000 HD 
HETATM   39  N   UNL     1      -5.737  12.840  67.030  1.00  0.00    -0.284 NA 
HETATM   40  N   UNL     1      -7.612  11.892  68.043  1.00  0.00    -0.113 NA 
HETATM   41  C   UNL     1      -6.332  11.894  67.774  1.00  0.00    -0.077 A  
ENDBRANCH  24  34
ENDBRANCH  23  24
ENDBRANCH   7  20
TORSDOF 7
ENDMDL
MODEL       20
REMARK 921   NORMALIZED FREE ENERGY PREDICTED BY IDOCK:   -7.24 KCAL/MOL
REMARK 922        TOTAL FREE ENERGY PREDICTED BY IDOCK:  -11.75 KCAL/MOL
REMARK 923 INTER-LIGAND FREE ENERGY PREDICTED BY IDOCK:  -10.10 KCAL/MOL
REMARK 924 INTRA-LIGAND FREE ENERGY PREDICTED BY IDOCK:   -1.64 KCAL/MOL
REMARK 927      BINDING AFFINITY PREDICTED BY RF-SCORE:    0.00 PKD
ROOT
HETATM    1  O   UNL     1     -10.773   8.579  66.498  1.00  0.00    -0.099 OA 
HETATM    2  C   UNL     1      -9.917   8.412  67.394  1.00  0.00    -0.212 C  
HETATM    3  CA  UNL     1      -9.115   9.699  67.875  1.00  0.00    -0.125 C  
HETATM    4  OXT UNL     1      -9.576   7.339  67.983  1.00  0.00    -0.138 OA 
HETATM    5  C   UNL     1      -8.423   9.671  69.043  1.00  0.00    -0.131 C  
HETATM    6  C   UNL     1      -7.660  10.822  69.645  1.00  0.00    -0.042 C  
HETATM    7  CA  UNL     1      -9.272  12.883  66.708  1.00  0.00    -0.230 C  
HETATM    8  S   UNL     1      -7.342  12.302  68.701  1.00  0.00    -0.085 SA 
HETATM    9  N   UNL     1      -9.177  10.880  67.193  1.00  0.00    -0.148 N  
HETATM   10  O   UNL     1     -11.239  11.399  66.098  1.00  0.00    -0.254 OA 
HETATM   11  C   UNL     1      -8.150  11.891  67.151  1.00  0.00    -0.172 C  
HETATM   12  C   UNL     1     -10.110  11.574  66.488  1.00  0.00    -0.213 C  
ENDROOT
BRANCH   5  13
HETATM   13  C   UNL     1      -8.403   8.469  69.969  1.00  0.00    -0.123 C  
BRANCH  13  14
HETATM   14  N   UNL     1      -9.427   8.438  71.058  1.00  0.00    -0.160 NA 
HETATM   15  C   UNL     1     -10.513   7.352  72.886  1.00  0.00    -0.344 A  
HETATM   16  C   UNL     1     -11.613   8.187  72.742  1.00  0.00    -0.371 A  
HETATM   17  C   UNL     1      -9.416   7.503  72.037  1.00  0.00    -0.140 A  
HETATM   18  C   UNL     1     -10.454   9.317  70.973  1.00  0.00    -0.314 A  
HETATM   19  C   UNL     1     -11.572   9.195  71.792  1.00  0.00    -0.457 A  
ENDBRANCH  13  14
ENDBRANCH   5  13
BRANCH   7  20
HETATM   20  N   UNL     1      -9.870  13.837  67.726  1.00  0.00    -0.228 N  
HETATM   21  H   UNL     1      -9.481  13.859  68.669  1.00  0.00     0.000 HD 
HETATM   22  O   UNL     1     -11.575  14.663  66.376  1.00  0.00    -0.361 OA 
HETATM   23  C   UNL     1     -10.926  14.677  67.418  1.00  0.00    -0.308 C  
BRANCH  23  24
HETATM   24  C   UNL     1     -11.330  15.728  68.427  1.00  0.00    -0.372 C  
BRANCH  24  25
HETATM   25  N   UNL     1     -12.196  15.582  69.390  1.00  0.00    -0.568 NA 
HETATM   26  H   UNL     1     -12.730  16.368  69.759  1.00  0.00     0.000 HD 
BRANCH  25  27
HETATM   27  O   UNL     1     -12.350  14.283  69.889  1.00  0.00    -0.332 OA 
HETATM   28  C   UNL     1     -12.827  12.905  71.782  1.00  0.00    -0.339 C  
HETATM   29  C   UNL     1     -14.398  14.727  71.098  1.00  0.00    -0.271 C  
HETATM   30  O   UNL     1     -11.660  16.377  71.708  1.00  0.00    -0.453 OA 
HETATM   31  O   UNL     1     -12.240  15.095  73.456  1.00  0.00    -0.442 OA 
HETATM   32  C   UNL     1     -12.919  14.332  71.217  1.00  0.00    -0.352 C  
HETATM   33  C   UNL     1     -12.237  15.276  72.245  1.00  0.00    -0.383 C  
ENDBRANCH  25  27
ENDBRANCH  24  25
BRANCH  24  34
HETATM   34  C   UNL     1     -10.795  17.085  68.273  1.00  0.00    -0.341 A  
HETATM   35  H2  UNL     1      -9.623  20.593  66.153  1.00  0.00     0.000 HD 
HETATM   36  C   UNL     1     -10.106  17.788  69.246  1.00  0.00    -0.135 A  
HETATM   37  S   UNL     1      -9.558  19.282  68.618  1.00  0.00    -0.434 SA 
HETATM   38  H1  UNL     1     -10.558  19.490  65.147  1.00  0.00     0.000 HD 
HETATM   39  N   UNL     1     -10.140  19.719  66.049  1.00  0.00    -0.474 NA 
HETATM   40  N   UNL     1     -10.903  17.758  67.054  1.00  0.00    -0.170 NA 
HETATM   41  C   UNL     1     -10.259  18.896  67.101  1.00  0.00    -0.383 A  
ENDBRANCH  24  34
ENDBRANCH  23  24
ENDBRANCH   7  20
TORSDOF 7
ENDMDL
MODEL       21
REMARK 921   NORMALIZED FREE ENERGY PREDICTED BY IDOCK:   -7.19 KCAL/MOL
REMARK 922        TOTAL FREE ENERGY PREDICTED BY IDOCK:  -11.67 KCAL/MOL
REMARK 923 INTER-LIGAND FREE ENERGY PREDICTED BY IDOCK:   -9.35 KCAL/MOL
REMARK 924 INTRA-LIGAND FREE ENERGY PREDICTED BY IDOCK:   -2.33 KCAL/MOL
REMARK 927      BINDING AFFINITY PREDICTED BY RF-SCORE:    0.00 PKD
ROOT
HETATM    1  O   UNL     1      -6.939   6.150  72.688  1.00  0.00    -0.073 OA 
HETATM    2  C   UNL     1      -7.423   5.534  71.713  1.00  0.00    -0.093 C  
HETATM    3  CA  UNL     1      -8.864   5.992  71.214  1.00  0.00    -0.136 C  
HETATM    4  OXT UNL     1      -6.930   4.567  71.054  1.00  0.00    -0.035 OA 
HETATM    5  C   UNL     1      -9.310   5.613  69.989  1.00  0.00    -0.183 C  
HETATM    6  C   UNL     1     -10.624   6.006  69.367  1.00  0.00    -0.298 C  
HETATM    7  CA  UNL     1     -10.937   8.343  72.516  1.00  0.00    -0.318 C  
HETATM    8  S   UNL     1     -11.892   6.802  70.337  1.00  0.00    -0.265 SA 
HETATM    9  N   UNL     1      -9.640   6.844  71.945  1.00  0.00    -0.155 N  
HETATM   10  O   UNL     1      -8.509   8.507  73.240  1.00  0.00    -0.372 OA 
HETATM   11  C   UNL     1     -11.080   6.901  71.935  1.00  0.00    -0.246 C  
HETATM   12  C   UNL     1      -9.446   7.917  72.758  1.00  0.00    -0.241 C  
ENDROOT
BRANCH   5  13
HETATM   13  C   UNL     1      -8.479   4.795  69.017  1.00  0.00    -0.081 C  
BRANCH  13  14
HETATM   14  N   UNL     1      -7.907   5.519  67.841  1.00  0.00    -0.096 NA 
HETATM   15  C   UNL     1      -6.722   7.357  66.883  1.00  0.00    -0.065 A  
HETATM   16  C   UNL     1      -7.275   7.079  65.640  1.00  0.00    -0.073 A  
HETATM   17  C   UNL     1      -7.042   6.552  67.976  1.00  0.00    -0.086 A  
HETATM   18  C   UNL     1      -8.374   5.184  66.614  1.00  0.00    -0.108 A  
HETATM   19  C   UNL     1      -8.089   5.966  65.500  1.00  0.00    -0.131 A  
ENDBRANCH  13  14
ENDBRANCH   5  13
BRANCH   7  20
HETATM   20  N   UNL     1     -11.097   9.538  71.594  1.00  0.00    -0.347 N  
HETATM   21  H   UNL     1     -10.282   9.882  71.086  1.00  0.00     0.000 HD 
HETATM   22  O   UNL     1     -13.337   9.960  72.060  1.00  0.00    -0.423 OA 
HETATM   23  C   UNL     1     -12.313  10.177  71.420  1.00  0.00    -0.416 C  
BRANCH  23  24
HETATM   24  C   UNL     1     -12.426  11.230  70.340  1.00  0.00    -0.271 C  
BRANCH  24  25
HETATM   25  N   UNL     1     -12.383  11.025  69.053  1.00  0.00    -0.669 NA 
HETATM   26  H   UNL     1     -12.920  11.593  68.398  1.00  0.00     0.000 HD 
BRANCH  25  27
HETATM   27  O   UNL     1     -11.556   9.980  68.623  1.00  0.00    -0.053 OA 
HETATM   28  C   UNL     1      -9.842   9.269  67.117  1.00  0.00    -0.251 C  
HETATM   29  C   UNL     1      -9.523  11.290  68.556  1.00  0.00    -0.191 C  
HETATM   30  O   UNL     1     -12.140  12.106  66.803  1.00  0.00    -0.609 OA 
HETATM   31  O   UNL     1     -10.439  11.483  65.478  1.00  0.00    -0.259 OA 
HETATM   32  C   UNL     1     -10.542  10.494  67.729  1.00  0.00    -0.243 C  
HETATM   33  C   UNL     1     -11.024  11.383  66.550  1.00  0.00    -0.272 C  
ENDBRANCH  25  27
ENDBRANCH  24  25
BRANCH  24  34
HETATM   34  C   UNL     1     -12.485  12.639  70.743  1.00  0.00    -0.270 A  
HETATM   35  H2  UNL     1     -13.846  15.992  72.997  1.00  0.00     0.000 HD 
HETATM   36  C   UNL     1     -11.942  13.696  70.034  1.00  0.00    -0.343 A  
HETATM   37  S   UNL     1     -12.337  15.179  70.791  1.00  0.00    -0.396 SA 
HETATM   38  H1  UNL     1     -14.381  14.464  73.690  1.00  0.00     0.000 HD 
HETATM   39  N   UNL     1     -13.864  14.972  72.972  1.00  0.00    -0.450 NA 
HETATM   40  N   UNL     1     -13.181  13.022  71.892  1.00  0.00    -0.445 NA 
HETATM   41  C   UNL     1     -13.207  14.325  71.998  1.00  0.00    -0.385 A  
ENDBRANCH  24  34
ENDBRANCH  23  24
ENDBRANCH   7  20
TORSDOF 7
ENDMDL
MODEL       22
REMARK 921   NORMALIZED FREE ENERGY PREDICTED BY IDOCK:   -7.14 KCAL/MOL
REMARK 922        TOTAL FREE ENERGY PREDICTED BY IDOCK:  -11.59 KCAL/MOL
REMARK 923 INTER-LIGAND FREE ENERGY PREDICTED BY IDOCK:   -9.09 KCAL/MOL
REMARK 924 INTRA-LIGAND FREE ENERGY PREDICTED BY IDOCK:   -2.51 KCAL/MOL
REMARK 927      BINDING AFFINITY PREDICTED BY RF-SCORE:    0.00 PKD
ROOT
HETATM    1  O   UNL     1      -9.712   2.967  67.507  1.00  0.00    -0.102 OA 
HETATM    2  C   UNL     1      -8.978   3.285  68.468  1.00  0.00    -0.134 C  
HETATM    3  CA  UNL     1      -8.611   4.827  68.618  1.00  0.00    -0.093 C  
HETATM    4  OXT UNL     1      -8.459   2.540  69.357  1.00  0.00    -0.056 OA 
HETATM    5  C   UNL     1      -8.108   5.294  69.789  1.00  0.00    -0.087 C  
HETATM    6  C   UNL     1      -7.760   6.728  70.090  1.00  0.00    -0.101 C  
HETATM    7  CA  UNL     1      -9.416   7.429  66.591  1.00  0.00    -0.187 C  
HETATM    8  S   UNL     1      -7.704   7.948  68.790  1.00  0.00    -0.114 SA 
HETATM    9  N   UNL     1      -8.878   5.727  67.627  1.00  0.00    -0.107 N  
HETATM   10  O   UNL     1     -10.827   5.339  66.298  1.00  0.00    -0.285 OA 
HETATM   11  C   UNL     1      -8.151   6.945  67.370  1.00  0.00    -0.115 C  
HETATM   12  C   UNL     1      -9.849   5.923  66.695  1.00  0.00    -0.163 C  
ENDROOT
BRANCH   5  13
HETATM   13  C   UNL     1      -7.910   4.424  71.016  1.00  0.00    -0.068 C  
BRANCH  13  14
HETATM   14  N   UNL     1      -8.835   4.658  72.167  1.00  0.00    -0.122 NA 
HETATM   15  C   UNL     1     -11.024   4.963  73.070  1.00  0.00    -0.358 A  
HETATM   16  C   UNL     1     -10.485   5.559  74.203  1.00  0.00    -0.297 A  
HETATM   17  C   UNL     1     -10.176   4.504  72.062  1.00  0.00    -0.181 A  
HETATM   18  C   UNL     1      -8.298   5.151  73.309  1.00  0.00    -0.111 A  
HETATM   19  C   UNL     1      -9.107   5.631  74.333  1.00  0.00    -0.123 A  
ENDBRANCH  13  14
ENDBRANCH   5  13
BRANCH   7  20
HETATM   20  N   UNL     1     -10.378   8.396  67.257  1.00  0.00    -0.274 N  
HETATM   21  H   UNL     1     -11.176   8.022  67.771  1.00  0.00     0.000 HD 
HETATM   22  O   UNL     1      -9.378  10.356  66.504  1.00  0.00    -0.158 OA 
HETATM   23  C   UNL     1     -10.207   9.768  67.191  1.00  0.00    -0.228 C  
BRANCH  23  24
HETATM   24  C   UNL     1     -11.096  10.647  68.042  1.00  0.00    -0.301 C  
BRANCH  24  25
HETATM   25  N   UNL     1     -11.617  10.333  69.195  1.00  0.00    -0.466 NA 
HETATM   26  H   UNL     1     -12.621  10.390  69.366  1.00  0.00     0.000 HD 
BRANCH  25  27
HETATM   27  O   UNL     1     -10.719   9.914  70.184  1.00  0.00    -0.263 OA 
HETATM   28  C   UNL     1     -10.400   8.712  72.223  1.00  0.00    -0.376 C  
HETATM   29  C   UNL     1     -11.481   7.620  70.250  1.00  0.00    -0.144 C  
HETATM   30  O   UNL     1     -13.494  10.107  70.844  1.00  0.00    -0.345 OA 
HETATM   31  O   UNL     1     -13.176   8.865  72.685  1.00  0.00    -0.427 OA 
HETATM   32  C   UNL     1     -11.351   8.932  71.035  1.00  0.00    -0.291 C  
HETATM   33  C   UNL     1     -12.742   9.296  71.624  1.00  0.00    -0.364 C  
ENDBRANCH  25  27
ENDBRANCH  24  25
BRANCH  24  34
HETATM   34  C   UNL     1     -11.519  11.943  67.501  1.00  0.00    -0.326 A  
HETATM   35  H2  UNL     1     -12.917  14.652  64.521  1.00  0.00     0.000 HD 
HETATM   36  C   UNL     1     -11.328  13.167  68.118  1.00  0.00    -0.292 A  
HETATM   37  S   UNL     1     -11.863  14.433  67.097  1.00  0.00    -0.381 SA 
HETATM   38  H1  UNL     1     -13.059  12.971  64.012  1.00  0.00     0.000 HD 
HETATM   39  N   UNL     1     -12.798  13.658  64.719  1.00  0.00    -0.701 NA 
HETATM   40  N   UNL     1     -12.115  12.028  66.241  1.00  0.00    -0.528 NA 
HETATM   41  C   UNL     1     -12.301  13.279  65.907  1.00  0.00    -0.418 A  
ENDBRANCH  24  34
ENDBRANCH  23  24
ENDBRANCH   7  20
TORSDOF 7
ENDMDL
MODEL       23
REMARK 921   NORMALIZED FREE ENERGY PREDICTED BY IDOCK:   -7.04 KCAL/MOL
REMARK 922        TOTAL FREE ENERGY PREDICTED BY IDOCK:  -11.46 KCAL/MOL
REMARK 923 INTER-LIGAND FREE ENERGY PREDICTED BY IDOCK:   -9.39 KCAL/MOL
REMARK 924 INTRA-LIGAND FREE ENERGY PREDICTED BY IDOCK:   -2.07 KCAL/MOL
REMARK 927      BINDING AFFINITY PREDICTED BY RF-SCORE:    0.00 PKD
ROOT
HETATM    1  O   UNL     1      -9.679   2.928  67.960  1.00  0.00    -0.135 OA 
HETATM    2  C   UNL     1      -8.908   3.376  68.838  1.00  0.00    -0.112 C  
HETATM    3  CA  UNL     1      -8.504   4.912  68.727  1.00  0.00    -0.086 C  
HETATM    4  OXT UNL     1      -8.379   2.771  69.821  1.00  0.00    -0.047 OA 
HETATM    5  C   UNL     1      -7.956   5.548  69.793  1.00  0.00    -0.090 C  
HETATM    6  C   UNL     1      -7.568   7.002  69.851  1.00  0.00    -0.102 C  
HETATM    7  CA  UNL     1      -9.316   7.175  66.331  1.00  0.00    -0.143 C  
HETATM    8  S   UNL     1      -7.526   7.996  68.370  1.00  0.00    -0.105 SA 
HETATM    9  N   UNL     1      -8.782   5.649  67.612  1.00  0.00    -0.108 N  
HETATM   10  O   UNL     1     -10.780   5.103  66.415  1.00  0.00    -0.308 OA 
HETATM   11  C   UNL     1      -8.038   6.790  67.142  1.00  0.00    -0.117 C  
HETATM   12  C   UNL     1      -9.777   5.718  66.687  1.00  0.00    -0.157 C  
ENDROOT
BRANCH   5  13
HETATM   13  C   UNL     1      -7.739   4.881  71.140  1.00  0.00    -0.083 C  
BRANCH  13  14
HETATM   14  N   UNL     1      -8.651   5.290  72.251  1.00  0.00    -0.125 NA 
HETATM   15  C   UNL     1     -10.833   5.681  73.138  1.00  0.00    -0.321 A  
HETATM   16  C   UNL     1     -10.296   6.490  74.130  1.00  0.00    -0.351 A  
HETATM   17  C   UNL     1      -9.987   5.074  72.209  1.00  0.00    -0.182 A  
HETATM   18  C   UNL     1      -8.112   5.999  73.272  1.00  0.00    -0.115 A  
HETATM   19  C   UNL     1      -8.919   6.630  74.212  1.00  0.00    -0.195 A  
ENDBRANCH  13  14
ENDBRANCH   5  13
BRANCH   7  20
HETATM   20  N   UNL     1     -10.236   8.262  66.858  1.00  0.00    -0.296 N  
HETATM   21  H   UNL     1     -10.924   8.021  67.571  1.00  0.00     0.000 HD 
HETATM   22  O   UNL     1      -9.491   9.968  65.463  1.00  0.00    -0.198 OA 
HETATM   23  C   UNL     1     -10.171   9.567  66.403  1.00  0.00    -0.232 C  
BRANCH  23  24
HETATM   24  C   UNL     1     -10.986  10.621  67.118  1.00  0.00    -0.247 C  
BRANCH  24  25
HETATM   25  N   UNL     1     -11.470  11.712  66.592  1.00  0.00    -0.467 NA 
HETATM   26  H   UNL     1     -12.465  11.818  66.394  1.00  0.00     0.000 HD 
BRANCH  25  27
HETATM   27  O   UNL     1     -10.547  12.727  66.316  1.00  0.00    -0.253 OA 
HETATM   28  C   UNL     1     -10.168  14.895  65.386  1.00  0.00    -0.409 C  
HETATM   29  C   UNL     1     -11.927  14.540  67.129  1.00  0.00    -0.373 C  
HETATM   30  O   UNL     1     -12.925  12.570  64.738  1.00  0.00    -0.827 OA 
HETATM   31  O   UNL     1     -12.603  14.659  63.986  1.00  0.00    -0.819 OA 
HETATM   32  C   UNL     1     -11.244  13.923  65.900  1.00  0.00    -0.297 C  
HETATM   33  C   UNL     1     -12.300  13.771  64.772  1.00  0.00    -0.386 C  
ENDBRANCH  25  27
ENDBRANCH  24  25
BRANCH  24  34
HETATM   34  C   UNL     1     -11.179  10.490  68.566  1.00  0.00    -0.274 A  
HETATM   35  H2  UNL     1     -10.414   8.976  72.477  1.00  0.00     0.000 HD 
HETATM   36  C   UNL     1     -12.269  10.968  69.273  1.00  0.00    -0.210 A  
HETATM   37  S   UNL     1     -12.157  10.501  70.916  1.00  0.00    -0.399 SA 
HETATM   38  H1  UNL     1      -9.150   8.533  71.333  1.00  0.00     0.000 HD 
HETATM   39  N   UNL     1     -10.028   9.013  71.533  1.00  0.00    -0.319 NA 
HETATM   40  N   UNL     1     -10.258   9.789  69.346  1.00  0.00    -0.196 NA 
HETATM   41  C   UNL     1     -10.682   9.693  70.580  1.00  0.00    -0.311 A  
ENDBRANCH  24  34
ENDBRANCH  23  24
ENDBRANCH   7  20
TORSDOF 7
ENDMDL
MODEL       24
REMARK 921   NORMALIZED FREE ENERGY PREDICTED BY IDOCK:   -7.04 KCAL/MOL
REMARK 922        TOTAL FREE ENERGY PREDICTED BY IDOCK:  -11.46 KCAL/MOL
REMARK 923 INTER-LIGAND FREE ENERGY PREDICTED BY IDOCK:   -9.92 KCAL/MOL
REMARK 924 INTRA-LIGAND FREE ENERGY PREDICTED BY IDOCK:   -1.53 KCAL/MOL
REMARK 927      BINDING AFFINITY PREDICTED BY RF-SCORE:    0.00 PKD
ROOT
HETATM    1  O   UNL     1     -11.078   6.914  66.752  1.00  0.00    -0.321 OA 
HETATM    2  C   UNL     1     -10.802   6.840  67.970  1.00  0.00    -0.235 C  
HETATM    3  CA  UNL     1      -9.896   7.999  68.576  1.00  0.00    -0.174 C  
HETATM    4  OXT UNL     1     -11.137   5.950  68.812  1.00  0.00    -0.297 OA 
HETATM    5  C   UNL     1      -9.826   8.174  69.920  1.00  0.00    -0.186 C  
HETATM    6  C   UNL     1      -9.051   9.252  70.632  1.00  0.00    -0.253 C  
HETATM    7  CA  UNL     1      -8.437  10.627  66.998  1.00  0.00    -0.129 C  
HETATM    8  S   UNL     1      -7.875  10.264  69.752  1.00  0.00    -0.089 SA 
HETATM    9  N   UNL     1      -9.251   8.899  67.777  1.00  0.00    -0.140 N  
HETATM   10  O   UNL     1     -10.330   9.507  65.731  1.00  0.00    -0.182 OA 
HETATM   11  C   UNL     1      -8.029   9.593  68.094  1.00  0.00    -0.100 C  
HETATM   12  C   UNL     1      -9.493   9.536  66.599  1.00  0.00    -0.170 C  
ENDROOT
BRANCH   5  13
HETATM   13  C   UNL     1     -10.617   7.338  70.910  1.00  0.00    -0.220 C  
BRANCH  13  14
HETATM   14  N   UNL     1     -11.963   7.855  71.308  1.00  0.00    -0.296 NA 
HETATM   15  C   UNL     1     -13.354   9.431  72.440  1.00  0.00    -0.503 A  
HETATM   16  C   UNL     1     -14.407   8.527  72.426  1.00  0.00    -0.412 A  
HETATM   17  C   UNL     1     -12.135   9.079  71.860  1.00  0.00    -0.378 A  
HETATM   18  C   UNL     1     -13.013   7.006  71.205  1.00  0.00    -0.297 A  
HETATM   19  C   UNL     1     -14.242   7.311  71.780  1.00  0.00    -0.526 A  
ENDBRANCH  13  14
ENDBRANCH   5  13
BRANCH   7  20
HETATM   20  N   UNL     1      -9.046  11.954  67.414  1.00  0.00    -0.173 N  
HETATM   21  H   UNL     1      -9.012  12.226  68.397  1.00  0.00     0.000 HD 
HETATM   22  O   UNL     1      -9.876  12.554  65.325  1.00  0.00    -0.235 OA 
HETATM   23  C   UNL     1      -9.646  12.807  66.504  1.00  0.00    -0.257 C  
BRANCH  23  24
HETATM   24  C   UNL     1     -10.050  14.188  66.968  1.00  0.00    -0.261 C  
BRANCH  24  25
HETATM   25  N   UNL     1      -9.667  15.321  66.448  1.00  0.00    -0.266 NA 
HETATM   26  H   UNL     1     -10.334  15.994  66.071  1.00  0.00     0.000 HD 
BRANCH  25  27
HETATM   27  O   UNL     1      -8.288  15.560  66.439  1.00  0.00    -0.259 OA 
HETATM   28  C   UNL     1      -6.530  17.173  66.576  1.00  0.00    -0.268 C  
HETATM   29  C   UNL     1      -8.281  17.033  68.357  1.00  0.00    -0.250 C  
HETATM   30  O   UNL     1     -10.052  17.686  65.707  1.00  0.00    -0.555 OA 
HETATM   31  O   UNL     1      -8.406  19.187  65.972  1.00  0.00    -0.429 OA 
HETATM   32  C   UNL     1      -8.023  16.920  66.848  1.00  0.00    -0.213 C  
HETATM   33  C   UNL     1      -8.816  18.044  66.126  1.00  0.00    -0.085 C  
ENDBRANCH  25  27
ENDBRANCH  24  25
BRANCH  24  34
HETATM   34  C   UNL     1     -10.866  14.306  68.181  1.00  0.00    -0.244 A  
HETATM   35  H2  UNL     1     -13.133  12.891  71.503  1.00  0.00     0.000 HD 
HETATM   36  C   UNL     1     -11.463  15.470  68.633  1.00  0.00    -0.359 A  
HETATM   37  S   UNL     1     -12.419  15.144  70.015  1.00  0.00    -0.235 SA 
HETATM   38  H1  UNL     1     -12.227  11.601  70.718  1.00  0.00     0.000 HD 
HETATM   39  N   UNL     1     -12.485  12.586  70.777  1.00  0.00    -0.325 NA 
HETATM   40  N   UNL     1     -11.152  13.181  68.958  1.00  0.00    -0.249 NA 
HETATM   41  C   UNL     1     -11.986  13.487  69.917  1.00  0.00    -0.348 A  
ENDBRANCH  24  34
ENDBRANCH  23  24
ENDBRANCH   7  20
TORSDOF 7
ENDMDL
MODEL       25
REMARK 921   NORMALIZED FREE ENERGY PREDICTED BY IDOCK:   -7.00 KCAL/MOL
REMARK 922        TOTAL FREE ENERGY PREDICTED BY IDOCK:  -11.41 KCAL/MOL
REMARK 923 INTER-LIGAND FREE ENERGY PREDICTED BY IDOCK:  -10.08 KCAL/MOL
REMARK 924 INTRA-LIGAND FREE ENERGY PREDICTED BY IDOCK:   -1.33 KCAL/MOL
REMARK 927      BINDING AFFINITY PREDICTED BY RF-SCORE:    0.00 PKD
ROOT
HETATM    1  O   UNL     1     -10.901   8.730  66.684  1.00  0.00    -0.079 OA 
HETATM    2  C   UNL     1     -10.016   8.511  67.541  1.00  0.00    -0.200 C  
HETATM    3  CA  UNL     1      -9.118   9.748  67.984  1.00  0.00    -0.125 C  
HETATM    4  OXT UNL     1      -9.714   7.419  68.116  1.00  0.00    -0.147 OA 
HETATM    5  C   UNL     1      -8.377   9.677  69.119  1.00  0.00    -0.130 C  
HETATM    6  C   UNL     1      -7.520  10.779  69.685  1.00  0.00    -0.075 C  
HETATM    7  CA  UNL     1      -9.136  12.937  66.820  1.00  0.00    -0.211 C  
HETATM    8  S   UNL     1      -7.157  12.238  68.725  1.00  0.00    -0.091 SA 
HETATM    9  N   UNL     1      -9.140  10.931  67.303  1.00  0.00    -0.141 N  
HETATM   10  O   UNL     1     -11.214  11.574  66.302  1.00  0.00    -0.297 OA 
HETATM   11  C   UNL     1      -8.057  11.879  67.214  1.00  0.00    -0.171 C  
HETATM   12  C   UNL     1     -10.060  11.681  66.640  1.00  0.00    -0.208 C  
ENDROOT
BRANCH   5  13
HETATM   13  C   UNL     1      -8.387   8.475  70.046  1.00  0.00    -0.123 C  
BRANCH  13  14
HETATM   14  N   UNL     1      -9.460   8.432  71.086  1.00  0.00    -0.167 NA 
HETATM   15  C   UNL     1     -10.697   7.289  72.777  1.00  0.00    -0.340 A  
HETATM   16  C   UNL     1     -11.733   8.205  72.654  1.00  0.00    -0.419 A  
HETATM   17  C   UNL     1      -9.555   7.428  71.988  1.00  0.00    -0.150 A  
HETATM   18  C   UNL     1     -10.423   9.383  71.028  1.00  0.00    -0.322 A  
HETATM   19  C   UNL     1     -11.583   9.277  71.788  1.00  0.00    -0.458 A  
ENDBRANCH  13  14
ENDBRANCH   5  13
BRANCH   7  20
HETATM   20  N   UNL     1      -9.630  13.924  67.863  1.00  0.00    -0.219 N  
HETATM   21  H   UNL     1      -9.184  13.935  68.781  1.00  0.00     0.000 HD 
HETATM   22  O   UNL     1     -11.373  14.816  66.608  1.00  0.00    -0.345 OA 
HETATM   23  C   UNL     1     -10.664  14.808  67.609  1.00  0.00    -0.270 C  
BRANCH  23  24
HETATM   24  C   UNL     1     -10.960  15.883  68.631  1.00  0.00    -0.320 C  
BRANCH  24  25
HETATM   25  N   UNL     1     -10.560  17.123  68.585  1.00  0.00    -0.359 NA 
HETATM   26  H   UNL     1      -9.945  17.519  69.296  1.00  0.00     0.000 HD 
BRANCH  25  27
HETATM   27  O   UNL     1     -11.025  17.881  67.503  1.00  0.00    -0.304 OA 
HETATM   28  C   UNL     1     -10.541  19.567  65.881  1.00  0.00    -0.572 C  
HETATM   29  C   UNL     1      -9.065  17.562  66.122  1.00  0.00    -0.157 C  
HETATM   30  O   UNL     1      -8.872  18.913  69.076  1.00  0.00    -0.258 OA 
HETATM   31  O   UNL     1      -8.368  20.398  67.472  1.00  0.00    -0.327 OA 
HETATM   32  C   UNL     1      -9.921  18.581  66.886  1.00  0.00    -0.349 C  
HETATM   33  C   UNL     1      -8.993  19.404  67.821  1.00  0.00    -0.313 C  
ENDBRANCH  25  27
ENDBRANCH  24  25
BRANCH  24  34
HETATM   34  C   UNL     1     -11.672  15.505  69.856  1.00  0.00    -0.352 A  
HETATM   35  H2  UNL     1     -12.732  15.746  73.978  1.00  0.00     0.000 HD 
HETATM   36  C   UNL     1     -12.399  14.340  70.030  1.00  0.00    -0.346 A  
HETATM   37  S   UNL     1     -12.969  14.236  71.641  1.00  0.00    -0.366 SA 
HETATM   38  H1  UNL     1     -11.794  17.140  73.450  1.00  0.00     0.000 HD 
HETATM   39  N   UNL     1     -12.245  16.250  73.237  1.00  0.00    -0.518 NA 
HETATM   40  N   UNL     1     -11.607  16.310  70.994  1.00  0.00    -0.384 NA 
HETATM   41  C   UNL     1     -12.210  15.731  72.000  1.00  0.00    -0.465 A  
ENDBRANCH  24  34
ENDBRANCH  23  24
ENDBRANCH   7  20
TORSDOF 7
ENDMDL
MODEL       26
REMARK 921   NORMALIZED FREE ENERGY PREDICTED BY IDOCK:   -6.99 KCAL/MOL
REMARK 922        TOTAL FREE ENERGY PREDICTED BY IDOCK:  -11.39 KCAL/MOL
REMARK 923 INTER-LIGAND FREE ENERGY PREDICTED BY IDOCK:   -9.92 KCAL/MOL
REMARK 924 INTRA-LIGAND FREE ENERGY PREDICTED BY IDOCK:   -1.47 KCAL/MOL
REMARK 927      BINDING AFFINITY PREDICTED BY RF-SCORE:    0.00 PKD
ROOT
HETATM    1  O   UNL     1     -13.233  11.796  72.179  1.00  0.00    -0.498 OA 
HETATM    2  C   UNL     1     -12.749  10.823  71.560  1.00  0.00    -0.431 C  
HETATM    3  CA  UNL     1     -11.966  11.142  70.212  1.00  0.00    -0.373 C  
HETATM    4  OXT UNL     1     -12.801   9.587  71.849  1.00  0.00    -0.363 OA 
HETATM    5  C   UNL     1     -11.146  10.208  69.666  1.00  0.00    -0.308 C  
HETATM    6  C   UNL     1     -10.310  10.384  68.425  1.00  0.00    -0.174 C  
HETATM    7  CA  UNL     1     -11.526  14.119  68.641  1.00  0.00    -0.299 C  
HETATM    8  S   UNL     1     -10.549  11.791  67.354  1.00  0.00    -0.233 SA 
HETATM    9  N   UNL     1     -12.017  12.374  69.627  1.00  0.00    -0.298 N  
HETATM   10  O   UNL     1     -12.215  14.263  71.080  1.00  0.00    -0.328 OA 
HETATM   11  C   UNL     1     -11.863  12.653  68.221  1.00  0.00    -0.306 C  
HETATM   12  C   UNL     1     -12.085  13.669  70.038  1.00  0.00    -0.348 C  
ENDROOT
BRANCH   5  13
HETATM   13  C   UNL     1     -10.884   8.856  70.303  1.00  0.00    -0.239 C  
BRANCH  13  14
HETATM   14  N   UNL     1      -9.694   8.752  71.203  1.00  0.00    -0.222 NA 
HETATM   15  C   UNL     1      -7.347   8.500  71.556  1.00  0.00    -0.112 A  
HETATM   16  C   UNL     1      -7.577   8.088  72.862  1.00  0.00    -0.168 A  
HETATM   17  C   UNL     1      -8.426   8.843  70.741  1.00  0.00    -0.182 A  
HETATM   18  C   UNL     1      -9.920   8.443  72.503  1.00  0.00    -0.285 A  
HETATM   19  C   UNL     1      -8.875   8.083  73.347  1.00  0.00    -0.334 A  
ENDBRANCH  13  14
ENDBRANCH   5  13
BRANCH   7  20
HETATM   20  N   UNL     1     -10.078  14.573  68.671  1.00  0.00    -0.239 N  
HETATM   21  H   UNL     1      -9.351  13.922  68.372  1.00  0.00     0.000 HD 
HETATM   22  O   UNL     1     -10.457  16.673  69.598  1.00  0.00    -0.296 OA 
HETATM   23  C   UNL     1      -9.711  15.840  69.090  1.00  0.00    -0.250 C  
BRANCH  23  24
HETATM   24  C   UNL     1      -8.275  16.274  68.904  1.00  0.00    -0.231 C  
BRANCH  24  25
HETATM   25  N   UNL     1      -7.865  17.464  68.565  1.00  0.00    -0.260 NA 
HETATM   26  H   UNL     1      -7.049  17.897  68.998  1.00  0.00     0.000 HD 
BRANCH  25  27
HETATM   27  O   UNL     1      -8.608  18.113  67.572  1.00  0.00    -0.245 OA 
HETATM   28  C   UNL     1      -8.774  19.978  66.088  1.00  0.00    -0.310 C  
HETATM   29  C   UNL     1      -6.736  18.530  66.098  1.00  0.00    -0.275 C  
HETATM   30  O   UNL     1      -6.791  19.654  69.152  1.00  0.00    -0.324 OA 
HETATM   31  O   UNL     1      -6.875  21.335  67.668  1.00  0.00    -0.450 OA 
HETATM   32  C   UNL     1      -7.818  19.169  66.979  1.00  0.00    -0.250 C  
HETATM   33  C   UNL     1      -7.136  20.172  67.950  1.00  0.00    -0.290 C  
ENDBRANCH  25  27
ENDBRANCH  24  25
BRANCH  24  34
HETATM   34  C   UNL     1      -7.221  15.258  69.002  1.00  0.00    -0.151 A  
HETATM   35  H2  UNL     1      -4.770  12.044  67.647  1.00  0.00     0.000 HD 
HETATM   36  C   UNL     1      -6.600  14.862  70.174  1.00  0.00    -0.139 A  
HETATM   37  S   UNL     1      -5.517  13.574  69.861  1.00  0.00    -0.108 SA 
HETATM   38  H1  UNL     1      -5.688  12.778  66.336  1.00  0.00     0.000 HD 
HETATM   39  N   UNL     1      -5.432  12.750  67.323  1.00  0.00    -0.334 NA 
HETATM   40  N   UNL     1      -6.804  14.554  67.870  1.00  0.00    -0.148 NA 
HETATM   41  C   UNL     1      -5.949  13.622  68.202  1.00  0.00    -0.118 A  
ENDBRANCH  24  34
ENDBRANCH  23  24
ENDBRANCH   7  20
TORSDOF 7
ENDMDL
MODEL       27
REMARK 921   NORMALIZED FREE ENERGY PREDICTED BY IDOCK:   -6.98 KCAL/MOL
REMARK 922        TOTAL FREE ENERGY PREDICTED BY IDOCK:  -11.38 KCAL/MOL
REMARK 923 INTER-LIGAND FREE ENERGY PREDICTED BY IDOCK:  -10.33 KCAL/MOL
REMARK 924 INTRA-LIGAND FREE ENERGY PREDICTED BY IDOCK:   -1.04 KCAL/MOL
REMARK 927      BINDING AFFINITY PREDICTED BY RF-SCORE:    0.00 PKD
ROOT
HETATM    1  O   UNL     1      -5.436  14.723  67.340  1.00  0.00    -0.338 OA 
HETATM    2  C   UNL     1      -5.943  15.859  67.475  1.00  0.00    -0.133 C  
HETATM    3  CA  UNL     1      -7.529  15.934  67.575  1.00  0.00    -0.168 C  
HETATM    4  OXT UNL     1      -5.366  16.989  67.534  1.00  0.00    -0.116 OA 
HETATM    5  C   UNL     1      -8.128  17.059  68.044  1.00  0.00    -0.204 C  
HETATM    6  C   UNL     1      -9.608  17.257  68.238  1.00  0.00    -0.288 C  
HETATM    7  CA  UNL     1      -9.815  13.436  67.323  1.00  0.00    -0.233 C  
HETATM    8  S   UNL     1     -10.781  16.089  67.571  1.00  0.00    -0.294 SA 
HETATM    9  N   UNL     1      -8.318  14.857  67.292  1.00  0.00    -0.197 N  
HETATM   10  O   UNL     1      -7.435  12.695  67.805  1.00  0.00    -0.106 OA 
HETATM   11  C   UNL     1      -9.674  14.902  66.804  1.00  0.00    -0.251 C  
HETATM   12  C   UNL     1      -8.250  13.507  67.442  1.00  0.00    -0.181 C  
ENDROOT
BRANCH   5  13
HETATM   13  C   UNL     1      -7.355  18.269  68.538  1.00  0.00    -0.286 C  
BRANCH  13  14
HETATM   14  N   UNL     1      -7.067  19.342  67.536  1.00  0.00    -0.212 NA 
HETATM   15  C   UNL     1      -6.907  20.121  65.286  1.00  0.00    -0.334 A  
HETATM   16  C   UNL     1      -6.085  21.163  65.694  1.00  0.00    -0.223 A  
HETATM   17  C   UNL     1      -7.402  19.222  66.230  1.00  0.00    -0.264 A  
HETATM   18  C   UNL     1      -6.346  20.409  67.955  1.00  0.00    -0.286 A  
HETATM   19  C   UNL     1      -5.822  21.322  67.046  1.00  0.00    -0.392 A  
ENDBRANCH  13  14
ENDBRANCH   5  13
BRANCH   7  20
HETATM   20  N   UNL     1     -10.524  13.175  68.639  1.00  0.00    -0.322 N  
HETATM   21  H   UNL     1     -10.275  13.737  69.453  1.00  0.00     0.000 HD 
HETATM   22  O   UNL     1     -11.801  11.368  67.921  1.00  0.00    -0.588 OA 
HETATM   23  C   UNL     1     -11.498  12.200  68.771  1.00  0.00    -0.307 C  
BRANCH  23  24
HETATM   24  C   UNL     1     -12.287  12.139  70.059  1.00  0.00    -0.096 C  
BRANCH  24  25
HETATM   25  N   UNL     1     -12.889  13.137  70.644  1.00  0.00    -0.102 NA 
HETATM   26  H   UNL     1     -13.429  13.825  70.119  1.00  0.00     0.000 HD 
BRANCH  25  27
HETATM   27  O   UNL     1     -12.752  13.209  72.035  1.00  0.00    -0.196 OA 
HETATM   28  C   UNL     1     -12.481  14.607  73.954  1.00  0.00    -0.198 C  
HETATM   29  C   UNL     1     -14.359  14.990  72.347  1.00  0.00    -0.430 C  
HETATM   30  O   UNL     1     -11.745  15.361  70.445  1.00  0.00    -0.266 OA 
HETATM   31  O   UNL     1     -11.627  16.685  72.252  1.00  0.00    -0.393 OA 
HETATM   32  C   UNL     1     -12.885  14.582  72.470  1.00  0.00    -0.386 C  
HETATM   33  C   UNL     1     -12.016  15.642  71.741  1.00  0.00    -0.440 C  
ENDBRANCH  25  27
ENDBRANCH  24  25
BRANCH  24  34
HETATM   34  C   UNL     1     -12.312  10.876  70.803  1.00  0.00    -0.390 A  
HETATM   35  H2  UNL     1     -14.055   7.764  73.139  1.00  0.00     0.000 HD 
HETATM   36  C   UNL     1     -11.196  10.159  71.199  1.00  0.00    -0.171 A  
HETATM   37  S   UNL     1     -11.665   8.811  72.142  1.00  0.00    -0.335 SA 
HETATM   38  H1  UNL     1     -15.268   8.851  72.469  1.00  0.00     0.000 HD 
HETATM   39  N   UNL     1     -14.290   8.579  72.571  1.00  0.00    -0.492 NA 
HETATM   40  N   UNL     1     -13.523  10.325  71.229  1.00  0.00    -0.269 NA 
HETATM   41  C   UNL     1     -13.309   9.270  71.972  1.00  0.00    -0.450 A  
ENDBRANCH  24  34
ENDBRANCH  23  24
ENDBRANCH   7  20
TORSDOF 7
ENDMDL
MODEL       28
REMARK 921   NORMALIZED FREE ENERGY PREDICTED BY IDOCK:   -6.96 KCAL/MOL
REMARK 922        TOTAL FREE ENERGY PREDICTED BY IDOCK:  -11.35 KCAL/MOL
REMARK 923 INTER-LIGAND FREE ENERGY PREDICTED BY IDOCK:   -9.16 KCAL/MOL
REMARK 924 INTRA-LIGAND FREE ENERGY PREDICTED BY IDOCK:   -2.19 KCAL/MOL
REMARK 927      BINDING AFFINITY PREDICTED BY RF-SCORE:    0.00 PKD
ROOT
HETATM    1  O   UNL     1     -12.592  11.044  71.652  1.00  0.00    -0.358 OA 
HETATM    2  C   UNL     1     -12.120  10.310  70.755  1.00  0.00    -0.353 C  
HETATM    3  CA  UNL     1     -11.662  11.021  69.407  1.00  0.00    -0.323 C  
HETATM    4  OXT UNL     1     -11.958   9.050  70.758  1.00  0.00    -0.264 OA 
HETATM    5  C   UNL     1     -10.853  10.367  68.535  1.00  0.00    -0.278 C  
HETATM    6  C   UNL     1     -10.304  10.926  67.249  1.00  0.00    -0.216 C  
HETATM    7  CA  UNL     1     -11.915  14.286  68.512  1.00  0.00    -0.317 C  
HETATM    8  S   UNL     1     -10.923  12.461  66.583  1.00  0.00    -0.282 SA 
HETATM    9  N   UNL     1     -11.981  12.320  69.137  1.00  0.00    -0.282 N  
HETATM   10  O   UNL     1     -12.127  13.816  70.998  1.00  0.00    -0.340 OA 
HETATM   11  C   UNL     1     -12.141  12.901  67.827  1.00  0.00    -0.163 C  
HETATM   12  C   UNL     1     -12.129  13.476  69.840  1.00  0.00    -0.341 C  
ENDROOT
BRANCH   5  13
HETATM   13  C   UNL     1     -10.304   8.975  68.793  1.00  0.00    -0.215 C  
BRANCH  13  14
HETATM   14  N   UNL     1      -8.881   8.884  69.244  1.00  0.00    -0.138 NA 
HETATM   15  C   UNL     1      -7.094   9.527  70.690  1.00  0.00    -0.128 A  
HETATM   16  C   UNL     1      -6.166   9.068  69.765  1.00  0.00    -0.038 A  
HETATM   17  C   UNL     1      -8.457   9.413  70.416  1.00  0.00    -0.214 A  
HETATM   18  C   UNL     1      -7.986   8.348  68.380  1.00  0.00    -0.118 A  
HETATM   19  C   UNL     1      -6.618   8.451  68.609  1.00  0.00    -0.055 A  
ENDBRANCH  13  14
ENDBRANCH   5  13
BRANCH   7  20
HETATM   20  N   UNL     1     -10.558  14.958  68.409  1.00  0.00    -0.239 N  
HETATM   21  H   UNL     1      -9.834  14.521  67.837  1.00  0.00     0.000 HD 
HETATM   22  O   UNL     1     -10.991  16.703  69.884  1.00  0.00    -0.347 OA 
HETATM   23  C   UNL     1     -10.270  16.142  69.065  1.00  0.00    -0.250 C  
BRANCH  23  24
HETATM   24  C   UNL     1      -8.966  16.841  68.752  1.00  0.00    -0.254 C  
BRANCH  24  25
HETATM   25  N   UNL     1      -7.779  16.476  69.150  1.00  0.00    -0.233 NA 
HETATM   26  H   UNL     1      -6.969  17.089  69.063  1.00  0.00     0.000 HD 
BRANCH  25  27
HETATM   27  O   UNL     1      -7.681  15.194  69.704  1.00  0.00    -0.215 OA 
HETATM   28  C   UNL     1      -6.452  13.148  69.822  1.00  0.00    -0.009 C  
HETATM   29  C   UNL     1      -5.329  15.342  70.249  1.00  0.00    -0.125 C  
HETATM   30  O   UNL     1      -6.404  15.706  67.199  1.00  0.00    -0.308 OA 
HETATM   31  O   UNL     1      -5.174  13.841  67.408  1.00  0.00    -0.337 OA 
HETATM   32  C   UNL     1      -6.388  14.626  69.399  1.00  0.00    -0.125 C  
HETATM   33  C   UNL     1      -5.934  14.657  67.914  1.00  0.00    -0.139 C  
ENDBRANCH  25  27
ENDBRANCH  24  25
BRANCH  24  34
HETATM   34  C   UNL     1      -9.013  18.112  68.022  1.00  0.00    -0.283 A  
HETATM   35  H2  UNL     1      -7.659  21.978  66.841  1.00  0.00     0.000 HD 
HETATM   36  C   UNL     1     -10.113  18.601  67.338  1.00  0.00    -0.362 A  
HETATM   37  S   UNL     1      -9.781  20.165  66.729  1.00  0.00    -0.447 SA 
HETATM   38  H1  UNL     1      -6.431  21.088  67.737  1.00  0.00     0.000 HD 
HETATM   39  N   UNL     1      -7.364  21.131  67.328  1.00  0.00    -0.443 NA 
HETATM   40  N   UNL     1      -7.915  18.974  68.024  1.00  0.00    -0.280 NA 
HETATM   41  C   UNL     1      -8.211  20.094  67.417  1.00  0.00    -0.340 A  
ENDBRANCH  24  34
ENDBRANCH  23  24
ENDBRANCH   7  20
TORSDOF 7
ENDMDL
MODEL       29
REMARK 921   NORMALIZED FREE ENERGY PREDICTED BY IDOCK:   -6.95 KCAL/MOL
REMARK 922        TOTAL FREE ENERGY PREDICTED BY IDOCK:  -11.33 KCAL/MOL
REMARK 923 INTER-LIGAND FREE ENERGY PREDICTED BY IDOCK:   -9.51 KCAL/MOL
REMARK 924 INTRA-LIGAND FREE ENERGY PREDICTED BY IDOCK:   -1.82 KCAL/MOL
REMARK 927      BINDING AFFINITY PREDICTED BY RF-SCORE:    0.00 PKD
ROOT
HETATM    1  O   UNL     1      -7.647  15.860  68.936  1.00  0.00    -0.162 OA 
HETATM    2  C   UNL     1      -8.879  16.047  68.826  1.00  0.00    -0.227 C  
HETATM    3  CA  UNL     1      -9.737  14.861  68.201  1.00  0.00    -0.214 C  
HETATM    4  OXT UNL     1      -9.561  17.073  69.136  1.00  0.00    -0.230 OA 
HETATM    5  C   UNL     1     -11.086  14.848  68.348  1.00  0.00    -0.282 C  
HETATM    6  C   UNL     1     -12.019  13.774  67.855  1.00  0.00    -0.356 C  
HETATM    7  CA  UNL     1      -8.689  11.883  66.953  1.00  0.00    -0.191 C  
HETATM    8  S   UNL     1     -11.444  12.510  66.735  1.00  0.00    -0.380 SA 
HETATM    9  N   UNL     1      -9.147  13.790  67.596  1.00  0.00    -0.186 N  
HETATM   10  O   UNL     1      -7.031  13.081  68.456  1.00  0.00    -0.089 OA 
HETATM   11  C   UNL     1      -9.722  12.982  66.550  1.00  0.00    -0.266 C  
HETATM   12  C   UNL     1      -8.018  13.049  67.763  1.00  0.00    -0.164 C  
ENDROOT
BRANCH   5  13
HETATM   13  C   UNL     1     -11.848  15.901  69.134  1.00  0.00    -0.330 C  
BRANCH  13  14
HETATM   14  N   UNL     1     -12.352  15.503  70.484  1.00  0.00    -0.402 NA 
HETATM   15  C   UNL     1     -14.131  15.116  72.028  1.00  0.00    -0.659 A  
HETATM   16  C   UNL     1     -13.247  15.232  73.093  1.00  0.00    -0.612 A  
HETATM   17  C   UNL     1     -13.659  15.242  70.722  1.00  0.00    -0.254 A  
HETATM   18  C   UNL     1     -11.468  15.523  71.511  1.00  0.00    -0.421 A  
HETATM   19  C   UNL     1     -11.898  15.413  72.829  1.00  0.00    -0.563 A  
ENDBRANCH  13  14
ENDBRANCH   5  13
BRANCH   7  20
HETATM   20  N   UNL     1      -9.139  10.714  67.810  1.00  0.00    -0.142 N  
HETATM   21  H   UNL     1     -10.135  10.593  67.996  1.00  0.00     0.000 HD 
HETATM   22  O   UNL     1      -7.020   9.901  68.318  1.00  0.00    -0.070 OA 
HETATM   23  C   UNL     1      -8.243   9.806  68.347  1.00  0.00    -0.105 C  
BRANCH  23  24
HETATM   24  C   UNL     1      -8.788   8.567  69.021  1.00  0.00    -0.145 C  
BRANCH  24  25
HETATM   25  N   UNL     1      -8.494   7.332  68.723  1.00  0.00    -0.129 NA 
HETATM   26  H   UNL     1      -8.195   6.662  69.433  1.00  0.00     0.000 HD 
BRANCH  25  27
HETATM   27  O   UNL     1      -8.611   6.978  67.374  1.00  0.00    -0.121 OA 
HETATM   28  C   UNL     1      -9.429   5.399  65.778  1.00  0.00    -0.104 C  
HETATM   29  C   UNL     1     -10.962   6.419  67.471  1.00  0.00    -0.454 C  
HETATM   30  O   UNL     1      -8.769   4.919  69.350  1.00  0.00    -0.086 OA 
HETATM   31  O   UNL     1      -9.656   3.504  67.852  1.00  0.00    -0.190 OA 
HETATM   32  C   UNL     1      -9.544   5.883  67.234  1.00  0.00    -0.116 C  
HETATM   33  C   UNL     1      -9.324   4.645  68.146  1.00  0.00    -0.135 C  
ENDBRANCH  25  27
ENDBRANCH  24  25
BRANCH  24  34
HETATM   34  C   UNL     1      -9.830   8.728  70.041  1.00  0.00    -0.178 A  
HETATM   35  H2  UNL     1     -12.952  10.738  72.135  1.00  0.00     0.000 HD 
HETATM   36  C   UNL     1      -9.997   7.916  71.149  1.00  0.00    -0.173 A  
HETATM   37  S   UNL     1     -11.253   8.522  72.141  1.00  0.00    -0.359 SA 
HETATM   38  H1  UNL     1     -12.528  11.553  70.632  1.00  0.00     0.000 HD 
HETATM   39  N   UNL     1     -12.390  10.781  71.284  1.00  0.00    -0.370 NA 
HETATM   40  N   UNL     1     -10.723   9.801  69.981  1.00  0.00    -0.261 NA 
HETATM   41  C   UNL     1     -11.484   9.821  71.045  1.00  0.00    -0.383 A  
ENDBRANCH  24  34
ENDBRANCH  23  24
ENDBRANCH   7  20
TORSDOF 7
ENDMDL
MODEL       30
REMARK 921   NORMALIZED FREE ENERGY PREDICTED BY IDOCK:   -6.92 KCAL/MOL
REMARK 922        TOTAL FREE ENERGY PREDICTED BY IDOCK:  -11.28 KCAL/MOL
REMARK 923 INTER-LIGAND FREE ENERGY PREDICTED BY IDOCK:   -9.08 KCAL/MOL
REMARK 924 INTRA-LIGAND FREE ENERGY PREDICTED BY IDOCK:   -2.20 KCAL/MOL
REMARK 927      BINDING AFFINITY PREDICTED BY RF-SCORE:    0.00 PKD
ROOT
HETATM    1  O   UNL     1      -5.622   7.989  69.787  1.00  0.00    -0.023 OA 
HETATM    2  C   UNL     1      -6.059   7.499  68.722  1.00  0.00    -0.031 C  
HETATM    3  CA  UNL     1      -7.570   7.828  68.342  1.00  0.00    -0.109 C  
HETATM    4  OXT UNL     1      -5.466   6.752  67.884  1.00  0.00    -0.013 OA 
HETATM    5  C   UNL     1      -8.013   7.620  67.077  1.00  0.00    -0.116 C  
HETATM    6  C   UNL     1      -9.395   7.926  66.563  1.00  0.00    -0.200 C  
HETATM    7  CA  UNL     1      -9.890   9.575  70.099  1.00  0.00    -0.244 C  
HETATM    8  S   UNL     1     -10.717   8.338  67.687  1.00  0.00    -0.036 SA 
HETATM    9  N   UNL     1      -8.424   8.410  69.235  1.00  0.00    -0.124 N  
HETATM   10  O   UNL     1      -7.479   9.953  70.798  1.00  0.00    -0.313 OA 
HETATM   11  C   UNL     1      -9.857   8.259  69.261  1.00  0.00    -0.186 C  
HETATM   12  C   UNL     1      -8.345   9.332  70.231  1.00  0.00    -0.186 C  
ENDROOT
BRANCH   5  13
HETATM   13  C   UNL     1      -7.120   7.122  65.954  1.00  0.00    -0.069 C  
BRANCH  13  14
HETATM   14  N   UNL     1      -6.753   8.111  64.894  1.00  0.00    -0.055 NA 
HETATM   15  C   UNL     1      -5.911  10.238  64.211  1.00  0.00    -0.142 A  
HETATM   16  C   UNL     1      -6.526  10.096  62.975  1.00  0.00    -0.136 A  
HETATM   17  C   UNL     1      -6.025   9.221  65.160  1.00  0.00    -0.060 A  
HETATM   18  C   UNL     1      -7.275   7.924  63.658  1.00  0.00    -0.090 A  
HETATM   19  C   UNL     1      -7.195   8.917  62.687  1.00  0.00    -0.095 A  
ENDBRANCH  13  14
ENDBRANCH   5  13
BRANCH   7  20
HETATM   20  N   UNL     1     -10.255  10.883  69.421  1.00  0.00    -0.400 N  
HETATM   21  H   UNL     1      -9.511  11.460  69.030  1.00  0.00     0.000 HD 
HETATM   22  O   UNL     1     -12.540  10.799  69.852  1.00  0.00    -0.294 OA 
HETATM   23  C   UNL     1     -11.565  11.318  69.316  1.00  0.00    -0.322 C  
BRANCH  23  24
HETATM   24  C   UNL     1     -11.856  12.529  68.458  1.00  0.00    -0.295 C  
BRANCH  24  25
HETATM   25  N   UNL     1     -12.111  12.527  67.180  1.00  0.00    -0.495 NA 
HETATM   26  H   UNL     1     -12.856  13.097  66.777  1.00  0.00     0.000 HD 
BRANCH  25  27
HETATM   27  O   UNL     1     -11.306  11.697  66.391  1.00  0.00    -0.323 OA 
HETATM   28  C   UNL     1     -10.409  11.244  64.223  1.00  0.00    -0.399 C  
HETATM   29  C   UNL     1     -10.117  13.489  65.285  1.00  0.00    -0.277 C  
HETATM   30  O   UNL     1     -13.357  13.228  65.118  1.00  0.00    -0.593 OA 
HETATM   31  O   UNL     1     -12.412  12.886  63.112  1.00  0.00    -0.641 OA 
HETATM   32  C   UNL     1     -11.083  12.311  65.102  1.00  0.00    -0.317 C  
HETATM   33  C   UNL     1     -12.335  12.813  64.332  1.00  0.00    -0.424 C  
ENDBRANCH  25  27
ENDBRANCH  24  25
BRANCH  24  34
HETATM   34  C   UNL     1     -11.745  13.859  69.067  1.00  0.00    -0.338 A  
HETATM   35  H2  UNL     1     -10.679  17.982  69.250  1.00  0.00     0.000 HD 
HETATM   36  C   UNL     1     -11.941  14.143  70.407  1.00  0.00    -0.330 A  
HETATM   37  S   UNL     1     -11.599  15.791  70.717  1.00  0.00    -0.430 SA 
HETATM   38  H1  UNL     1     -10.543  17.332  67.619  1.00  0.00     0.000 HD 
HETATM   39  N   UNL     1     -10.775  17.199  68.603  1.00  0.00    -0.335 NA 
HETATM   40  N   UNL     1     -11.357  14.961  68.302  1.00  0.00    -0.296 NA 
HETATM   41  C   UNL     1     -11.207  16.015  69.063  1.00  0.00    -0.347 A  
ENDBRANCH  24  34
ENDBRANCH  23  24
ENDBRANCH   7  20
TORSDOF 7
ENDMDL
MODEL       31
REMARK 921   NORMALIZED FREE ENERGY PREDICTED BY IDOCK:   -6.88 KCAL/MOL
REMARK 922        TOTAL FREE ENERGY PREDICTED BY IDOCK:  -11.24 KCAL/MOL
REMARK 923 INTER-LIGAND FREE ENERGY PREDICTED BY IDOCK:   -9.74 KCAL/MOL
REMARK 924 INTRA-LIGAND FREE ENERGY PREDICTED BY IDOCK:   -1.50 KCAL/MOL
REMARK 927      BINDING AFFINITY PREDICTED BY RF-SCORE:    0.00 PKD
ROOT
HETATM    1  O   UNL     1      -8.107   5.516  66.973  1.00  0.00    -0.101 OA 
HETATM    2  C   UNL     1      -8.606   5.347  68.107  1.00  0.00    -0.096 C  
HETATM    3  CA  UNL     1      -8.974   6.654  68.936  1.00  0.00    -0.130 C  
HETATM    4  OXT UNL     1      -8.859   4.260  68.714  1.00  0.00    -0.092 OA 
HETATM    5  C   UNL     1      -9.803   6.569  70.007  1.00  0.00    -0.183 C  
HETATM    6  C   UNL     1     -10.274   7.722  70.854  1.00  0.00    -0.199 C  
HETATM    7  CA  UNL     1      -8.460   9.914  68.139  1.00  0.00    -0.114 C  
HETATM    8  S   UNL     1      -9.527   9.334  70.699  1.00  0.00    -0.268 SA 
HETATM    9  N   UNL     1      -8.554   7.893  68.546  1.00  0.00    -0.128 N  
HETATM   10  O   UNL     1      -8.352   8.284  66.195  1.00  0.00    -0.112 OA 
HETATM   11  C   UNL     1      -8.316   9.021  69.412  1.00  0.00    -0.119 C  
HETATM   12  C   UNL     1      -8.342   8.548  67.373  1.00  0.00    -0.120 C  
ENDROOT
BRANCH   5  13
HETATM   13  C   UNL     1     -10.459   5.273  70.450  1.00  0.00    -0.251 C  
BRANCH  13  14
HETATM   14  N   UNL     1     -10.099   4.763  71.809  1.00  0.00    -0.189 NA 
HETATM   15  C   UNL     1      -8.642   3.587  73.289  1.00  0.00    -0.086 A  
HETATM   16  C   UNL     1      -9.679   3.427  74.199  1.00  0.00    -0.142 A  
HETATM   17  C   UNL     1      -8.870   4.275  72.097  1.00  0.00    -0.112 A  
HETATM   18  C   UNL     1     -11.089   4.695  72.732  1.00  0.00    -0.132 A  
HETATM   19  C   UNL     1     -10.908   4.008  73.927  1.00  0.00    -0.316 A  
ENDBRANCH  13  14
ENDBRANCH   5  13
BRANCH   7  20
HETATM   20  N   UNL     1      -9.761  10.654  67.888  1.00  0.00    -0.159 N  
HETATM   21  H   UNL     1     -10.550  10.143  67.490  1.00  0.00     0.000 HD 
HETATM   22  O   UNL     1      -9.020  12.761  68.537  1.00  0.00    -0.152 OA 
HETATM   23  C   UNL     1      -9.914  11.998  68.183  1.00  0.00    -0.203 C  
BRANCH  23  24
HETATM   24  C   UNL     1     -11.295  12.605  68.086  1.00  0.00    -0.290 C  
BRANCH  24  25
HETATM   25  N   UNL     1     -12.076  12.586  67.041  1.00  0.00    -0.514 NA 
HETATM   26  H   UNL     1     -12.932  13.139  66.998  1.00  0.00     0.000 HD 
BRANCH  25  27
HETATM   27  O   UNL     1     -11.671  11.764  65.983  1.00  0.00    -0.433 OA 
HETATM   28  C   UNL     1     -11.215  11.584  63.645  1.00  0.00    -0.451 C  
HETATM   29  C   UNL     1     -10.105  13.344  65.032  1.00  0.00    -0.261 C  
HETATM   30  O   UNL     1     -13.256  14.070  65.399  1.00  0.00    -0.761 OA 
HETATM   31  O   UNL     1     -12.701  13.943  63.229  1.00  0.00    -0.775 OA 
HETATM   32  C   UNL     1     -11.411  12.568  64.810  1.00  0.00    -0.313 C  
HETATM   33  C   UNL     1     -12.515  13.572  64.381  1.00  0.00    -0.267 C  
ENDBRANCH  25  27
ENDBRANCH  24  25
BRANCH  24  34
HETATM   34  C   UNL     1     -11.794  13.389  69.221  1.00  0.00    -0.334 A  
HETATM   35  H2  UNL     1     -13.824  14.041  72.912  1.00  0.00     0.000 HD 
HETATM   36  C   UNL     1     -11.839  14.771  69.279  1.00  0.00    -0.318 A  
HETATM   37  S   UNL     1     -12.599  15.276  70.727  1.00  0.00    -0.444 SA 
HETATM   38  H1  UNL     1     -13.599  12.328  72.571  1.00  0.00     0.000 HD 
HETATM   39  N   UNL     1     -13.465  13.303  72.305  1.00  0.00    -0.561 NA 
HETATM   40  N   UNL     1     -12.335  12.754  70.340  1.00  0.00    -0.292 NA 
HETATM   41  C   UNL     1     -12.825  13.635  71.174  1.00  0.00    -0.323 A  
ENDBRANCH  24  34
ENDBRANCH  23  24
ENDBRANCH   7  20
TORSDOF 7
ENDMDL
MODEL       32
REMARK 921   NORMALIZED FREE ENERGY PREDICTED BY IDOCK:   -6.87 KCAL/MOL
REMARK 922        TOTAL FREE ENERGY PREDICTED BY IDOCK:  -11.22 KCAL/MOL
REMARK 923 INTER-LIGAND FREE ENERGY PREDICTED BY IDOCK:   -9.80 KCAL/MOL
REMARK 924 INTRA-LIGAND FREE ENERGY PREDICTED BY IDOCK:   -1.42 KCAL/MOL
REMARK 927      BINDING AFFINITY PREDICTED BY RF-SCORE:    0.00 PKD
ROOT
HETATM    1  O   UNL     1     -11.150  18.784  67.447  1.00  0.00    -0.332 OA 
HETATM    2  C   UNL     1      -9.960  18.697  67.071  1.00  0.00    -0.340 C  
HETATM    3  CA  UNL     1      -9.145  17.415  67.545  1.00  0.00    -0.232 C  
HETATM    4  OXT UNL     1      -9.286  19.506  66.359  1.00  0.00    -0.346 OA 
HETATM    5  C   UNL     1      -7.983  17.082  66.927  1.00  0.00    -0.256 C  
HETATM    6  C   UNL     1      -7.132  15.878  67.235  1.00  0.00    -0.207 C  
HETATM    7  CA  UNL     1     -10.121  14.891  69.594  1.00  0.00    -0.053 C  
HETATM    8  S   UNL     1      -7.434  14.895  68.692  1.00  0.00    -0.133 SA 
HETATM    9  N   UNL     1      -9.628  16.571  68.503  1.00  0.00    -0.225 N  
HETATM   10  O   UNL     1     -12.000  16.280  68.601  1.00  0.00    -0.182 OA 
HETATM   11  C   UNL     1      -8.840  15.761  69.397  1.00  0.00    -0.237 C  
HETATM   12  C   UNL     1     -10.842  16.093  68.887  1.00  0.00    -0.305 C  
ENDROOT
BRANCH   5  13
HETATM   13  C   UNL     1      -7.418  17.852  65.747  1.00  0.00    -0.070 C  
BRANCH  13  14
HETATM   14  N   UNL     1      -6.481  18.974  66.058  1.00  0.00    -0.198 NA 
HETATM   15  C   UNL     1      -5.433  20.465  67.599  1.00  0.00    -0.215 A  
HETATM   16  C   UNL     1      -5.125  21.337  66.563  1.00  0.00    -0.268 A  
HETATM   17  C   UNL     1      -6.104  19.274  67.323  1.00  0.00    -0.186 A  
HETATM   18  C   UNL     1      -6.101  19.773  65.031  1.00  0.00    -0.247 A  
HETATM   19  C   UNL     1      -5.442  20.975  65.263  1.00  0.00    -0.250 A  
ENDBRANCH  13  14
ENDBRANCH   5  13
BRANCH   7  20
HETATM   20  N   UNL     1     -10.248  13.571  68.856  1.00  0.00    -0.420 N  
HETATM   21  H   UNL     1      -9.505  13.291  68.216  1.00  0.00     0.000 HD 
HETATM   22  O   UNL     1     -12.360  13.003  69.649  1.00  0.00    -0.189 OA 
HETATM   23  C   UNL     1     -11.339  12.736  69.022  1.00  0.00    -0.294 C  
BRANCH  23  24
HETATM   24  C   UNL     1     -11.294  11.358  68.401  1.00  0.00    -0.281 C  
BRANCH  24  25
HETATM   25  N   UNL     1     -11.442  10.223  69.026  1.00  0.00    -0.449 NA 
HETATM   26  H   UNL     1     -12.253   9.624  68.870  1.00  0.00     0.000 HD 
BRANCH  25  27
HETATM   27  O   UNL     1     -10.426   9.876  69.924  1.00  0.00    -0.232 OA 
HETATM   28  C   UNL     1      -9.837   8.762  71.954  1.00  0.00    -0.395 C  
HETATM   29  C   UNL     1     -11.080   7.558  70.148  1.00  0.00    -0.246 C  
HETATM   30  O   UNL     1     -13.118   9.988  70.878  1.00  0.00    -0.366 OA 
HETATM   31  O   UNL     1     -12.551   8.827  72.712  1.00  0.00    -0.316 OA 
HETATM   32  C   UNL     1     -10.920   8.902  70.871  1.00  0.00    -0.266 C  
HETATM   33  C   UNL     1     -12.253   9.235  71.597  1.00  0.00    -0.370 C  
ENDBRANCH  25  27
ENDBRANCH  24  25
BRANCH  24  34
HETATM   34  C   UNL     1     -10.946  11.243  66.981  1.00  0.00    -0.294 A  
HETATM   35  H2  UNL     1     -11.046  12.289  62.849  1.00  0.00     0.000 HD 
HETATM   36  C   UNL     1     -10.306  10.162  66.399  1.00  0.00    -0.188 A  
HETATM   37  S   UNL     1     -10.198  10.383  64.705  1.00  0.00    -0.133 SA 
HETATM   38  H1  UNL     1     -11.790  13.520  63.865  1.00  0.00     0.000 HD 
HETATM   39  N   UNL     1     -11.308  12.626  63.776  1.00  0.00    -0.434 NA 
HETATM   40  N   UNL     1     -11.310  12.243  66.076  1.00  0.00    -0.334 NA 
HETATM   41  C   UNL     1     -11.010  11.886  64.854  1.00  0.00    -0.313 A  
ENDBRANCH  24  34
ENDBRANCH  23  24
ENDBRANCH   7  20
TORSDOF 7
ENDMDL
MODEL       33
REMARK 921   NORMALIZED FREE ENERGY PREDICTED BY IDOCK:   -6.81 KCAL/MOL
REMARK 922        TOTAL FREE ENERGY PREDICTED BY IDOCK:  -11.14 KCAL/MOL
REMARK 923 INTER-LIGAND FREE ENERGY PREDICTED BY IDOCK:   -9.60 KCAL/MOL
REMARK 924 INTRA-LIGAND FREE ENERGY PREDICTED BY IDOCK:   -1.54 KCAL/MOL
REMARK 927      BINDING AFFINITY PREDICTED BY RF-SCORE:    0.00 PKD
ROOT
HETATM    1  O   UNL     1     -12.441  14.004  63.438  1.00  0.00    -0.826 OA 
HETATM    2  C   UNL     1     -12.123  15.011  64.110  1.00  0.00    -0.223 C  
HETATM    3  CA  UNL     1     -11.643  14.758  65.606  1.00  0.00    -0.290 C  
HETATM    4  OXT UNL     1     -12.137  16.235  63.769  1.00  0.00    -0.959 OA 
HETATM    5  C   UNL     1     -10.980  15.732  66.280  1.00  0.00    -0.163 C  
HETATM    6  C   UNL     1     -10.428  15.621  67.677  1.00  0.00    -0.283 C  
HETATM    7  CA  UNL     1     -11.490  11.847  67.346  1.00  0.00    -0.323 C  
HETATM    8  S   UNL     1     -10.863  14.243  68.724  1.00  0.00    -0.259 SA 
HETATM    9  N   UNL     1     -11.793  13.545  66.212  1.00  0.00    -0.371 N  
HETATM   10  O   UNL     1     -11.633  11.605  64.822  1.00  0.00    -0.221 OA 
HETATM   11  C   UNL     1     -11.940  13.315  67.628  1.00  0.00    -0.322 C  
HETATM   12  C   UNL     1     -11.743  12.236  65.846  1.00  0.00    -0.389 C  
ENDROOT
BRANCH   5  13
HETATM   13  C   UNL     1     -10.616  17.071  65.663  1.00  0.00    -0.197 C  
BRANCH  13  14
HETATM   14  N   UNL     1      -9.801  18.002  66.503  1.00  0.00    -0.336 NA 
HETATM   15  C   UNL     1      -7.752  18.629  67.555  1.00  0.00    -0.240 A  
HETATM   16  C   UNL     1      -8.442  19.459  68.428  1.00  0.00    -0.389 A  
HETATM   17  C   UNL     1      -8.453  17.913  66.584  1.00  0.00    -0.258 A  
HETATM   18  C   UNL     1     -10.470  18.882  67.286  1.00  0.00    -0.439 A  
HETATM   19  C   UNL     1      -9.813  19.605  68.275  1.00  0.00    -0.521 A  
ENDBRANCH  13  14
ENDBRANCH   5  13
BRANCH   7  20
HETATM   20  N   UNL     1     -10.060  11.435  67.645  1.00  0.00    -0.178 N  
HETATM   21  H   UNL     1      -9.344  11.588  66.935  1.00  0.00     0.000 HD 
HETATM   22  O   UNL     1     -10.466  10.495  69.734  1.00  0.00    -0.244 OA 
HETATM   23  C   UNL     1      -9.696  10.858  68.850  1.00  0.00    -0.187 C  
BRANCH  23  24
HETATM   24  C   UNL     1      -8.225  10.659  69.139  1.00  0.00    -0.139 C  
BRANCH  24  25
HETATM   25  N   UNL     1      -7.323  11.595  69.234  1.00  0.00    -0.315 NA 
HETATM   26  H   UNL     1      -6.365  11.393  69.520  1.00  0.00     0.000 HD 
BRANCH  25  27
HETATM   27  O   UNL     1      -7.745  12.892  68.920  1.00  0.00    -0.039 OA 
HETATM   28  C   UNL     1      -7.280  15.233  69.028  1.00  0.00    -0.151 C  
HETATM   29  C   UNL     1      -5.612  13.642  68.060  1.00  0.00    -0.125 C  
HETATM   30  O   UNL     1      -5.933  12.529  71.101  1.00  0.00    -0.286 OA 
HETATM   31  O   UNL     1      -5.427  14.715  71.087  1.00  0.00    -0.140 OA 
HETATM   32  C   UNL     1      -6.669  13.828  69.157  1.00  0.00    -0.112 C  
HETATM   33  C   UNL     1      -5.964  13.761  70.539  1.00  0.00    -0.161 C  
ENDBRANCH  25  27
ENDBRANCH  24  25
BRANCH  24  34
HETATM   34  C   UNL     1      -7.710   9.288  69.222  1.00  0.00    -0.081 A  
HETATM   35  H2  UNL     1      -7.507   5.138  68.268  1.00  0.00     0.000 HD 
HETATM   36  C   UNL     1      -6.857   8.813  70.203  1.00  0.00    -0.040 A  
HETATM   37  S   UNL     1      -6.596   7.134  69.996  1.00  0.00    -0.051 SA 
HETATM   38  H1  UNL     1      -8.533   6.028  67.147  1.00  0.00     0.000 HD 
HETATM   39  N   UNL     1      -7.917   6.020  67.959  1.00  0.00    -0.108 NA 
HETATM   40  N   UNL     1      -8.116   8.318  68.303  1.00  0.00    -0.122 NA 
HETATM   41  C   UNL     1      -7.634   7.147  68.630  1.00  0.00    -0.111 A  
ENDBRANCH  24  34
ENDBRANCH  23  24
ENDBRANCH   7  20
TORSDOF 7
ENDMDL
MODEL       34
REMARK 921   NORMALIZED FREE ENERGY PREDICTED BY IDOCK:   -6.80 KCAL/MOL
REMARK 922        TOTAL FREE ENERGY PREDICTED BY IDOCK:  -11.13 KCAL/MOL
REMARK 923 INTER-LIGAND FREE ENERGY PREDICTED BY IDOCK:   -9.29 KCAL/MOL
REMARK 924 INTRA-LIGAND FREE ENERGY PREDICTED BY IDOCK:   -1.84 KCAL/MOL
REMARK 927      BINDING AFFINITY PREDICTED BY RF-SCORE:    0.00 PKD
ROOT
HETATM    1  O   UNL     1      -5.630   8.074  69.613  1.00  0.00    -0.026 OA 
HETATM    2  C   UNL     1      -6.050   7.650  68.514  1.00  0.00    -0.032 C  
HETATM    3  CA  UNL     1      -7.562   7.980  68.143  1.00  0.00    -0.109 C  
HETATM    4  OXT UNL     1      -5.437   6.969  67.634  1.00  0.00    -0.015 OA 
HETATM    5  C   UNL     1      -7.991   7.850  66.861  1.00  0.00    -0.108 C  
HETATM    6  C   UNL     1      -9.373   8.169  66.356  1.00  0.00    -0.210 C  
HETATM    7  CA  UNL     1      -9.925   9.570  69.990  1.00  0.00    -0.237 C  
HETATM    8  S   UNL     1     -10.711   8.485  67.493  1.00  0.00    -0.037 SA 
HETATM    9  N   UNL     1      -8.433   8.487  69.063  1.00  0.00    -0.124 N  
HETATM   10  O   UNL     1      -7.526   9.937  70.736  1.00  0.00    -0.313 OA 
HETATM   11  C   UNL     1      -9.863   8.313  69.065  1.00  0.00    -0.176 C  
HETATM   12  C   UNL     1      -8.377   9.342  70.120  1.00  0.00    -0.182 C  
ENDROOT
BRANCH   5  13
HETATM   13  C   UNL     1      -7.080   7.443  65.717  1.00  0.00    -0.065 C  
BRANCH  13  14
HETATM   14  N   UNL     1      -7.534   6.300  64.866  1.00  0.00    -0.079 NA 
HETATM   15  C   UNL     1      -8.319   5.408  62.796  1.00  0.00    -0.109 A  
HETATM   16  C   UNL     1      -8.813   4.289  63.453  1.00  0.00    -0.128 A  
HETATM   17  C   UNL     1      -7.666   6.403  63.523  1.00  0.00    -0.106 A  
HETATM   18  C   UNL     1      -7.928   5.169  65.500  1.00  0.00    -0.109 A  
HETATM   19  C   UNL     1      -8.594   4.158  64.816  1.00  0.00    -0.119 A  
ENDBRANCH  13  14
ENDBRANCH   5  13
BRANCH   7  20
HETATM   20  N   UNL     1     -10.306  10.914  69.397  1.00  0.00    -0.373 N  
HETATM   21  H   UNL     1      -9.576  11.493  68.980  1.00  0.00     0.000 HD 
HETATM   22  O   UNL     1     -12.556  10.859  69.985  1.00  0.00    -0.295 OA 
HETATM   23  C   UNL     1     -11.609  11.381  69.405  1.00  0.00    -0.323 C  
BRANCH  23  24
HETATM   24  C   UNL     1     -11.930  12.635  68.623  1.00  0.00    -0.223 C  
BRANCH  24  25
HETATM   25  N   UNL     1     -12.210  12.703  67.352  1.00  0.00    -0.363 NA 
HETATM   26  H   UNL     1     -12.857  13.397  66.978  1.00  0.00     0.000 HD 
BRANCH  25  27
HETATM   27  O   UNL     1     -11.571  11.768  66.529  1.00  0.00    -0.481 OA 
HETATM   28  C   UNL     1     -10.756  11.243  64.345  1.00  0.00    -0.407 C  
HETATM   29  C   UNL     1     -10.049  13.343  65.504  1.00  0.00    -0.279 C  
HETATM   30  O   UNL     1     -13.276  13.718  65.321  1.00  0.00    -0.755 OA 
HETATM   31  O   UNL     1     -12.394  13.287  63.303  1.00  0.00    -0.721 OA 
HETATM   32  C   UNL     1     -11.221  12.382  65.268  1.00  0.00    -0.318 C  
HETATM   33  C   UNL     1     -12.346  13.148  64.519  1.00  0.00    -0.385 C  
ENDBRANCH  25  27
ENDBRANCH  24  25
BRANCH  24  34
HETATM   34  C   UNL     1     -11.822  13.929  69.306  1.00  0.00    -0.348 A  
HETATM   35  H2  UNL     1     -10.490  17.940  69.862  1.00  0.00     0.000 HD 
HETATM   36  C   UNL     1     -12.221  14.183  70.606  1.00  0.00    -0.362 A  
HETATM   37  S   UNL     1     -11.812  15.785  71.048  1.00  0.00    -0.450 SA 
HETATM   38  H1  UNL     1     -10.128  17.337  68.248  1.00  0.00     0.000 HD 
HETATM   39  N   UNL     1     -10.534  17.191  69.171  1.00  0.00    -0.327 NA 
HETATM   40  N   UNL     1     -11.226  15.021  68.670  1.00  0.00    -0.264 NA 
HETATM   41  C   UNL     1     -11.127  16.031  69.495  1.00  0.00    -0.333 A  
ENDBRANCH  24  34
ENDBRANCH  23  24
ENDBRANCH   7  20
TORSDOF 7
ENDMDL
MODEL       35
REMARK 921   NORMALIZED FREE ENERGY PREDICTED BY IDOCK:   -6.73 KCAL/MOL
REMARK 922        TOTAL FREE ENERGY PREDICTED BY IDOCK:  -11.02 KCAL/MOL
REMARK 923 INTER-LIGAND FREE ENERGY PREDICTED BY IDOCK:   -9.27 KCAL/MOL
REMARK 924 INTRA-LIGAND FREE ENERGY PREDICTED BY IDOCK:   -1.75 KCAL/MOL
REMARK 927      BINDING AFFINITY PREDICTED BY RF-SCORE:    0.00 PKD
ROOT
HETATM    1  O   UNL     1     -12.578  10.497  71.556  1.00  0.00    -0.382 OA 
HETATM    2  C   UNL     1     -11.967   9.738  70.771  1.00  0.00    -0.299 C  
HETATM    3  CA  UNL     1     -11.349  10.399  69.462  1.00  0.00    -0.265 C  
HETATM    4  OXT UNL     1     -11.773   8.486  70.861  1.00  0.00    -0.281 OA 
HETATM    5  C   UNL     1     -10.411   9.732  68.742  1.00  0.00    -0.240 C  
HETATM    6  C   UNL     1      -9.707  10.248  67.515  1.00  0.00    -0.169 C  
HETATM    7  CA  UNL     1     -11.568  13.606  68.371  1.00  0.00    -0.342 C  
HETATM    8  S   UNL     1     -10.272  11.727  66.692  1.00  0.00    -0.215 SA 
HETATM    9  N   UNL     1     -11.664  11.672  69.083  1.00  0.00    -0.298 N  
HETATM   10  O   UNL     1     -12.105  13.249  70.827  1.00  0.00    -0.341 OA 
HETATM   11  C   UNL     1     -11.659  12.183  67.736  1.00  0.00    -0.342 C  
HETATM   12  C   UNL     1     -11.939  12.854  69.699  1.00  0.00    -0.292 C  
ENDROOT
BRANCH   5  13
HETATM   13  C   UNL     1      -9.864   8.374  69.145  1.00  0.00    -0.183 C  
BRANCH  13  14
HETATM   14  N   UNL     1      -9.781   7.334  68.074  1.00  0.00    -0.139 NA 
HETATM   15  C   UNL     1     -10.800   5.765  66.591  1.00  0.00    -0.290 A  
HETATM   16  C   UNL     1      -9.592   5.095  66.453  1.00  0.00    -0.171 A  
HETATM   17  C   UNL     1     -10.872   6.898  67.401  1.00  0.00    -0.326 A  
HETATM   18  C   UNL     1      -8.579   6.743  67.869  1.00  0.00    -0.122 A  
HETATM   19  C   UNL     1      -8.465   5.604  67.080  1.00  0.00    -0.110 A  
ENDBRANCH  13  14
ENDBRANCH   5  13
BRANCH   7  20
HETATM   20  N   UNL     1     -10.229  14.319  68.418  1.00  0.00    -0.239 N  
HETATM   21  H   UNL     1      -9.418  13.873  67.987  1.00  0.00     0.000 HD 
HETATM   22  O   UNL     1     -10.918  16.139  69.692  1.00  0.00    -0.299 OA 
HETATM   23  C   UNL     1     -10.071  15.553  69.025  1.00  0.00    -0.234 C  
BRANCH  23  24
HETATM   24  C   UNL     1      -8.754  16.276  68.855  1.00  0.00    -0.253 C  
BRANCH  24  25
HETATM   25  N   UNL     1      -8.597  17.551  68.631  1.00  0.00    -0.279 NA 
HETATM   26  H   UNL     1      -9.054  18.260  69.204  1.00  0.00     0.000 HD 
BRANCH  25  27
HETATM   27  O   UNL     1      -7.763  17.891  67.559  1.00  0.00    -0.207 OA 
HETATM   28  C   UNL     1      -7.332  19.391  65.750  1.00  0.00    -0.279 C  
HETATM   29  C   UNL     1      -7.644  20.250  68.079  1.00  0.00    -0.240 C  
HETATM   30  O   UNL     1     -10.484  18.765  67.510  1.00  0.00    -0.391 OA 
HETATM   31  O   UNL     1     -10.011  20.254  65.900  1.00  0.00    -0.411 OA 
HETATM   32  C   UNL     1      -8.114  19.201  67.061  1.00  0.00    -0.262 C  
HETATM   33  C   UNL     1      -9.612  19.459  66.741  1.00  0.00    -0.346 C  
ENDBRANCH  25  27
ENDBRANCH  24  25
BRANCH  24  34
HETATM   34  C   UNL     1      -7.520  15.484  68.829  1.00  0.00    -0.141 A  
HETATM   35  H2  UNL     1      -4.866  12.454  67.432  1.00  0.00     0.000 HD 
HETATM   36  C   UNL     1      -6.558  15.469  69.824  1.00  0.00    -0.166 A  
HETATM   37  S   UNL     1      -5.342  14.324  69.452  1.00  0.00    -0.086 SA 
HETATM   38  H1  UNL     1      -6.215  12.716  66.330  1.00  0.00     0.000 HD 
HETATM   39  N   UNL     1      -5.721  12.956  67.190  1.00  0.00    -0.332 NA 
HETATM   40  N   UNL     1      -7.260  14.609  67.772  1.00  0.00    -0.158 NA 
HETATM   41  C   UNL     1      -6.173  13.919  68.007  1.00  0.00    -0.142 A  
ENDBRANCH  24  34
ENDBRANCH  23  24
ENDBRANCH   7  20
TORSDOF 7
ENDMDL
MODEL       36
REMARK 921   NORMALIZED FREE ENERGY PREDICTED BY IDOCK:   -6.71 KCAL/MOL
REMARK 922        TOTAL FREE ENERGY PREDICTED BY IDOCK:  -11.00 KCAL/MOL
REMARK 923 INTER-LIGAND FREE ENERGY PREDICTED BY IDOCK:   -9.22 KCAL/MOL
REMARK 924 INTRA-LIGAND FREE ENERGY PREDICTED BY IDOCK:   -1.79 KCAL/MOL
REMARK 927      BINDING AFFINITY PREDICTED BY RF-SCORE:    0.00 PKD
ROOT
HETATM    1  O   UNL     1      -7.198   6.015  73.249  1.00  0.00    -0.084 OA 
HETATM    2  C   UNL     1      -7.465   5.493  72.144  1.00  0.00    -0.099 C  
HETATM    3  CA  UNL     1      -8.824   5.937  71.445  1.00  0.00    -0.136 C  
HETATM    4  OXT UNL     1      -6.801   4.632  71.487  1.00  0.00    -0.036 OA 
HETATM    5  C   UNL     1      -9.025   5.681  70.128  1.00  0.00    -0.151 C  
HETATM    6  C   UNL     1     -10.235   6.082  69.325  1.00  0.00    -0.207 C  
HETATM    7  CA  UNL     1     -11.243   8.025  72.593  1.00  0.00    -0.397 C  
HETATM    8  S   UNL     1     -11.702   6.701  70.130  1.00  0.00    -0.263 SA 
HETATM    9  N   UNL     1      -9.770   6.663  72.111  1.00  0.00    -0.154 N  
HETATM   10  O   UNL     1      -8.993   8.218  73.754  1.00  0.00    -0.222 OA 
HETATM   11  C   UNL     1     -11.187   6.653  71.849  1.00  0.00    -0.264 C  
HETATM   12  C   UNL     1      -9.791   7.644  73.053  1.00  0.00    -0.261 C  
ENDROOT
BRANCH   5  13
HETATM   13  C   UNL     1      -7.986   5.019  69.240  1.00  0.00    -0.079 C  
BRANCH  13  14
HETATM   14  N   UNL     1      -8.461   3.912  68.354  1.00  0.00    -0.090 NA 
HETATM   15  C   UNL     1      -9.025   1.624  67.977  1.00  0.00    -0.168 A  
HETATM   16  C   UNL     1      -8.875   1.802  66.608  1.00  0.00    -0.128 A  
HETATM   17  C   UNL     1      -8.825   2.702  68.839  1.00  0.00    -0.100 A  
HETATM   18  C   UNL     1      -8.406   4.117  67.016  1.00  0.00    -0.100 A  
HETATM   19  C   UNL     1      -8.586   3.067  66.122  1.00  0.00    -0.117 A  
ENDBRANCH  13  14
ENDBRANCH   5  13
BRANCH   7  20
HETATM   20  N   UNL     1     -11.320   9.309  71.788  1.00  0.00    -0.385 N  
HETATM   21  H   UNL     1     -10.453   9.780  71.526  1.00  0.00     0.000 HD 
HETATM   22  O   UNL     1     -13.639   9.483  71.749  1.00  0.00    -0.387 OA 
HETATM   23  C   UNL     1     -12.526   9.863  71.396  1.00  0.00    -0.398 C  
BRANCH  23  24
HETATM   24  C   UNL     1     -12.506  11.029  70.435  1.00  0.00    -0.313 C  
BRANCH  24  25
HETATM   25  N   UNL     1     -12.210  10.980  69.166  1.00  0.00    -0.612 NA 
HETATM   26  H   UNL     1     -12.577  11.660  68.499  1.00  0.00     0.000 HD 
BRANCH  25  27
HETATM   27  O   UNL     1     -11.358   9.942  68.772  1.00  0.00    -0.127 OA 
HETATM   28  C   UNL     1      -9.655   9.208  67.265  1.00  0.00    -0.200 C  
HETATM   29  C   UNL     1      -9.372  11.311  68.588  1.00  0.00    -0.167 C  
HETATM   30  O   UNL     1     -12.053  11.948  66.857  1.00  0.00    -0.599 OA 
HETATM   31  O   UNL     1     -10.362  11.311  65.527  1.00  0.00    -0.249 OA 
HETATM   32  C   UNL     1     -10.382  10.440  67.828  1.00  0.00    -0.206 C  
HETATM   33  C   UNL     1     -10.919  11.249  66.616  1.00  0.00    -0.268 C  
ENDBRANCH  25  27
ENDBRANCH  24  25
BRANCH  24  34
HETATM   34  C   UNL     1     -12.735  12.377  70.968  1.00  0.00    -0.223 A  
HETATM   35  H2  UNL     1     -12.066  16.567  71.382  1.00  0.00     0.000 HD 
HETATM   36  C   UNL     1     -13.496  12.676  72.084  1.00  0.00    -0.460 A  
HETATM   37  S   UNL     1     -13.405  14.350  72.428  1.00  0.00    -0.496 SA 
HETATM   38  H1  UNL     1     -11.216  15.892  69.995  1.00  0.00     0.000 HD 
HETATM   39  N   UNL     1     -11.837  15.765  70.794  1.00  0.00    -0.373 NA 
HETATM   40  N   UNL     1     -12.117  13.486  70.386  1.00  0.00    -0.351 NA 
HETATM   41  C   UNL     1     -12.360  14.564  71.086  1.00  0.00    -0.345 A  
ENDBRANCH  24  34
ENDBRANCH  23  24
ENDBRANCH   7  20
TORSDOF 7
ENDMDL
MODEL       37
REMARK 921   NORMALIZED FREE ENERGY PREDICTED BY IDOCK:   -6.69 KCAL/MOL
REMARK 922        TOTAL FREE ENERGY PREDICTED BY IDOCK:  -10.97 KCAL/MOL
REMARK 923 INTER-LIGAND FREE ENERGY PREDICTED BY IDOCK:   -9.41 KCAL/MOL
REMARK 924 INTRA-LIGAND FREE ENERGY PREDICTED BY IDOCK:   -1.56 KCAL/MOL
REMARK 927      BINDING AFFINITY PREDICTED BY RF-SCORE:    0.00 PKD
ROOT
HETATM    1  O   UNL     1     -11.056   6.825  66.937  1.00  0.00    -0.397 OA 
HETATM    2  C   UNL     1     -10.746   6.825  68.149  1.00  0.00    -0.236 C  
HETATM    3  CA  UNL     1      -9.603   7.837  68.602  1.00  0.00    -0.154 C  
HETATM    4  OXT UNL     1     -11.211   6.113  69.092  1.00  0.00    -0.386 OA 
HETATM    5  C   UNL     1      -9.441   8.133  69.916  1.00  0.00    -0.160 C  
HETATM    6  C   UNL     1      -8.439   9.102  70.486  1.00  0.00    -0.205 C  
HETATM    7  CA  UNL     1      -7.727   9.940  66.709  1.00  0.00    -0.099 C  
HETATM    8  S   UNL     1      -7.126   9.760  69.473  1.00  0.00    -0.086 SA 
HETATM    9  N   UNL     1      -8.830   8.500  67.693  1.00  0.00    -0.136 N  
HETATM   10  O   UNL     1      -9.858   9.096  65.617  1.00  0.00    -0.264 OA 
HETATM   11  C   UNL     1      -7.482   8.964  67.904  1.00  0.00    -0.092 C  
HETATM   12  C   UNL     1      -8.994   9.046  66.458  1.00  0.00    -0.146 C  
ENDROOT
BRANCH   5  13
HETATM   13  C   UNL     1     -10.336   7.580  71.011  1.00  0.00    -0.199 C  
BRANCH  13  14
HETATM   14  N   UNL     1     -11.438   8.468  71.495  1.00  0.00    -0.270 NA 
HETATM   15  C   UNL     1     -13.622   8.796  72.399  1.00  0.00    -0.456 A  
HETATM   16  C   UNL     1     -13.629  10.105  71.936  1.00  0.00    -0.333 A  
HETATM   17  C   UNL     1     -12.504   7.992  72.179  1.00  0.00    -0.296 A  
HETATM   18  C   UNL     1     -11.398   9.770  71.124  1.00  0.00    -0.389 A  
HETATM   19  C   UNL     1     -12.496  10.604  71.313  1.00  0.00    -0.515 A  
ENDBRANCH  13  14
ENDBRANCH   5  13
BRANCH   7  20
HETATM   20  N   UNL     1      -8.045  11.398  66.989  1.00  0.00    -0.151 N  
HETATM   21  H   UNL     1      -9.019  11.675  67.113  1.00  0.00     0.000 HD 
HETATM   22  O   UNL     1      -5.868  12.200  66.824  1.00  0.00    -0.265 OA 
HETATM   23  C   UNL     1      -7.057  12.363  67.081  1.00  0.00    -0.077 C  
BRANCH  23  24
HETATM   24  C   UNL     1      -7.442  13.746  67.554  1.00  0.00    -0.169 C  
BRANCH  24  25
HETATM   25  N   UNL     1      -8.324  14.533  67.004  1.00  0.00    -0.323 NA 
HETATM   26  H   UNL     1      -8.052  15.343  66.446  1.00  0.00     0.000 HD 
BRANCH  25  27
HETATM   27  O   UNL     1      -9.667  14.202  67.223  1.00  0.00    -0.227 OA 
HETATM   28  C   UNL     1     -11.925  14.374  66.460  1.00  0.00    -0.406 C  
HETATM   29  C   UNL     1     -10.125  13.521  64.948  1.00  0.00    -0.280 C  
HETATM   30  O   UNL     1      -9.062  16.515  65.654  1.00  0.00    -0.466 OA 
HETATM   31  O   UNL     1     -11.160  16.566  64.861  1.00  0.00    -0.539 OA 
HETATM   32  C   UNL     1     -10.450  14.534  66.054  1.00  0.00    -0.308 C  
HETATM   33  C   UNL     1     -10.287  15.967  65.476  1.00  0.00    -0.400 C  
ENDBRANCH  25  27
ENDBRANCH  24  25
BRANCH  24  34
HETATM   34  C   UNL     1      -6.697  14.334  68.673  1.00  0.00    -0.092 A  
HETATM   35  H2  UNL     1      -5.186  14.565  72.652  1.00  0.00     0.000 HD 
HETATM   36  C   UNL     1      -6.209  15.628  68.715  1.00  0.00    -0.103 A  
HETATM   37  S   UNL     1      -5.507  15.944  70.244  1.00  0.00    -0.155 SA 
HETATM   38  H1  UNL     1      -5.871  12.983  72.292  1.00  0.00     0.000 HD 
HETATM   39  N   UNL     1      -5.635  13.929  71.992  1.00  0.00    -0.353 NA 
HETATM   40  N   UNL     1      -6.478  13.604  69.843  1.00  0.00    -0.082 NA 
HETATM   41  C   UNL     1      -5.904  14.353  70.748  1.00  0.00    -0.195 A  
ENDBRANCH  24  34
ENDBRANCH  23  24
ENDBRANCH   7  20
TORSDOF 7
ENDMDL
MODEL       38
REMARK 921   NORMALIZED FREE ENERGY PREDICTED BY IDOCK:   -6.68 KCAL/MOL
REMARK 922        TOTAL FREE ENERGY PREDICTED BY IDOCK:  -10.95 KCAL/MOL
REMARK 923 INTER-LIGAND FREE ENERGY PREDICTED BY IDOCK:   -8.46 KCAL/MOL
REMARK 924 INTRA-LIGAND FREE ENERGY PREDICTED BY IDOCK:   -2.48 KCAL/MOL
REMARK 927      BINDING AFFINITY PREDICTED BY RF-SCORE:    0.00 PKD
ROOT
HETATM    1  O   UNL     1      -7.562   6.345  73.654  1.00  0.00    -0.090 OA 
HETATM    2  C   UNL     1      -8.195   5.466  73.029  1.00  0.00    -0.112 C  
HETATM    3  CA  UNL     1      -9.402   5.958  72.114  1.00  0.00    -0.145 C  
HETATM    4  OXT UNL     1      -8.021   4.208  73.024  1.00  0.00    -0.086 OA 
HETATM    5  C   UNL     1      -9.917   5.133  71.168  1.00  0.00    -0.272 C  
HETATM    6  C   UNL     1     -11.021   5.477  70.203  1.00  0.00    -0.138 C  
HETATM    7  CA  UNL     1     -10.645   9.091  71.708  1.00  0.00    -0.356 C  
HETATM    8  S   UNL     1     -11.990   6.959  70.414  1.00  0.00    -0.170 SA 
HETATM    9  N   UNL     1      -9.881   7.235  72.185  1.00  0.00    -0.160 N  
HETATM   10  O   UNL     1      -8.309   8.963  72.696  1.00  0.00    -0.392 OA 
HETATM   11  C   UNL     1     -11.227   7.653  71.883  1.00  0.00    -0.257 C  
HETATM   12  C   UNL     1      -9.373   8.478  72.397  1.00  0.00    -0.278 C  
ENDROOT
BRANCH   5  13
HETATM   13  C   UNL     1      -9.368   3.746  70.885  1.00  0.00    -0.145 C  
BRANCH  13  14
HETATM   14  N   UNL     1      -8.729   3.531  69.551  1.00  0.00    -0.069 NA 
HETATM   15  C   UNL     1      -7.255   4.205  67.799  1.00  0.00    -0.064 A  
HETATM   16  C   UNL     1      -7.920   3.376  66.906  1.00  0.00    -0.080 A  
HETATM   17  C   UNL     1      -7.668   4.259  69.130  1.00  0.00    -0.054 A  
HETATM   18  C   UNL     1      -9.322   2.650  68.710  1.00  0.00    -0.165 A  
HETATM   19  C   UNL     1      -8.949   2.572  67.372  1.00  0.00    -0.187 A  
ENDBRANCH  13  14
ENDBRANCH   5  13
BRANCH   7  20
HETATM   20  N   UNL     1     -10.393   9.630  70.312  1.00  0.00    -0.261 N  
HETATM   21  H   UNL     1      -9.486   9.464  69.875  1.00  0.00     0.000 HD 
HETATM   22  O   UNL     1     -12.429  10.726  70.057  1.00  0.00    -0.325 OA 
HETATM   23  C   UNL     1     -11.353  10.340  69.611  1.00  0.00    -0.257 C  
BRANCH  23  24
HETATM   24  C   UNL     1     -11.089  10.668  68.159  1.00  0.00    -0.285 C  
BRANCH  24  25
HETATM   25  N   UNL     1     -10.496   9.900  67.288  1.00  0.00    -0.248 NA 
HETATM   26  H   UNL     1      -9.848  10.273  66.593  1.00  0.00     0.000 HD 
BRANCH  25  27
HETATM   27  O   UNL     1     -10.798   8.536  67.362  1.00  0.00    -0.209 OA 
HETATM   28  C   UNL     1     -10.090   6.298  66.915  1.00  0.00    -0.236 C  
HETATM   29  C   UNL     1      -8.647   7.856  68.235  1.00  0.00    -0.124 C  
HETATM   30  O   UNL     1      -8.921   9.420  65.395  1.00  0.00    -0.179 OA 
HETATM   31  O   UNL     1      -8.194   7.319  65.096  1.00  0.00    -0.131 OA 
HETATM   32  C   UNL     1      -9.620   7.756  67.053  1.00  0.00    -0.184 C  
HETATM   33  C   UNL     1      -8.855   8.116  65.750  1.00  0.00    -0.135 C  
ENDBRANCH  25  27
ENDBRANCH  24  25
BRANCH  24  34
HETATM   34  C   UNL     1     -11.426  12.011  67.675  1.00  0.00    -0.322 A  
HETATM   35  H2  UNL     1     -12.803  14.909  64.867  1.00  0.00     0.000 HD 
HETATM   36  C   UNL     1     -11.061  13.197  68.289  1.00  0.00    -0.266 A  
HETATM   37  S   UNL     1     -11.554  14.531  67.337  1.00  0.00    -0.395 SA 
HETATM   38  H1  UNL     1     -13.156  13.262  64.351  1.00  0.00     0.000 HD 
HETATM   39  N   UNL     1     -12.766  13.904  65.042  1.00  0.00    -0.691 NA 
HETATM   40  N   UNL     1     -12.119  12.182  66.475  1.00  0.00    -0.582 NA 
HETATM   41  C   UNL     1     -12.208  13.452  66.175  1.00  0.00    -0.415 A  
ENDBRANCH  24  34
ENDBRANCH  23  24
ENDBRANCH   7  20
TORSDOF 7
ENDMDL
MODEL       39
REMARK 921   NORMALIZED FREE ENERGY PREDICTED BY IDOCK:   -6.54 KCAL/MOL
REMARK 922        TOTAL FREE ENERGY PREDICTED BY IDOCK:  -10.75 KCAL/MOL
REMARK 923 INTER-LIGAND FREE ENERGY PREDICTED BY IDOCK:   -9.57 KCAL/MOL
REMARK 924 INTRA-LIGAND FREE ENERGY PREDICTED BY IDOCK:   -1.18 KCAL/MOL
REMARK 927      BINDING AFFINITY PREDICTED BY RF-SCORE:    0.00 PKD
ROOT
HETATM    1  O   UNL     1     -10.451   6.423  66.215  1.00  0.00    -0.012 OA 
HETATM    2  C   UNL     1     -10.520   6.185  67.442  1.00  0.00    -0.247 C  
HETATM    3  CA  UNL     1     -10.115   7.364  68.431  1.00  0.00    -0.177 C  
HETATM    4  OXT UNL     1     -10.864   5.111  68.028  1.00  0.00     0.058 OA 
HETATM    5  C   UNL     1     -10.469   7.304  69.739  1.00  0.00    -0.236 C  
HETATM    6  C   UNL     1     -10.197   8.361  70.777  1.00  0.00    -0.194 C  
HETATM    7  CA  UNL     1      -8.918  10.456  67.703  1.00  0.00    -0.138 C  
HETATM    8  S   UNL     1      -9.087   9.715  70.433  1.00  0.00    -0.107 SA 
HETATM    9  N   UNL     1      -9.497   8.495  67.983  1.00  0.00    -0.139 N  
HETATM   10  O   UNL     1     -10.065   9.251  65.786  1.00  0.00    -0.268 OA 
HETATM   11  C   UNL     1      -8.608   9.335  68.746  1.00  0.00    -0.131 C  
HETATM   12  C   UNL     1      -9.536   9.278  66.871  1.00  0.00    -0.174 C  
ENDROOT
BRANCH   5  13
HETATM   13  C   UNL     1     -11.293   6.172  70.328  1.00  0.00    -0.344 C  
BRANCH  13  14
HETATM   14  N   UNL     1     -10.696   5.432  71.482  1.00  0.00    -0.223 NA 
HETATM   15  C   UNL     1      -9.251   3.757  72.378  1.00  0.00    -0.157 A  
HETATM   16  C   UNL     1      -9.965   3.763  73.569  1.00  0.00    -0.172 A  
HETATM   17  C   UNL     1      -9.627   4.614  71.344  1.00  0.00    -0.166 A  
HETATM   18  C   UNL     1     -11.337   5.513  72.673  1.00  0.00    -0.291 A  
HETATM   19  C   UNL     1     -11.003   4.668  73.726  1.00  0.00    -0.368 A  
ENDBRANCH  13  14
ENDBRANCH   5  13
BRANCH   7  20
HETATM   20  N   UNL     1      -9.908  11.551  68.057  1.00  0.00    -0.182 N  
HETATM   21  H   UNL     1     -10.902  11.322  68.096  1.00  0.00     0.000 HD 
HETATM   22  O   UNL     1      -8.373  13.293  68.187  1.00  0.00    -0.147 OA 
HETATM   23  C   UNL     1      -9.508  12.848  68.326  1.00  0.00    -0.206 C  
BRANCH  23  24
HETATM   24  C   UNL     1     -10.534  13.823  68.858  1.00  0.00    -0.169 C  
BRANCH  24  25
HETATM   25  N   UNL     1     -11.563  13.532  69.605  1.00  0.00    -0.379 NA 
HETATM   26  H   UNL     1     -11.709  12.595  69.980  1.00  0.00     0.000 HD 
BRANCH  25  27
HETATM   27  O   UNL     1     -12.454  14.580  69.862  1.00  0.00    -0.316 OA 
HETATM   28  C   UNL     1     -14.022  15.553  71.380  1.00  0.00    -0.476 C  
HETATM   29  C   UNL     1     -11.700  14.994  72.122  1.00  0.00    -0.437 C  
HETATM   30  O   UNL     1     -12.843  12.088  71.207  1.00  0.00    -0.365 OA 
HETATM   31  O   UNL     1     -14.211  13.066  72.693  1.00  0.00    -0.609 OA 
HETATM   32  C   UNL     1     -12.873  14.539  71.244  1.00  0.00    -0.332 C  
HETATM   33  C   UNL     1     -13.397  13.180  71.785  1.00  0.00    -0.389 C  
ENDBRANCH  25  27
ENDBRANCH  24  25
BRANCH  24  34
HETATM   34  C   UNL     1     -10.456  15.223  68.426  1.00  0.00    -0.236 A  
HETATM   35  H2  UNL     1     -10.249  18.429  65.623  1.00  0.00     0.000 HD 
HETATM   36  C   UNL     1     -10.153  16.296  69.245  1.00  0.00    -0.267 A  
HETATM   37  S   UNL     1     -10.051  17.733  68.321  1.00  0.00    -0.392 SA 
HETATM   38  H1  UNL     1     -10.648  16.896  64.852  1.00  0.00     0.000 HD 
HETATM   39  N   UNL     1     -10.438  17.428  65.697  1.00  0.00    -0.601 NA 
HETATM   40  N   UNL     1     -10.633  15.564  67.083  1.00  0.00    -0.296 NA 
HETATM   41  C   UNL     1     -10.405  16.839  66.901  1.00  0.00    -0.294 A  
ENDBRANCH  24  34
ENDBRANCH  23  24
ENDBRANCH   7  20
TORSDOF 7
ENDMDL
MODEL       40
REMARK 921   NORMALIZED FREE ENERGY PREDICTED BY IDOCK:   -6.54 KCAL/MOL
REMARK 922        TOTAL FREE ENERGY PREDICTED BY IDOCK:  -10.75 KCAL/MOL
REMARK 923 INTER-LIGAND FREE ENERGY PREDICTED BY IDOCK:   -9.48 KCAL/MOL
REMARK 924 INTRA-LIGAND FREE ENERGY PREDICTED BY IDOCK:   -1.27 KCAL/MOL
REMARK 927      BINDING AFFINITY PREDICTED BY RF-SCORE:    0.00 PKD
ROOT
HETATM    1  O   UNL     1      -8.753   5.293  66.549  1.00  0.00    -0.114 OA 
HETATM    2  C   UNL     1      -9.058   5.191  67.758  1.00  0.00    -0.111 C  
HETATM    3  CA  UNL     1      -9.060   6.530  68.619  1.00  0.00    -0.128 C  
HETATM    4  OXT UNL     1      -9.364   4.150  68.419  1.00  0.00    -0.135 OA 
HETATM    5  C   UNL     1      -9.684   6.562  69.823  1.00  0.00    -0.170 C  
HETATM    6  C   UNL     1      -9.807   7.764  70.722  1.00  0.00    -0.180 C  
HETATM    7  CA  UNL     1      -8.193   9.678  67.688  1.00  0.00    -0.114 C  
HETATM    8  S   UNL     1      -8.857   9.241  70.408  1.00  0.00    -0.246 SA 
HETATM    9  N   UNL     1      -8.528   7.692  68.138  1.00  0.00    -0.124 N  
HETATM   10  O   UNL     1      -8.696   8.075  65.783  1.00  0.00    -0.152 OA 
HETATM   11  C   UNL     1      -7.964   8.757  68.928  1.00  0.00    -0.105 C  
HETATM   12  C   UNL     1      -8.432   8.320  66.936  1.00  0.00    -0.118 C  
ENDROOT
BRANCH   5  13
HETATM   13  C   UNL     1     -10.445   5.381  70.398  1.00  0.00    -0.275 C  
BRANCH  13  14
HETATM   14  N   UNL     1     -10.041   4.917  71.761  1.00  0.00    -0.196 NA 
HETATM   15  C   UNL     1      -8.686   3.587  73.208  1.00  0.00    -0.089 A  
HETATM   16  C   UNL     1      -9.625   3.715  74.223  1.00  0.00    -0.127 A  
HETATM   17  C   UNL     1      -8.907   4.211  71.980  1.00  0.00    -0.111 A  
HETATM   18  C   UNL     1     -10.915   5.125  72.775  1.00  0.00    -0.267 A  
HETATM   19  C   UNL     1     -10.740   4.512  74.011  1.00  0.00    -0.340 A  
ENDBRANCH  13  14
ENDBRANCH   5  13
BRANCH   7  20
HETATM   20  N   UNL     1      -9.386  10.616  67.664  1.00  0.00    -0.146 N  
HETATM   21  H   UNL     1     -10.256  10.296  67.239  1.00  0.00     0.000 HD 
HETATM   22  O   UNL     1      -8.324  12.451  68.621  1.00  0.00    -0.107 OA 
HETATM   23  C   UNL     1      -9.332  11.890  68.202  1.00  0.00    -0.191 C  
BRANCH  23  24
HETATM   24  C   UNL     1     -10.615  12.682  68.311  1.00  0.00    -0.237 C  
BRANCH  24  25
HETATM   25  N   UNL     1     -11.299  12.899  69.400  1.00  0.00    -0.408 NA 
HETATM   26  H   UNL     1     -11.295  12.240  70.180  1.00  0.00     0.000 HD 
BRANCH  25  27
HETATM   27  O   UNL     1     -12.038  14.087  69.438  1.00  0.00    -0.324 OA 
HETATM   28  C   UNL     1     -13.403  15.560  70.733  1.00  0.00    -0.315 C  
HETATM   29  C   UNL     1     -11.142  14.864  71.547  1.00  0.00     0.019 C  
HETATM   30  O   UNL     1     -12.685  12.010  71.293  1.00  0.00    -0.375 OA 
HETATM   31  O   UNL     1     -13.853  13.454  72.552  1.00  0.00    -0.668 OA 
HETATM   32  C   UNL     1     -12.400  14.395  70.803  1.00  0.00    -0.347 C  
HETATM   33  C   UNL     1     -13.070  13.264  71.630  1.00  0.00    -0.363 C  
ENDBRANCH  25  27
ENDBRANCH  24  25
BRANCH  24  34
HETATM   34  C   UNL     1     -11.236  13.179  67.079  1.00  0.00    -0.294 A  
HETATM   35  H2  UNL     1     -13.391  12.890  63.412  1.00  0.00     0.000 HD 
HETATM   36  C   UNL     1     -11.029  14.432  66.529  1.00  0.00    -0.316 A  
HETATM   37  S   UNL     1     -11.849  14.562  65.032  1.00  0.00    -0.397 SA 
HETATM   38  H1  UNL     1     -13.492  11.410  64.361  1.00  0.00     0.000 HD 
HETATM   39  N   UNL     1     -13.156  12.367  64.256  1.00  0.00    -0.787 NA 
HETATM   40  N   UNL     1     -12.067  12.354  66.318  1.00  0.00    -0.630 NA 
HETATM   41  C   UNL     1     -12.413  12.952  65.208  1.00  0.00    -0.493 A  
ENDBRANCH  24  34
ENDBRANCH  23  24
ENDBRANCH   7  20
TORSDOF 7
ENDMDL
MODEL       41
REMARK 921   NORMALIZED FREE ENERGY PREDICTED BY IDOCK:   -6.53 KCAL/MOL
REMARK 922        TOTAL FREE ENERGY PREDICTED BY IDOCK:  -10.74 KCAL/MOL
REMARK 923 INTER-LIGAND FREE ENERGY PREDICTED BY IDOCK:   -8.97 KCAL/MOL
REMARK 924 INTRA-LIGAND FREE ENERGY PREDICTED BY IDOCK:   -1.77 KCAL/MOL
REMARK 927      BINDING AFFINITY PREDICTED BY RF-SCORE:    0.00 PKD
ROOT
HETATM    1  O   UNL     1     -12.563  14.769  63.887  1.00  0.00    -0.834 OA 
HETATM    2  C   UNL     1     -11.798  15.567  64.471  1.00  0.00    -0.216 C  
HETATM    3  CA  UNL     1     -11.210  15.106  65.877  1.00  0.00    -0.280 C  
HETATM    4  OXT UNL     1     -11.420  16.723  64.106  1.00  0.00    -1.171 OA 
HETATM    5  C   UNL     1     -10.139  15.748  66.409  1.00  0.00    -0.305 C  
HETATM    6  C   UNL     1      -9.449  15.396  67.700  1.00  0.00    -0.205 C  
HETATM    7  CA  UNL     1     -11.849  12.279  67.645  1.00  0.00    -0.264 C  
HETATM    8  S   UNL     1     -10.182  14.235  68.840  1.00  0.00    -0.155 SA 
HETATM    9  N   UNL     1     -11.692  14.009  66.531  1.00  0.00    -0.374 N  
HETATM   10  O   UNL     1     -12.473  12.193  65.185  1.00  0.00    -0.508 OA 
HETATM   11  C   UNL     1     -11.684  13.800  67.957  1.00  0.00    -0.355 C  
HETATM   12  C   UNL     1     -12.180  12.785  66.196  1.00  0.00    -0.271 C  
ENDROOT
BRANCH   5  13
HETATM   13  C   UNL     1      -9.416  16.883  65.706  1.00  0.00     0.005 C  
BRANCH  13  14
HETATM   14  N   UNL     1      -9.346  18.190  66.429  1.00  0.00    -0.388 NA 
HETATM   15  C   UNL     1     -10.384  20.113  67.390  1.00  0.00    -0.488 A  
HETATM   16  C   UNL     1      -9.181  20.805  67.329  1.00  0.00    -0.370 A  
HETATM   17  C   UNL     1     -10.443  18.793  66.944  1.00  0.00    -0.414 A  
HETATM   18  C   UNL     1      -8.150  18.826  66.454  1.00  0.00    -0.280 A  
HETATM   19  C   UNL     1      -8.048  20.146  66.879  1.00  0.00    -0.360 A  
ENDBRANCH  13  14
ENDBRANCH   5  13
BRANCH   7  20
HETATM   20  N   UNL     1     -10.640  11.366  67.720  1.00  0.00    -0.187 N  
HETATM   21  H   UNL     1      -9.732  11.724  67.422  1.00  0.00     0.000 HD 
HETATM   22  O   UNL     1     -11.765   9.462  68.441  1.00  0.00     0.590 OA 
HETATM   23  C   UNL     1     -10.727  10.063  68.179  1.00  0.00    -0.239 C  
BRANCH  23  24
HETATM   24  C   UNL     1      -9.448   9.290  68.405  1.00  0.00    -0.138 C  
BRANCH  24  25
HETATM   25  N   UNL     1      -9.243   8.034  68.121  1.00  0.00    -0.134 NA 
HETATM   26  H   UNL     1      -9.271   7.307  68.836  1.00  0.00     0.000 HD 
BRANCH  25  27
HETATM   27  O   UNL     1      -8.983   7.740  66.777  1.00  0.00    -0.127 OA 
HETATM   28  C   UNL     1      -8.487   6.061  65.151  1.00  0.00    -0.112 C  
HETATM   29  C   UNL     1     -10.479   5.844  66.648  1.00  0.00    -0.310 C  
HETATM   30  O   UNL     1      -8.026   5.943  68.784  1.00  0.00    -0.100 OA 
HETATM   31  O   UNL     1      -7.695   4.346  67.243  1.00  0.00    -0.087 OA 
HETATM   32  C   UNL     1      -9.019   6.309  66.573  1.00  0.00    -0.144 C  
HETATM   33  C   UNL     1      -8.171   5.435  67.537  1.00  0.00    -0.100 C  
ENDBRANCH  25  27
ENDBRANCH  24  25
BRANCH  24  34
HETATM   34  C   UNL     1      -8.344   9.956  69.104  1.00  0.00    -0.145 A  
HETATM   35  H2  UNL     1      -5.464  13.019  69.810  1.00  0.00     0.000 HD 
HETATM   36  C   UNL     1      -7.539   9.372  70.067  1.00  0.00    -0.113 A  
HETATM   37  S   UNL     1      -6.303  10.457  70.540  1.00  0.00    -0.059 SA 
HETATM   38  H1  UNL     1      -6.663  13.497  68.612  1.00  0.00     0.000 HD 
HETATM   39  N   UNL     1      -6.302  12.805  69.269  1.00  0.00    -0.103 NA 
HETATM   40  N   UNL     1      -7.985  11.266  68.781  1.00  0.00    -0.147 NA 
HETATM   41  C   UNL     1      -6.909  11.620  69.435  1.00  0.00    -0.086 A  
ENDBRANCH  24  34
ENDBRANCH  23  24
ENDBRANCH   7  20
TORSDOF 7
ENDMDL
MODEL       42
REMARK 921   NORMALIZED FREE ENERGY PREDICTED BY IDOCK:   -6.52 KCAL/MOL
REMARK 922        TOTAL FREE ENERGY PREDICTED BY IDOCK:  -10.73 KCAL/MOL
REMARK 923 INTER-LIGAND FREE ENERGY PREDICTED BY IDOCK:  -10.72 KCAL/MOL
REMARK 924 INTRA-LIGAND FREE ENERGY PREDICTED BY IDOCK:   -0.01 KCAL/MOL
REMARK 927      BINDING AFFINITY PREDICTED BY RF-SCORE:    0.00 PKD
ROOT
HETATM    1  O   UNL     1     -11.248   6.394  67.451  1.00  0.00    -0.352 OA 
HETATM    2  C   UNL     1     -10.889   6.337  68.648  1.00  0.00    -0.333 C  
HETATM    3  CA  UNL     1      -9.915   7.484  69.165  1.00  0.00    -0.179 C  
HETATM    4  OXT UNL     1     -11.186   5.472  69.530  1.00  0.00    -0.116 OA 
HETATM    5  C   UNL     1      -9.747   7.682  70.498  1.00  0.00    -0.182 C  
HETATM    6  C   UNL     1      -8.899   8.753  71.131  1.00  0.00    -0.219 C  
HETATM    7  CA  UNL     1      -8.507  10.044  67.436  1.00  0.00    -0.121 C  
HETATM    8  S   UNL     1      -7.763   9.718  70.151  1.00  0.00    -0.175 SA 
HETATM    9  N   UNL     1      -9.307   8.351  68.305  1.00  0.00    -0.135 N  
HETATM   10  O   UNL     1     -10.511   8.948  66.326  1.00  0.00    -0.170 OA 
HETATM   11  C   UNL     1      -8.048   9.020  68.522  1.00  0.00    -0.107 C  
HETATM   12  C   UNL     1      -9.614   8.972  67.134  1.00  0.00    -0.167 C  
ENDROOT
BRANCH   5  13
HETATM   13  C   UNL     1     -10.487   6.886  71.557  1.00  0.00    -0.212 C  
BRANCH  13  14
HETATM   14  N   UNL     1     -11.862   7.352  71.915  1.00  0.00    -0.287 NA 
HETATM   15  C   UNL     1     -14.237   7.118  71.855  1.00  0.00    -0.428 A  
HETATM   16  C   UNL     1     -14.388   8.463  72.166  1.00  0.00    -0.520 A  
HETATM   17  C   UNL     1     -12.957   6.574  71.746  1.00  0.00    -0.006 A  
HETATM   18  C   UNL     1     -12.001   8.639  72.312  1.00  0.00    -0.368 A  
HETATM   19  C   UNL     1     -13.258   9.225  72.421  1.00  0.00    -0.501 A  
ENDBRANCH  13  14
ENDBRANCH   5  13
BRANCH   7  20
HETATM   20  N   UNL     1      -9.054  11.393  67.865  1.00  0.00    -0.159 N  
HETATM   21  H   UNL     1      -8.476  12.223  67.733  1.00  0.00     0.000 HD 
HETATM   22  O   UNL     1     -11.053  10.617  68.766  1.00  0.00    -0.229 OA 
HETATM   23  C   UNL     1     -10.310  11.534  68.429  1.00  0.00    -0.202 C  
BRANCH  23  24
HETATM   24  C   UNL     1     -10.851  12.929  68.646  1.00  0.00    -0.258 C  
BRANCH  24  25
HETATM   25  N   UNL     1     -11.220  13.446  69.784  1.00  0.00    -0.477 NA 
HETATM   26  H   UNL     1     -10.773  13.190  70.664  1.00  0.00     0.000 HD 
BRANCH  25  27
HETATM   27  O   UNL     1     -12.267  14.374  69.728  1.00  0.00    -0.315 OA 
HETATM   28  C   UNL     1     -14.139  15.355  70.843  1.00  0.00    -0.103 C  
HETATM   29  C   UNL     1     -11.886  15.304  71.929  1.00  0.00    -0.493 C  
HETATM   30  O   UNL     1     -12.508  12.140  71.495  1.00  0.00    -0.198 OA 
HETATM   31  O   UNL     1     -14.180  13.150  72.598  1.00  0.00    -0.677 OA 
HETATM   32  C   UNL     1     -12.861  14.522  71.038  1.00  0.00    -0.350 C  
HETATM   33  C   UNL     1     -13.272  13.220  71.779  1.00  0.00    -0.405 C  
ENDBRANCH  25  27
ENDBRANCH  24  25
BRANCH  24  34
HETATM   34  C   UNL     1     -11.095  13.773  67.471  1.00  0.00    -0.278 A  
HETATM   35  H2  UNL     1     -12.561  14.698  63.576  1.00  0.00     0.000 HD 
HETATM   36  C   UNL     1     -10.484  14.989  67.219  1.00  0.00    -0.265 A  
HETATM   37  S   UNL     1     -10.963  15.584  65.688  1.00  0.00    -0.267 SA 
HETATM   38  H1  UNL     1     -13.201  13.173  64.183  1.00  0.00     0.000 HD 
HETATM   39  N   UNL     1     -12.621  14.001  64.320  1.00  0.00    -0.685 NA 
HETATM   40  N   UNL     1     -11.958  13.349  66.458  1.00  0.00    -0.393 NA 
HETATM   41  C   UNL     1     -11.937  14.192  65.458  1.00  0.00    -0.391 A  
ENDBRANCH  24  34
ENDBRANCH  23  24
ENDBRANCH   7  20
TORSDOF 7
ENDMDL
MODEL       43
REMARK 921   NORMALIZED FREE ENERGY PREDICTED BY IDOCK:   -6.52 KCAL/MOL
REMARK 922        TOTAL FREE ENERGY PREDICTED BY IDOCK:  -10.73 KCAL/MOL
REMARK 923 INTER-LIGAND FREE ENERGY PREDICTED BY IDOCK:   -9.33 KCAL/MOL
REMARK 924 INTRA-LIGAND FREE ENERGY PREDICTED BY IDOCK:   -1.41 KCAL/MOL
REMARK 927      BINDING AFFINITY PREDICTED BY RF-SCORE:    0.00 PKD
ROOT
HETATM    1  O   UNL     1      -6.041  14.258  67.342  1.00  0.00    -0.342 OA 
HETATM    2  C   UNL     1      -7.014  14.985  67.643  1.00  0.00    -0.182 C  
HETATM    3  CA  UNL     1      -8.405  14.258  67.905  1.00  0.00    -0.162 C  
HETATM    4  OXT UNL     1      -7.059  16.249  67.761  1.00  0.00    -0.119 OA 
HETATM    5  C   UNL     1      -9.406  14.917  68.543  1.00  0.00    -0.196 C  
HETATM    6  C   UNL     1     -10.753  14.345  68.900  1.00  0.00    -0.253 C  
HETATM    7  CA  UNL     1      -9.192  10.968  67.621  1.00  0.00    -0.149 C  
HETATM    8  S   UNL     1     -11.285  12.778  68.234  1.00  0.00    -0.294 SA 
HETATM    9  N   UNL     1      -8.599  12.944  67.590  1.00  0.00    -0.169 N  
HETATM   10  O   UNL     1      -6.713  11.487  67.789  1.00  0.00    -0.065 OA 
HETATM   11  C   UNL     1      -9.856  12.330  67.244  1.00  0.00    -0.205 C  
HETATM   12  C   UNL     1      -7.862  11.801  67.593  1.00  0.00    -0.138 C  
ENDROOT
BRANCH   5  13
HETATM   13  C   UNL     1      -9.262  16.329  69.081  1.00  0.00    -0.235 C  
BRANCH  13  14
HETATM   14  N   UNL     1      -9.905  17.422  68.289  1.00  0.00    -0.293 NA 
HETATM   15  C   UNL     1     -10.618  18.371  66.217  1.00  0.00    -0.343 A  
HETATM   16  C   UNL     1     -10.653  19.633  66.795  1.00  0.00    -0.602 A  
HETATM   17  C   UNL     1     -10.251  17.268  66.989  1.00  0.00    -0.320 A  
HETATM   18  C   UNL     1     -10.029  18.633  68.883  1.00  0.00    -0.354 A  
HETATM   19  C   UNL     1     -10.380  19.761  68.148  1.00  0.00    -0.561 A  
ENDBRANCH  13  14
ENDBRANCH   5  13
BRANCH   7  20
HETATM   20  N   UNL     1      -9.498  10.335  68.966  1.00  0.00    -0.189 N  
HETATM   21  H   UNL     1      -9.584  10.936  69.785  1.00  0.00     0.000 HD 
HETATM   22  O   UNL     1      -9.458   8.121  68.254  1.00  0.00    -0.141 OA 
HETATM   23  C   UNL     1      -9.663   8.969  69.117  1.00  0.00    -0.167 C  
BRANCH  23  24
HETATM   24  C   UNL     1     -10.157   8.445  70.447  1.00  0.00    -0.187 C  
BRANCH  24  25
HETATM   25  N   UNL     1      -9.587   7.525  71.174  1.00  0.00    -0.159 NA 
HETATM   26  H   UNL     1      -9.042   7.755  72.005  1.00  0.00     0.000 HD 
BRANCH  25  27
HETATM   27  O   UNL     1      -9.768   6.203  70.749  1.00  0.00    -0.174 OA 
HETATM   28  C   UNL     1      -9.563   3.882  71.275  1.00  0.00    -0.241 C  
HETATM   29  C   UNL     1     -10.814   5.431  72.789  1.00  0.00    -0.310 C  
HETATM   30  O   UNL     1      -7.833   6.737  72.785  1.00  0.00    -0.098 OA 
HETATM   31  O   UNL     1      -7.765   4.563  73.336  1.00  0.00    -0.087 OA 
HETATM   32  C   UNL     1      -9.594   5.302  71.865  1.00  0.00    -0.152 C  
HETATM   33  C   UNL     1      -8.308   5.471  72.719  1.00  0.00    -0.113 C  
ENDBRANCH  25  27
ENDBRANCH  24  25
BRANCH  24  34
HETATM   34  C   UNL     1     -11.452   8.919  70.946  1.00  0.00    -0.288 A  
HETATM   35  H2  UNL     1     -14.251  11.782  72.409  1.00  0.00     0.000 HD 
HETATM   36  C   UNL     1     -12.487   8.108  71.377  1.00  0.00    -0.292 A  
HETATM   37  S   UNL     1     -13.769   9.063  71.988  1.00  0.00    -0.469 SA 
HETATM   38  H1  UNL     1     -12.800  12.542  71.761  1.00  0.00     0.000 HD 
HETATM   39  N   UNL     1     -13.338  11.698  71.962  1.00  0.00    -0.429 NA 
HETATM   40  N   UNL     1     -11.706  10.286  71.079  1.00  0.00    -0.369 NA 
HETATM   41  C   UNL     1     -12.866  10.482  71.650  1.00  0.00    -0.475 A  
ENDBRANCH  24  34
ENDBRANCH  23  24
ENDBRANCH   7  20
TORSDOF 7
ENDMDL
MODEL       44
REMARK 921   NORMALIZED FREE ENERGY PREDICTED BY IDOCK:   -6.51 KCAL/MOL
REMARK 922        TOTAL FREE ENERGY PREDICTED BY IDOCK:  -10.71 KCAL/MOL
REMARK 923 INTER-LIGAND FREE ENERGY PREDICTED BY IDOCK:   -9.00 KCAL/MOL
REMARK 924 INTRA-LIGAND FREE ENERGY PREDICTED BY IDOCK:   -1.71 KCAL/MOL
REMARK 927      BINDING AFFINITY PREDICTED BY RF-SCORE:    0.00 PKD
ROOT
HETATM    1  O   UNL     1      -5.168   8.954  66.111  1.00  0.00    -0.032 OA 
HETATM    2  C   UNL     1      -6.187   8.463  66.646  1.00  0.00    -0.054 C  
HETATM    3  CA  UNL     1      -7.227   9.481  67.289  1.00  0.00    -0.087 C  
HETATM    4  OXT UNL     1      -6.516   7.242  66.765  1.00  0.00    -0.048 OA 
HETATM    5  C   UNL     1      -8.486   9.068  67.587  1.00  0.00    -0.117 C  
HETATM    6  C   UNL     1      -9.586   9.927  68.153  1.00  0.00    -0.139 C  
HETATM    7  CA  UNL     1      -7.028  12.858  67.571  1.00  0.00    -0.149 C  
HETATM    8  S   UNL     1      -9.239  11.561  68.779  1.00  0.00     0.005 SA 
HETATM    9  N   UNL     1      -6.925  10.800  67.467  1.00  0.00    -0.082 N  
HETATM   10  O   UNL     1      -5.477  11.812  65.854  1.00  0.00    -0.139 OA 
HETATM   11  C   UNL     1      -7.473  11.668  68.478  1.00  0.00    -0.113 C  
HETATM   12  C   UNL     1      -6.209  11.754  66.812  1.00  0.00    -0.094 C  
ENDROOT
BRANCH   5  13
HETATM   13  C   UNL     1      -8.993   7.668  67.294  1.00  0.00    -0.127 C  
BRANCH  13  14
HETATM   14  N   UNL     1      -9.542   6.893  68.449  1.00  0.00    -0.127 NA 
HETATM   15  C   UNL     1     -11.368   6.114  69.774  1.00  0.00    -0.452 A  
HETATM   16  C   UNL     1     -10.507   5.866  70.835  1.00  0.00    -0.305 A  
HETATM   17  C   UNL     1     -10.861   6.618  68.577  1.00  0.00    -0.258 A  
HETATM   18  C   UNL     1      -8.683   6.564  69.444  1.00  0.00    -0.134 A  
HETATM   19  C   UNL     1      -9.147   6.071  70.659  1.00  0.00    -0.157 A  
ENDBRANCH  13  14
ENDBRANCH   5  13
BRANCH   7  20
HETATM   20  N   UNL     1      -8.059  13.566  66.709  1.00  0.00    -0.374 N  
HETATM   21  H   UNL     1      -8.579  13.025  66.018  1.00  0.00     0.000 HD 
HETATM   22  O   UNL     1      -7.679  15.714  67.517  1.00  0.00    -0.139 OA 
HETATM   23  C   UNL     1      -8.315  14.921  66.830  1.00  0.00    -0.177 C  
BRANCH  23  24
HETATM   24  C   UNL     1      -9.489  15.502  66.074  1.00  0.00    -0.352 C  
BRANCH  24  25
HETATM   25  N   UNL     1      -9.700  16.765  65.828  1.00  0.00    -0.543 NA 
HETATM   26  H   UNL     1      -9.542  17.169  64.904  1.00  0.00     0.000 HD 
BRANCH  25  27
HETATM   27  O   UNL     1     -10.156  17.535  66.904  1.00  0.00    -0.300 OA 
HETATM   28  C   UNL     1     -10.117  19.650  68.016  1.00  0.00    -0.555 C  
HETATM   29  C   UNL     1     -10.706  19.490  65.590  1.00  0.00    -0.420 C  
HETATM   30  O   UNL     1      -7.694  18.260  65.646  1.00  0.00    -0.529 OA 
HETATM   31  O   UNL     1      -7.760  20.285  66.609  1.00  0.00    -0.286 OA 
HETATM   32  C   UNL     1      -9.806  18.923  66.697  1.00  0.00    -0.358 C  
HETATM   33  C   UNL     1      -8.327  19.234  66.341  1.00  0.00    -0.321 C  
ENDBRANCH  25  27
ENDBRANCH  24  25
BRANCH  24  34
HETATM   34  C   UNL     1     -10.565  14.599  65.654  1.00  0.00    -0.332 A  
HETATM   35  H2  UNL     1     -12.498  11.742  63.149  1.00  0.00     0.000 HD 
HETATM   36  C   UNL     1     -11.849  14.591  66.172  1.00  0.00    -0.336 A  
HETATM   37  S   UNL     1     -12.820  13.465  65.324  1.00  0.00    -0.190 SA 
HETATM   38  H1  UNL     1     -10.801  11.955  62.729  1.00  0.00     0.000 HD 
HETATM   39  N   UNL     1     -11.597  12.189  63.322  1.00  0.00    -0.383 NA 
HETATM   40  N   UNL     1     -10.365  13.689  64.614  1.00  0.00    -0.417 NA 
HETATM   41  C   UNL     1     -11.481  13.071  64.326  1.00  0.00    -0.381 A  
ENDBRANCH  24  34
ENDBRANCH  23  24
ENDBRANCH   7  20
TORSDOF 7
ENDMDL
MODEL       45
REMARK 921   NORMALIZED FREE ENERGY PREDICTED BY IDOCK:   -6.49 KCAL/MOL
REMARK 922        TOTAL FREE ENERGY PREDICTED BY IDOCK:  -10.69 KCAL/MOL
REMARK 923 INTER-LIGAND FREE ENERGY PREDICTED BY IDOCK:   -9.20 KCAL/MOL
REMARK 924 INTRA-LIGAND FREE ENERGY PREDICTED BY IDOCK:   -1.49 KCAL/MOL
REMARK 927      BINDING AFFINITY PREDICTED BY RF-SCORE:    0.00 PKD
ROOT
HETATM    1  O   UNL     1     -11.007  17.196  64.554  1.00  0.00    -1.003 OA 
HETATM    2  C   UNL     1     -10.727  17.606  65.702  1.00  0.00    -0.084 C  
HETATM    3  CA  UNL     1     -10.885  16.567  66.898  1.00  0.00    -0.083 C  
HETATM    4  OXT UNL     1     -10.336  18.758  66.065  1.00  0.00    -0.438 OA 
HETATM    5  C   UNL     1     -10.301  16.818  68.097  1.00  0.00    -0.318 C  
HETATM    6  C   UNL     1     -10.326  15.910  69.299  1.00  0.00    -0.249 C  
HETATM    7  CA  UNL     1     -12.040  13.375  66.826  1.00  0.00    -0.365 C  
HETATM    8  S   UNL     1     -11.412  14.496  69.352  1.00  0.00    -0.301 SA 
HETATM    9  N   UNL     1     -11.518  15.369  66.729  1.00  0.00    -0.133 N  
HETATM   10  O   UNL     1     -11.324  14.328  64.584  1.00  0.00    -0.369 OA 
HETATM   11  C   UNL     1     -12.209  14.623  67.749  1.00  0.00    -0.047 C  
HETATM   12  C   UNL     1     -11.643  14.440  65.743  1.00  0.00    -0.353 C  
ENDROOT
BRANCH   5  13
HETATM   13  C   UNL     1      -9.442  18.041  68.365  1.00  0.00    -0.308 C  
BRANCH  13  14
HETATM   14  N   UNL     1      -8.029  17.993  67.876  1.00  0.00    -0.236 NA 
HETATM   15  C   UNL     1      -6.139  19.003  66.825  1.00  0.00    -0.180 A  
HETATM   16  C   UNL     1      -5.604  17.750  66.560  1.00  0.00    -0.214 A  
HETATM   17  C   UNL     1      -7.355  19.106  67.501  1.00  0.00    -0.226 A  
HETATM   18  C   UNL     1      -7.469  16.772  67.706  1.00  0.00    -0.163 A  
HETATM   19  C   UNL     1      -6.264  16.624  67.027  1.00  0.00    -0.212 A  
ENDBRANCH  13  14
ENDBRANCH   5  13
BRANCH   7  20
HETATM   20  N   UNL     1     -10.948  12.365  67.129  1.00  0.00    -0.252 N  
HETATM   21  H   UNL     1     -10.022  12.504  66.723  1.00  0.00     0.000 HD 
HETATM   22  O   UNL     1     -12.253  10.902  68.380  1.00  0.00    -0.540 OA 
HETATM   23  C   UNL     1     -11.167  11.264  67.938  1.00  0.00    -0.290 C  
BRANCH  23  24
HETATM   24  C   UNL     1      -9.980  10.420  68.344  1.00  0.00    -0.162 C  
BRANCH  24  25
HETATM   25  N   UNL     1      -8.766  10.518  67.877  1.00  0.00    -0.125 NA 
HETATM   26  H   UNL     1      -8.539  10.282  66.911  1.00  0.00     0.000 HD 
BRANCH  25  27
HETATM   27  O   UNL     1      -7.793  10.966  68.779  1.00  0.00    -0.116 OA 
HETATM   28  C   UNL     1      -5.742  12.151  69.090  1.00  0.00    -0.069 C  
HETATM   29  C   UNL     1      -7.669  13.218  67.905  1.00  0.00    -0.152 C  
HETATM   30  O   UNL     1      -7.067  10.624  66.035  1.00  0.00    -0.128 OA 
HETATM   31  O   UNL     1      -5.214  11.852  66.338  1.00  0.00    -0.332 OA 
HETATM   32  C   UNL     1      -6.909  11.902  68.121  1.00  0.00    -0.071 C  
HETATM   33  C   UNL     1      -6.292  11.460  66.766  1.00  0.00    -0.142 C  
ENDBRANCH  25  27
ENDBRANCH  24  25
BRANCH  24  34
HETATM   34  C   UNL     1     -10.200   9.306  69.272  1.00  0.00    -0.206 A  
HETATM   35  H2  UNL     1     -11.173   5.312  70.402  1.00  0.00     0.000 HD 
HETATM   36  C   UNL     1     -10.326   9.422  70.645  1.00  0.00    -0.284 A  
HETATM   37  S   UNL     1     -10.690   7.900  71.336  1.00  0.00    -0.227 SA 
HETATM   38  H1  UNL     1     -10.928   5.470  68.666  1.00  0.00     0.000 HD 
HETATM   39  N   UNL     1     -10.943   5.891  69.594  1.00  0.00    -0.376 NA 
HETATM   40  N   UNL     1     -10.364   8.004  68.794  1.00  0.00    -0.210 NA 
HETATM   41  C   UNL     1     -10.666   7.192  69.774  1.00  0.00    -0.239 A  
ENDBRANCH  24  34
ENDBRANCH  23  24
ENDBRANCH   7  20
TORSDOF 7
ENDMDL
MODEL       46
REMARK 921   NORMALIZED FREE ENERGY PREDICTED BY IDOCK:   -6.49 KCAL/MOL
REMARK 922        TOTAL FREE ENERGY PREDICTED BY IDOCK:  -10.69 KCAL/MOL
REMARK 923 INTER-LIGAND FREE ENERGY PREDICTED BY IDOCK:   -8.64 KCAL/MOL
REMARK 924 INTRA-LIGAND FREE ENERGY PREDICTED BY IDOCK:   -2.05 KCAL/MOL
REMARK 927      BINDING AFFINITY PREDICTED BY RF-SCORE:    0.00 PKD
ROOT
HETATM    1  O   UNL     1     -10.919  16.583  64.306  1.00  0.00    -0.848 OA 
HETATM    2  C   UNL     1     -10.833  17.160  65.412  1.00  0.00    -0.046 C  
HETATM    3  CA  UNL     1     -10.986  16.255  66.713  1.00  0.00    -0.031 C  
HETATM    4  OXT UNL     1     -10.647  18.393  65.658  1.00  0.00    -0.622 OA 
HETATM    5  C   UNL     1     -10.585  16.728  67.920  1.00  0.00    -0.350 C  
HETATM    6  C   UNL     1     -10.625  15.972  69.222  1.00  0.00    -0.265 C  
HETATM    7  CA  UNL     1     -11.678  12.940  66.949  1.00  0.00    -0.382 C  
HETATM    8  S   UNL     1     -11.507  14.427  69.355  1.00  0.00    -0.304 SA 
HETATM    9  N   UNL     1     -11.425  14.965  66.641  1.00  0.00    -0.332 N  
HETATM   10  O   UNL     1     -10.843  13.723  64.682  1.00  0.00    -0.375 OA 
HETATM   11  C   UNL     1     -12.123  14.247  67.678  1.00  0.00    -0.297 C  
HETATM   12  C   UNL     1     -11.307  13.919  65.779  1.00  0.00    -0.307 C  
ENDROOT
BRANCH   5  13
HETATM   13  C   UNL     1      -9.937  18.088  68.108  1.00  0.00    -0.353 C  
BRANCH  13  14
HETATM   14  N   UNL     1      -8.444  18.138  68.056  1.00  0.00    -0.255 NA 
HETATM   15  C   UNL     1      -6.327  17.140  67.585  1.00  0.00    -0.161 A  
HETATM   16  C   UNL     1      -5.697  18.062  68.410  1.00  0.00    -0.173 A  
HETATM   17  C   UNL     1      -7.709  17.203  67.409  1.00  0.00    -0.171 A  
HETATM   18  C   UNL     1      -7.826  19.098  68.786  1.00  0.00    -0.348 A  
HETATM   19  C   UNL     1      -6.452  19.066  68.997  1.00  0.00    -0.305 A  
ENDBRANCH  13  14
ENDBRANCH   5  13
BRANCH   7  20
HETATM   20  N   UNL     1     -10.501  12.147  67.488  1.00  0.00    -0.207 N  
HETATM   21  H   UNL     1      -9.933  12.553  68.231  1.00  0.00     0.000 HD 
HETATM   22  O   UNL     1     -10.682  10.343  66.031  1.00  0.00    -0.115 OA 
HETATM   23  C   UNL     1     -10.175  10.892  67.004  1.00  0.00    -0.214 C  
BRANCH  23  24
HETATM   24  C   UNL     1      -9.113  10.094  67.727  1.00  0.00    -0.130 C  
BRANCH  24  25
HETATM   25  N   UNL     1      -7.917  10.506  68.043  1.00  0.00    -0.105 NA 
HETATM   26  H   UNL     1      -7.167   9.856  68.277  1.00  0.00     0.000 HD 
BRANCH  25  27
HETATM   27  O   UNL     1      -7.722  11.892  68.040  1.00  0.00    -0.115 OA 
HETATM   28  C   UNL     1      -6.502  13.747  68.923  1.00  0.00    -0.100 C  
HETATM   29  C   UNL     1      -5.309  11.799  67.904  1.00  0.00    -0.051 C  
HETATM   30  O   UNL     1      -6.938  10.401  70.350  1.00  0.00    -0.253 OA 
HETATM   31  O   UNL     1      -5.699  12.123  71.081  1.00  0.00    -0.374 OA 
HETATM   32  C   UNL     1      -6.512  12.218  68.760  1.00  0.00    -0.082 C  
HETATM   33  C   UNL     1      -6.346  11.607  70.178  1.00  0.00    -0.060 C  
ENDBRANCH  25  27
ENDBRANCH  24  25
BRANCH  24  34
HETATM   34  C   UNL     1      -9.383   8.683  68.025  1.00  0.00    -0.136 A  
HETATM   35  H2  UNL     1      -9.834   4.535  67.151  1.00  0.00     0.000 HD 
HETATM   36  C   UNL     1      -9.951   8.207  69.194  1.00  0.00    -0.192 A  
HETATM   37  S   UNL     1     -10.197   6.517  69.085  1.00  0.00    -0.194 SA 
HETATM   38  H1  UNL     1      -9.098   5.419  65.818  1.00  0.00     0.000 HD 
HETATM   39  N   UNL     1      -9.486   5.411  66.761  1.00  0.00    -0.132 NA 
HETATM   40  N   UNL     1      -9.124   7.694  67.074  1.00  0.00    -0.130 NA 
HETATM   41  C   UNL     1      -9.546   6.531  67.498  1.00  0.00    -0.124 A  
ENDBRANCH  24  34
ENDBRANCH  23  24
ENDBRANCH   7  20
TORSDOF 7
ENDMDL
MODEL       47
REMARK 921   NORMALIZED FREE ENERGY PREDICTED BY IDOCK:   -6.49 KCAL/MOL
REMARK 922        TOTAL FREE ENERGY PREDICTED BY IDOCK:  -10.68 KCAL/MOL
REMARK 923 INTER-LIGAND FREE ENERGY PREDICTED BY IDOCK:   -8.99 KCAL/MOL
REMARK 924 INTRA-LIGAND FREE ENERGY PREDICTED BY IDOCK:   -1.69 KCAL/MOL
REMARK 927      BINDING AFFINITY PREDICTED BY RF-SCORE:    0.00 PKD
ROOT
HETATM    1  O   UNL     1     -13.134  10.818  71.964  1.00  0.00    -0.483 OA 
HETATM    2  C   UNL     1     -12.257   9.938  71.817  1.00  0.00    -0.341 C  
HETATM    3  CA  UNL     1     -11.310  10.066  70.544  1.00  0.00    -0.335 C  
HETATM    4  OXT UNL     1     -12.012   8.926  72.545  1.00  0.00    -0.305 OA 
HETATM    5  C   UNL     1     -10.151   9.364  70.487  1.00  0.00    -0.335 C  
HETATM    6  C   UNL     1      -9.138   9.420  69.373  1.00  0.00    -0.161 C  
HETATM    7  CA  UNL     1     -11.405  12.338  68.023  1.00  0.00    -0.293 C  
HETATM    8  S   UNL     1      -9.521  10.230  67.830  1.00  0.00    -0.142 SA 
HETATM    9  N   UNL     1     -11.581  10.944  69.535  1.00  0.00    -0.284 N  
HETATM   10  O   UNL     1     -12.652  12.997  70.134  1.00  0.00    -0.131 OA 
HETATM   11  C   UNL     1     -11.193  10.797  68.155  1.00  0.00    -0.302 C  
HETATM   12  C   UNL     1     -12.116  12.189  69.415  1.00  0.00    -0.190 C  
ENDROOT
BRANCH   5  13
HETATM   13  C   UNL     1      -9.661   8.472  71.614  1.00  0.00    -0.252 C  
BRANCH  13  14
HETATM   14  N   UNL     1      -9.420   7.034  71.281  1.00  0.00    -0.164 NA 
HETATM   15  C   UNL     1     -10.208   4.833  70.796  1.00  0.00    -0.246 A  
HETATM   16  C   UNL     1      -8.972   4.304  71.141  1.00  0.00    -0.166 A  
HETATM   17  C   UNL     1     -10.410   6.212  70.860  1.00  0.00    -0.215 A  
HETATM   18  C   UNL     1      -8.185   6.535  71.528  1.00  0.00    -0.116 A  
HETATM   19  C   UNL     1      -7.943   5.166  71.488  1.00  0.00    -0.113 A  
ENDBRANCH  13  14
ENDBRANCH   5  13
BRANCH   7  20
HETATM   20  N   UNL     1     -10.200  13.261  68.040  1.00  0.00    -0.234 N  
HETATM   21  H   UNL     1      -9.283  12.871  68.255  1.00  0.00     0.000 HD 
HETATM   22  O   UNL     1     -11.352  15.240  67.631  1.00  0.00    -0.328 OA 
HETATM   23  C   UNL     1     -10.305  14.615  67.772  1.00  0.00    -0.237 C  
BRANCH  23  24
HETATM   24  C   UNL     1      -9.035  15.420  67.618  1.00  0.00    -0.181 C  
BRANCH  24  25
HETATM   25  N   UNL     1      -8.897  16.523  66.936  1.00  0.00    -0.195 NA 
HETATM   26  H   UNL     1      -9.380  16.674  66.051  1.00  0.00     0.000 HD 
BRANCH  25  27
HETATM   27  O   UNL     1      -8.048  17.489  67.490  1.00  0.00    -0.201 OA 
HETATM   28  C   UNL     1      -7.766  19.765  68.160  1.00  0.00    -0.336 C  
HETATM   29  C   UNL     1      -9.684  18.407  69.016  1.00  0.00    -0.249 C  
HETATM   30  O   UNL     1     -10.187  18.351  65.801  1.00  0.00    -0.571 OA 
HETATM   31  O   UNL     1      -9.975  20.455  66.552  1.00  0.00    -0.427 OA 
HETATM   32  C   UNL     1      -8.799  18.686  67.794  1.00  0.00    -0.275 C  
HETATM   33  C   UNL     1      -9.688  19.269  66.662  1.00  0.00    -0.353 C  
ENDBRANCH  25  27
ENDBRANCH  24  25
BRANCH  24  34
HETATM   34  C   UNL     1      -7.795  14.884  68.189  1.00  0.00    -0.122 A  
HETATM   35  H2  UNL     1      -4.992  13.997  71.277  1.00  0.00     0.000 HD 
HETATM   36  C   UNL     1      -6.690  14.478  67.461  1.00  0.00    -0.116 A  
HETATM   37  S   UNL     1      -5.420  14.030  68.517  1.00  0.00    -0.104 SA 
HETATM   38  H1  UNL     1      -6.541  14.535  71.919  1.00  0.00     0.000 HD 
HETATM   39  N   UNL     1      -5.951  14.308  71.119  1.00  0.00    -0.203 NA 
HETATM   40  N   UNL     1      -7.626  14.803  69.573  1.00  0.00    -0.133 NA 
HETATM   41  C   UNL     1      -6.412  14.411  69.863  1.00  0.00    -0.152 A  
ENDBRANCH  24  34
ENDBRANCH  23  24
ENDBRANCH   7  20
TORSDOF 7
ENDMDL
MODEL       48
REMARK 921   NORMALIZED FREE ENERGY PREDICTED BY IDOCK:   -6.49 KCAL/MOL
REMARK 922        TOTAL FREE ENERGY PREDICTED BY IDOCK:  -10.68 KCAL/MOL
REMARK 923 INTER-LIGAND FREE ENERGY PREDICTED BY IDOCK:   -8.60 KCAL/MOL
REMARK 924 INTRA-LIGAND FREE ENERGY PREDICTED BY IDOCK:   -2.08 KCAL/MOL
REMARK 927      BINDING AFFINITY PREDICTED BY RF-SCORE:    0.00 PKD
ROOT
HETATM    1  O   UNL     1     -11.374  16.240  63.687  1.00  0.00    -0.653 OA 
HETATM    2  C   UNL     1     -11.162  16.817  64.776  1.00  0.00     0.040 C  
HETATM    3  CA  UNL     1     -11.145  15.909  66.083  1.00  0.00    -0.024 C  
HETATM    4  OXT UNL     1     -10.965  18.052  65.001  1.00  0.00    -0.748 OA 
HETATM    5  C   UNL     1     -10.608  16.386  67.234  1.00  0.00    -0.293 C  
HETATM    6  C   UNL     1     -10.480  15.629  68.530  1.00  0.00    -0.236 C  
HETATM    7  CA  UNL     1     -11.758  12.584  66.392  1.00  0.00    -0.397 C  
HETATM    8  S   UNL     1     -11.318  14.071  68.764  1.00  0.00    -0.299 SA 
HETATM    9  N   UNL     1     -11.572  14.613  66.062  1.00  0.00    -0.351 N  
HETATM   10  O   UNL     1     -11.214  13.381  64.043  1.00  0.00    -0.369 OA 
HETATM   11  C   UNL     1     -12.129  13.884  67.174  1.00  0.00    -0.387 C  
HETATM   12  C   UNL     1     -11.545  13.570  65.189  1.00  0.00    -0.316 C  
ENDROOT
BRANCH   5  13
HETATM   13  C   UNL     1      -9.960  17.755  67.346  1.00  0.00    -0.323 C  
BRANCH  13  14
HETATM   14  N   UNL     1      -8.470  17.808  67.243  1.00  0.00    -0.228 NA 
HETATM   15  C   UNL     1      -6.408  17.098  66.270  1.00  0.00    -0.148 A  
HETATM   16  C   UNL     1      -5.714  17.558  67.381  1.00  0.00    -0.158 A  
HETATM   17  C   UNL     1      -7.794  17.246  66.213  1.00  0.00    -0.309 A  
HETATM   18  C   UNL     1      -7.791  18.344  68.285  1.00  0.00    -0.298 A  
HETATM   19  C   UNL     1      -6.410  18.209  68.388  1.00  0.00    -0.197 A  
ENDBRANCH  13  14
ENDBRANCH   5  13
BRANCH   7  20
HETATM   20  N   UNL     1     -10.514  11.807  66.783  1.00  0.00    -0.219 N  
HETATM   21  H   UNL     1      -9.629  12.035  66.330  1.00  0.00     0.000 HD 
HETATM   22  O   UNL     1     -11.550  10.334  68.255  1.00  0.00    -0.264 OA 
HETATM   23  C   UNL     1     -10.542  10.801  67.732  1.00  0.00    -0.228 C  
BRANCH  23  24
HETATM   24  C   UNL     1      -9.229  10.215  68.201  1.00  0.00    -0.135 C  
BRANCH  24  25
HETATM   25  N   UNL     1      -8.949   8.947  68.326  1.00  0.00    -0.137 NA 
HETATM   26  H   UNL     1      -8.949   8.482  69.234  1.00  0.00     0.000 HD 
BRANCH  25  27
HETATM   27  O   UNL     1      -8.650   8.263  67.142  1.00  0.00    -0.121 OA 
HETATM   28  C   UNL     1      -8.552   6.160  66.012  1.00  0.00    -0.145 C  
HETATM   29  C   UNL     1     -10.661   6.919  67.121  1.00  0.00    -0.436 C  
HETATM   30  O   UNL     1      -8.571   6.828  69.614  1.00  0.00    -0.131 OA 
HETATM   31  O   UNL     1      -8.611   4.871  68.517  1.00  0.00    -0.094 OA 
HETATM   32  C   UNL     1      -9.130   6.902  67.228  1.00  0.00    -0.124 C  
HETATM   33  C   UNL     1      -8.733   6.089  68.491  1.00  0.00    -0.110 C  
ENDBRANCH  25  27
ENDBRANCH  24  25
BRANCH  24  34
HETATM   34  C   UNL     1      -8.184  11.131  68.668  1.00  0.00    -0.152 A  
HETATM   35  H2  UNL     1      -5.995  14.786  68.831  1.00  0.00     0.000 HD 
HETATM   36  C   UNL     1      -7.081  10.768  69.422  1.00  0.00    -0.122 A  
HETATM   37  S   UNL     1      -6.053  12.116  69.651  1.00  0.00    -0.135 SA 
HETATM   38  H1  UNL     1      -7.498  14.951  67.929  1.00  0.00     0.000 HD 
HETATM   39  N   UNL     1      -6.858  14.374  68.474  1.00  0.00    -0.091 NA 
HETATM   40  N   UNL     1      -8.210  12.481  68.313  1.00  0.00    -0.168 NA 
HETATM   41  C   UNL     1      -7.129  13.086  68.733  1.00  0.00    -0.097 A  
ENDBRANCH  24  34
ENDBRANCH  23  24
ENDBRANCH   7  20
TORSDOF 7
ENDMDL
MODEL       49
REMARK 921   NORMALIZED FREE ENERGY PREDICTED BY IDOCK:   -6.42 KCAL/MOL
REMARK 922        TOTAL FREE ENERGY PREDICTED BY IDOCK:  -10.59 KCAL/MOL
REMARK 923 INTER-LIGAND FREE ENERGY PREDICTED BY IDOCK:   -9.73 KCAL/MOL
REMARK 924 INTRA-LIGAND FREE ENERGY PREDICTED BY IDOCK:   -0.86 KCAL/MOL
REMARK 927      BINDING AFFINITY PREDICTED BY RF-SCORE:    0.00 PKD
ROOT
HETATM    1  O   UNL     1     -10.345  11.186  63.649  1.00  0.00    -0.344 OA 
HETATM    2  C   UNL     1      -9.466  10.386  64.038  1.00  0.00    -0.299 C  
HETATM    3  CA  UNL     1      -8.837  10.647  65.477  1.00  0.00    -0.188 C  
HETATM    4  OXT UNL     1      -8.981   9.378  63.436  1.00  0.00    -0.223 OA 
HETATM    5  C   UNL     1      -8.137   9.665  66.100  1.00  0.00    -0.108 C  
HETATM    6  C   UNL     1      -7.528   9.751  67.475  1.00  0.00    -0.091 C  
HETATM    7  CA  UNL     1      -9.424  13.193  67.643  1.00  0.00    -0.207 C  
HETATM    8  S   UNL     1      -7.417  11.314  68.329  1.00  0.00    -0.106 SA 
HETATM    9  N   UNL     1      -9.060  11.808  66.158  1.00  0.00    -0.210 N  
HETATM   10  O   UNL     1     -11.183  12.865  65.842  1.00  0.00    -0.282 OA 
HETATM   11  C   UNL     1      -8.177  12.408  67.126  1.00  0.00    -0.176 C  
HETATM   12  C   UNL     1     -10.084  12.692  66.310  1.00  0.00    -0.253 C  
ENDROOT
BRANCH   5  13
HETATM   13  C   UNL     1      -7.950   8.276  65.515  1.00  0.00    -0.120 C  
BRANCH  13  14
HETATM   14  N   UNL     1      -8.882   7.210  65.994  1.00  0.00    -0.151 NA 
HETATM   15  C   UNL     1     -10.856   6.509  67.139  1.00  0.00    -0.472 A  
HETATM   16  C   UNL     1     -10.334   5.230  67.277  1.00  0.00    -0.254 A  
HETATM   17  C   UNL     1     -10.115   7.489  66.479  1.00  0.00    -0.124 A  
HETATM   18  C   UNL     1      -8.408   5.942  66.040  1.00  0.00    -0.128 A  
HETATM   19  C   UNL     1      -9.108   4.938  66.699  1.00  0.00    -0.119 A  
ENDBRANCH  13  14
ENDBRANCH   5  13
BRANCH   7  20
HETATM   20  N   UNL     1     -10.134  12.723  68.900  1.00  0.00    -0.424 N  
HETATM   21  H   UNL     1      -9.983  13.232  69.771  1.00  0.00     0.000 HD 
HETATM   22  O   UNL     1     -11.150  10.849  67.968  1.00  0.00    -0.247 OA 
HETATM   23  C   UNL     1     -10.980  11.628  68.902  1.00  0.00    -0.233 C  
BRANCH  23  24
HETATM   24  C   UNL     1     -11.795  11.348  70.145  1.00  0.00    -0.355 C  
BRANCH  24  25
HETATM   25  N   UNL     1     -12.051  10.175  70.653  1.00  0.00    -0.304 NA 
HETATM   26  H   UNL     1     -12.895   9.656  70.413  1.00  0.00     0.000 HD 
BRANCH  25  27
HETATM   27  O   UNL     1     -11.100   9.670  71.548  1.00  0.00    -0.370 OA 
HETATM   28  C   UNL     1     -10.244   7.758  72.697  1.00  0.00    -0.340 C  
HETATM   29  C   UNL     1     -10.501   7.747  70.209  1.00  0.00    -0.225 C  
HETATM   30  O   UNL     1     -13.557   8.248  71.211  1.00  0.00    -0.241 OA 
HETATM   31  O   UNL     1     -12.674   6.428  72.180  1.00  0.00    -0.244 OA 
HETATM   32  C   UNL     1     -11.126   8.225  71.527  1.00  0.00    -0.259 C  
HETATM   33  C   UNL     1     -12.510   7.540  71.695  1.00  0.00    -0.342 C  
ENDBRANCH  25  27
ENDBRANCH  24  25
BRANCH  24  34
HETATM   34  C   UNL     1     -12.464  12.473  70.808  1.00  0.00    -0.268 A  
HETATM   35  H2  UNL     1     -13.377  16.568  71.559  1.00  0.00     0.000 HD 
HETATM   36  C   UNL     1     -13.185  12.391  71.986  1.00  0.00    -0.409 A  
HETATM   37  S   UNL     1     -13.698  13.949  72.474  1.00  0.00    -0.503 SA 
HETATM   38  H1  UNL     1     -12.456  16.354  70.073  1.00  0.00     0.000 HD 
HETATM   39  N   UNL     1     -12.915  15.951  70.890  1.00  0.00    -0.417 NA 
HETATM   40  N   UNL     1     -12.357  13.767  70.295  1.00  0.00    -0.343 NA 
HETATM   41  C   UNL     1     -12.925  14.627  71.101  1.00  0.00    -0.350 A  
ENDBRANCH  24  34
ENDBRANCH  23  24
ENDBRANCH   7  20
TORSDOF 7
ENDMDL
MODEL       50
REMARK 921   NORMALIZED FREE ENERGY PREDICTED BY IDOCK:   -6.42 KCAL/MOL
REMARK 922        TOTAL FREE ENERGY PREDICTED BY IDOCK:  -10.59 KCAL/MOL
REMARK 923 INTER-LIGAND FREE ENERGY PREDICTED BY IDOCK:   -9.23 KCAL/MOL
REMARK 924 INTRA-LIGAND FREE ENERGY PREDICTED BY IDOCK:   -1.36 KCAL/MOL
REMARK 927      BINDING AFFINITY PREDICTED BY RF-SCORE:    0.00 PKD
ROOT
HETATM    1  O   UNL     1     -10.523   6.881  66.605  1.00  0.00    -0.223 OA 
HETATM    2  C   UNL     1     -10.315   6.855  67.838  1.00  0.00    -0.195 C  
HETATM    3  CA  UNL     1      -9.407   8.015  68.441  1.00  0.00    -0.138 C  
HETATM    4  OXT UNL     1     -10.722   6.014  68.700  1.00  0.00    -0.246 OA 
HETATM    5  C   UNL     1      -9.403   8.249  69.778  1.00  0.00    -0.158 C  
HETATM    6  C   UNL     1      -8.634   9.335  70.483  1.00  0.00    -0.233 C  
HETATM    7  CA  UNL     1      -7.785  10.525  66.830  1.00  0.00    -0.114 C  
HETATM    8  S   UNL     1      -7.381  10.272  69.624  1.00  0.00    -0.161 SA 
HETATM    9  N   UNL     1      -8.693   8.858  67.639  1.00  0.00    -0.124 N  
HETATM   10  O   UNL     1      -9.642   9.402  65.512  1.00  0.00    -0.268 OA 
HETATM   11  C   UNL     1      -7.468   9.530  67.992  1.00  0.00    -0.083 C  
HETATM   12  C   UNL     1      -8.851   9.446  66.423  1.00  0.00    -0.145 C  
ENDROOT
BRANCH   5  13
HETATM   13  C   UNL     1     -10.272   7.482  70.760  1.00  0.00    -0.194 C  
BRANCH  13  14
HETATM   14  N   UNL     1     -11.599   8.082  71.099  1.00  0.00    -0.280 NA 
HETATM   15  C   UNL     1     -12.934   9.811  72.059  1.00  0.00    -0.515 A  
HETATM   16  C   UNL     1     -14.017   8.946  72.137  1.00  0.00    -0.520 A  
HETATM   17  C   UNL     1     -11.729   9.362  71.521  1.00  0.00    -0.394 A  
HETATM   18  C   UNL     1     -12.676   7.261  71.083  1.00  0.00    -0.306 A  
HETATM   19  C   UNL     1     -13.893   7.665  71.622  1.00  0.00    -0.480 A  
ENDBRANCH  13  14
ENDBRANCH   5  13
BRANCH   7  20
HETATM   20  N   UNL     1      -8.374  11.886  67.153  1.00  0.00    -0.168 N  
HETATM   21  H   UNL     1      -9.379  11.965  67.304  1.00  0.00     0.000 HD 
HETATM   22  O   UNL     1      -6.400  13.102  66.964  1.00  0.00    -0.169 OA 
HETATM   23  C   UNL     1      -7.591  13.024  67.249  1.00  0.00    -0.089 C  
BRANCH  23  24
HETATM   24  C   UNL     1      -8.227  14.295  67.764  1.00  0.00    -0.174 C  
BRANCH  24  25
HETATM   25  N   UNL     1      -9.406  14.403  68.309  1.00  0.00    -0.200 NA 
HETATM   26  H   UNL     1      -9.848  15.309  68.464  1.00  0.00     0.000 HD 
BRANCH  25  27
HETATM   27  O   UNL     1     -10.032  13.203  68.669  1.00  0.00    -0.204 OA 
HETATM   28  C   UNL     1     -12.006  12.140  69.494  1.00  0.00    -0.338 C  
HETATM   29  C   UNL     1     -12.103  13.648  67.502  1.00  0.00    -0.352 C  
HETATM   30  O   UNL     1     -10.983  15.643  69.816  1.00  0.00    -0.252 OA 
HETATM   31  O   UNL     1     -12.882  14.637  70.462  1.00  0.00    -0.353 OA 
HETATM   32  C   UNL     1     -11.445  13.429  68.871  1.00  0.00    -0.304 C  
HETATM   33  C   UNL     1     -11.848  14.602  69.806  1.00  0.00    -0.316 C  
ENDBRANCH  25  27
ENDBRANCH  24  25
BRANCH  24  34
HETATM   34  C   UNL     1      -7.522  15.563  67.552  1.00  0.00    -0.182 A  
HETATM   35  H2  UNL     1      -6.329  19.044  65.398  1.00  0.00     0.000 HD 
HETATM   36  C   UNL     1      -6.503  16.055  68.349  1.00  0.00    -0.120 A  
HETATM   37  S   UNL     1      -5.879  17.503  67.683  1.00  0.00    -0.142 SA 
HETATM   38  H1  UNL     1      -7.660  18.199  64.612  1.00  0.00     0.000 HD 
HETATM   39  N   UNL     1      -6.998  18.273  65.385  1.00  0.00    -0.518 NA 
HETATM   40  N   UNL     1      -7.813  16.361  66.443  1.00  0.00    -0.295 NA 
HETATM   41  C   UNL     1      -6.991  17.378  66.384  1.00  0.00    -0.279 A  
ENDBRANCH  24  34
ENDBRANCH  23  24
ENDBRANCH   7  20
TORSDOF 7
ENDMDL
MODEL       51
REMARK 921   NORMALIZED FREE ENERGY PREDICTED BY IDOCK:   -6.41 KCAL/MOL
REMARK 922        TOTAL FREE ENERGY PREDICTED BY IDOCK:  -10.58 KCAL/MOL
REMARK 923 INTER-LIGAND FREE ENERGY PREDICTED BY IDOCK:   -8.92 KCAL/MOL
REMARK 924 INTRA-LIGAND FREE ENERGY PREDICTED BY IDOCK:   -1.66 KCAL/MOL
REMARK 927      BINDING AFFINITY PREDICTED BY RF-SCORE:    0.00 PKD
ROOT
HETATM    1  O   UNL     1      -7.813   7.460  64.841  1.00  0.00    -0.112 OA 
HETATM    2  C   UNL     1      -8.530   7.231  65.840  1.00  0.00    -0.144 C  
HETATM    3  CA  UNL     1      -8.749   8.431  66.863  1.00  0.00    -0.130 C  
HETATM    4  OXT UNL     1      -9.114   6.153  66.174  1.00  0.00    -0.154 OA 
HETATM    5  C   UNL     1      -9.754   8.372  67.773  1.00  0.00    -0.199 C  
HETATM    6  C   UNL     1     -10.109   9.447  68.767  1.00  0.00    -0.193 C  
HETATM    7  CA  UNL     1      -7.414  11.552  66.823  1.00  0.00    -0.118 C  
HETATM    8  S   UNL     1      -9.018  10.830  69.046  1.00  0.00    -0.086 SA 
HETATM    9  N   UNL     1      -8.011   9.577  66.793  1.00  0.00    -0.108 N  
HETATM   10  O   UNL     1      -7.315  10.294  64.620  1.00  0.00    -0.138 OA 
HETATM   11  C   UNL     1      -7.694  10.450  67.894  1.00  0.00    -0.089 C  
HETATM   12  C   UNL     1      -7.459  10.347  65.817  1.00  0.00    -0.147 C  
ENDROOT
BRANCH   5  13
HETATM   13  C   UNL     1     -10.741   7.221  67.851  1.00  0.00    -0.172 C  
BRANCH  13  14
HETATM   14  N   UNL     1     -10.845   6.507  69.160  1.00  0.00    -0.272 NA 
HETATM   15  C   UNL     1     -11.677   6.327  71.390  1.00  0.00    -0.316 A  
HETATM   16  C   UNL     1     -10.654   5.444  71.712  1.00  0.00    -0.286 A  
HETATM   17  C   UNL     1     -11.764   6.840  70.096  1.00  0.00    -0.313 A  
HETATM   18  C   UNL     1      -9.903   5.575  69.439  1.00  0.00    -0.177 A  
HETATM   19  C   UNL     1      -9.772   5.046  70.719  1.00  0.00    -0.263 A  
ENDBRANCH  13  14
ENDBRANCH   5  13
BRANCH   7  20
HETATM   20  N   UNL     1      -8.460  12.618  66.558  1.00  0.00    -0.414 N  
HETATM   21  H   UNL     1      -9.300  12.366  66.037  1.00  0.00     0.000 HD 
HETATM   22  O   UNL     1      -7.306  14.395  67.517  1.00  0.00    -0.173 OA 
HETATM   23  C   UNL     1      -8.313  13.922  67.000  1.00  0.00    -0.092 C  
BRANCH  23  24
HETATM   24  C   UNL     1      -9.486  14.866  66.864  1.00  0.00    -0.237 C  
BRANCH  24  25
HETATM   25  N   UNL     1      -9.573  16.067  67.364  1.00  0.00    -0.224 NA 
HETATM   26  H   UNL     1      -9.595  16.232  68.370  1.00  0.00     0.000 HD 
BRANCH  25  27
HETATM   27  O   UNL     1      -9.634  17.117  66.440  1.00  0.00    -0.261 OA 
HETATM   28  C   UNL     1      -9.641  19.480  66.087  1.00  0.00    -0.431 C  
HETATM   29  C   UNL     1      -7.809  18.387  67.392  1.00  0.00    -0.237 C  
HETATM   30  O   UNL     1     -10.446  17.614  69.136  1.00  0.00    -0.331 OA 
HETATM   31  O   UNL     1     -10.316  19.828  68.801  1.00  0.00    -0.415 OA 
HETATM   32  C   UNL     1      -9.315  18.365  67.095  1.00  0.00    -0.271 C  
HETATM   33  C   UNL     1     -10.082  18.694  68.405  1.00  0.00    -0.383 C  
ENDBRANCH  25  27
ENDBRANCH  24  25
BRANCH  24  34
HETATM   34  C   UNL     1     -10.701  14.379  66.202  1.00  0.00    -0.304 A  
HETATM   35  H2  UNL     1     -13.183  13.333  62.898  1.00  0.00     0.000 HD 
HETATM   36  C   UNL     1     -11.928  14.200  66.815  1.00  0.00    -0.447 A  
HETATM   37  S   UNL     1     -13.102  13.732  65.661  1.00  0.00     0.163 SA 
HETATM   38  H1  UNL     1     -11.513  13.608  62.413  1.00  0.00     0.000 HD 
HETATM   39  N   UNL     1     -12.221  13.564  63.146  1.00  0.00    -0.595 NA 
HETATM   40  N   UNL     1     -10.705  14.111  64.831  1.00  0.00    -0.407 NA 
HETATM   41  C   UNL     1     -11.911  13.806  64.429  1.00  0.00    -0.445 A  
ENDBRANCH  24  34
ENDBRANCH  23  24
ENDBRANCH   7  20
TORSDOF 7
ENDMDL
MODEL       52
REMARK 921   NORMALIZED FREE ENERGY PREDICTED BY IDOCK:   -6.38 KCAL/MOL
REMARK 922        TOTAL FREE ENERGY PREDICTED BY IDOCK:  -10.53 KCAL/MOL
REMARK 923 INTER-LIGAND FREE ENERGY PREDICTED BY IDOCK:   -9.55 KCAL/MOL
REMARK 924 INTRA-LIGAND FREE ENERGY PREDICTED BY IDOCK:   -0.97 KCAL/MOL
REMARK 927      BINDING AFFINITY PREDICTED BY RF-SCORE:    0.00 PKD
ROOT
HETATM    1  O   UNL     1      -5.898  15.707  69.425  1.00  0.00    -0.109 OA 
HETATM    2  C   UNL     1      -6.965  16.282  69.116  1.00  0.00    -0.206 C  
HETATM    3  CA  UNL     1      -8.153  15.364  68.587  1.00  0.00    -0.156 C  
HETATM    4  OXT UNL     1      -7.244  17.521  69.151  1.00  0.00    -0.238 OA 
HETATM    5  C   UNL     1      -9.420  15.849  68.546  1.00  0.00    -0.209 C  
HETATM    6  C   UNL     1     -10.645  15.086  68.117  1.00  0.00    -0.248 C  
HETATM    7  CA  UNL     1      -8.186  12.018  68.015  1.00  0.00    -0.156 C  
HETATM    8  S   UNL     1     -10.499  13.499  67.315  1.00  0.00    -0.248 SA 
HETATM    9  N   UNL     1      -7.956  14.054  68.258  1.00  0.00    -0.137 N  
HETATM   10  O   UNL     1      -6.311  12.852  69.509  1.00  0.00    -0.112 OA 
HETATM   11  C   UNL     1      -8.715  13.298  67.293  1.00  0.00    -0.214 C  
HETATM   12  C   UNL     1      -7.192  13.020  68.702  1.00  0.00    -0.101 C  
ENDROOT
BRANCH   5  13
HETATM   13  C   UNL     1      -9.795  17.239  69.031  1.00  0.00    -0.237 C  
BRANCH  13  14
HETATM   14  N   UNL     1     -10.089  18.263  67.983  1.00  0.00    -0.345 NA 
HETATM   15  C   UNL     1     -10.594  18.875  65.731  1.00  0.00    -0.358 A  
HETATM   16  C   UNL     1     -10.159  20.171  65.975  1.00  0.00    -0.497 A  
HETATM   17  C   UNL     1     -10.564  17.933  66.759  1.00  0.00    -0.247 A  
HETATM   18  C   UNL     1      -9.754  19.547  68.254  1.00  0.00    -0.404 A  
HETATM   19  C   UNL     1      -9.758  20.516  67.256  1.00  0.00    -0.600 A  
ENDBRANCH  13  14
ENDBRANCH   5  13
BRANCH   7  20
HETATM   20  N   UNL     1      -9.090  11.280  68.985  1.00  0.00    -0.389 N  
HETATM   21  H   UNL     1      -9.108  11.573  69.962  1.00  0.00     0.000 HD 
HETATM   22  O   UNL     1      -9.873   9.682  67.487  1.00  0.00    -0.156 OA 
HETATM   23  C   UNL     1      -9.892  10.224  68.589  1.00  0.00    -0.173 C  
BRANCH  23  24
HETATM   24  C   UNL     1     -10.902   9.676  69.572  1.00  0.00    -0.231 C  
BRANCH  24  25
HETATM   25  N   UNL     1     -11.154   8.417  69.800  1.00  0.00    -0.433 NA 
HETATM   26  H   UNL     1     -11.765   7.871  69.194  1.00  0.00     0.000 HD 
BRANCH  25  27
HETATM   27  O   UNL     1     -10.536   7.859  70.926  1.00  0.00    -0.210 OA 
HETATM   28  C   UNL     1      -9.307   6.023  71.835  1.00  0.00    -0.160 C  
HETATM   29  C   UNL     1      -8.497   7.219  69.793  1.00  0.00    -0.136 C  
HETATM   30  O   UNL     1     -11.404   6.117  68.833  1.00  0.00    -0.367 OA 
HETATM   31  O   UNL     1     -10.135   4.454  69.646  1.00  0.00    -0.202 OA 
HETATM   32  C   UNL     1      -9.744   6.715  70.533  1.00  0.00    -0.176 C  
HETATM   33  C   UNL     1     -10.440   5.640  69.655  1.00  0.00    -0.304 C  
ENDBRANCH  25  27
ENDBRANCH  24  25
BRANCH  24  34
HETATM   34  C   UNL     1     -11.773  10.622  70.276  1.00  0.00    -0.344 A  
HETATM   35  H2  UNL     1     -13.217  14.458  71.448  1.00  0.00     0.000 HD 
HETATM   36  C   UNL     1     -12.637  10.297  71.307  1.00  0.00    -0.418 A  
HETATM   37  S   UNL     1     -13.377  11.711  71.925  1.00  0.00    -0.114 SA 
HETATM   38  H1  UNL     1     -12.082  14.557  70.105  1.00  0.00     0.000 HD 
HETATM   39  N   UNL     1     -12.604  13.994  70.777  1.00  0.00    -0.349 NA 
HETATM   40  N   UNL     1     -11.736  11.985  69.973  1.00  0.00    -0.300 NA 
HETATM   41  C   UNL     1     -12.500  12.657  70.795  1.00  0.00    -0.270 A  
ENDBRANCH  24  34
ENDBRANCH  23  24
ENDBRANCH   7  20
TORSDOF 7
ENDMDL
MODEL       53
REMARK 921   NORMALIZED FREE ENERGY PREDICTED BY IDOCK:   -6.36 KCAL/MOL
REMARK 922        TOTAL FREE ENERGY PREDICTED BY IDOCK:  -10.51 KCAL/MOL
REMARK 923 INTER-LIGAND FREE ENERGY PREDICTED BY IDOCK:   -8.66 KCAL/MOL
REMARK 924 INTRA-LIGAND FREE ENERGY PREDICTED BY IDOCK:   -1.84 KCAL/MOL
REMARK 927      BINDING AFFINITY PREDICTED BY RF-SCORE:    0.00 PKD
ROOT
HETATM    1  O   UNL     1     -10.649   7.672  67.627  1.00  0.00    -0.241 OA 
HETATM    2  C   UNL     1      -9.490   7.667  68.099  1.00  0.00    -0.145 C  
HETATM    3  CA  UNL     1      -8.691   9.044  68.066  1.00  0.00    -0.129 C  
HETATM    4  OXT UNL     1      -8.836   6.701  68.601  1.00  0.00    -0.124 OA 
HETATM    5  C   UNL     1      -7.586   9.206  68.836  1.00  0.00    -0.076 C  
HETATM    6  C   UNL     1      -6.760  10.461  68.943  1.00  0.00    -0.058 C  
HETATM    7  CA  UNL     1      -9.620  12.030  66.744  1.00  0.00    -0.208 C  
HETATM    8  S   UNL     1      -7.001  11.813  67.803  1.00  0.00    -0.104 SA 
HETATM    9  N   UNL     1      -9.141  10.117  67.352  1.00  0.00    -0.137 N  
HETATM   10  O   UNL     1     -11.510  10.387  67.166  1.00  0.00    -0.250 OA 
HETATM   11  C   UNL     1      -8.324  11.159  66.782  1.00  0.00    -0.152 C  
HETATM   12  C   UNL     1     -10.343  10.665  67.030  1.00  0.00    -0.231 C  
ENDROOT
BRANCH   5  13
HETATM   13  C   UNL     1      -7.073   8.142  69.790  1.00  0.00    -0.060 C  
BRANCH  13  14
HETATM   14  N   UNL     1      -7.468   8.276  71.226  1.00  0.00    -0.073 NA 
HETATM   15  C   UNL     1      -7.017   8.029  73.557  1.00  0.00    -0.145 A  
HETATM   16  C   UNL     1      -8.376   8.079  73.836  1.00  0.00    -0.319 A  
HETATM   17  C   UNL     1      -6.578   8.144  72.238  1.00  0.00    -0.075 A  
HETATM   18  C   UNL     1      -8.787   8.421  71.499  1.00  0.00    -0.185 A  
HETATM   19  C   UNL     1      -9.268   8.301  72.799  1.00  0.00    -0.336 A  
ENDBRANCH  13  14
ENDBRANCH   5  13
BRANCH   7  20
HETATM   20  N   UNL     1      -9.843  13.084  67.813  1.00  0.00    -0.218 N  
HETATM   21  H   UNL     1      -9.157  13.179  68.562  1.00  0.00     0.000 HD 
HETATM   22  O   UNL     1     -11.910  13.830  67.051  1.00  0.00    -0.365 OA 
HETATM   23  C   UNL     1     -10.946  13.920  67.805  1.00  0.00    -0.256 C  
BRANCH  23  24
HETATM   24  C   UNL     1     -10.990  15.065  68.791  1.00  0.00    -0.255 C  
BRANCH  24  25
HETATM   25  N   UNL     1     -10.319  16.180  68.710  1.00  0.00    -0.235 NA 
HETATM   26  H   UNL     1     -10.403  16.913  69.416  1.00  0.00     0.000 HD 
BRANCH  25  27
HETATM   27  O   UNL     1      -9.478  16.315  67.600  1.00  0.00    -0.219 OA 
HETATM   28  C   UNL     1      -7.827  17.632  66.482  1.00  0.00    -0.307 C  
HETATM   29  C   UNL     1      -7.507  16.928  68.860  1.00  0.00    -0.238 C  
HETATM   30  O   UNL     1     -10.252  18.668  69.026  1.00  0.00    -0.347 OA 
HETATM   31  O   UNL     1      -8.607  19.840  68.050  1.00  0.00    -0.306 OA 
HETATM   32  C   UNL     1      -8.539  17.391  67.824  1.00  0.00    -0.227 C  
HETATM   33  C   UNL     1      -9.123  18.755  68.283  1.00  0.00    -0.324 C  
ENDBRANCH  25  27
ENDBRANCH  24  25
BRANCH  24  34
HETATM   34  C   UNL     1     -11.770  14.897  70.022  1.00  0.00    -0.294 A  
HETATM   35  H2  UNL     1     -14.073  12.776  72.915  1.00  0.00     0.000 HD 
HETATM   36  C   UNL     1     -12.264  15.928  70.802  1.00  0.00    -0.333 A  
HETATM   37  S   UNL     1     -13.214  15.299  72.079  1.00  0.00    -0.449 SA 
HETATM   38  H1  UNL     1     -13.287  11.695  71.769  1.00  0.00     0.000 HD 
HETATM   39  N   UNL     1     -13.465  12.640  72.107  1.00  0.00    -0.531 NA 
HETATM   40  N   UNL     1     -12.127  13.623  70.469  1.00  0.00    -0.349 NA 
HETATM   41  C   UNL     1     -12.915  13.708  71.510  1.00  0.00    -0.360 A  
ENDBRANCH  24  34
ENDBRANCH  23  24
ENDBRANCH   7  20
TORSDOF 7
ENDMDL
MODEL       54
REMARK 921   NORMALIZED FREE ENERGY PREDICTED BY IDOCK:   -6.36 KCAL/MOL
REMARK 922        TOTAL FREE ENERGY PREDICTED BY IDOCK:  -10.50 KCAL/MOL
REMARK 923 INTER-LIGAND FREE ENERGY PREDICTED BY IDOCK:   -8.42 KCAL/MOL
REMARK 924 INTRA-LIGAND FREE ENERGY PREDICTED BY IDOCK:   -2.07 KCAL/MOL
REMARK 927      BINDING AFFINITY PREDICTED BY RF-SCORE:    0.00 PKD
ROOT
HETATM    1  O   UNL     1      -7.131   6.661  72.896  1.00  0.00    -0.076 OA 
HETATM    2  C   UNL     1      -7.878   5.777  72.420  1.00  0.00    -0.103 C  
HETATM    3  CA  UNL     1      -9.109   6.269  71.540  1.00  0.00    -0.145 C  
HETATM    4  OXT UNL     1      -7.804   4.516  72.549  1.00  0.00    -0.083 OA 
HETATM    5  C   UNL     1      -9.759   5.393  70.732  1.00  0.00    -0.239 C  
HETATM    6  C   UNL     1     -10.905   5.723  69.812  1.00  0.00    -0.349 C  
HETATM    7  CA  UNL     1     -10.131   9.435  70.861  1.00  0.00    -0.296 C  
HETATM    8  S   UNL     1     -11.736   7.299  69.917  1.00  0.00     0.188 SA 
HETATM    9  N   UNL     1      -9.480   7.582  71.496  1.00  0.00    -0.150 N  
HETATM   10  O   UNL     1      -7.743   9.213  71.695  1.00  0.00    -0.338 OA 
HETATM   11  C   UNL     1     -10.809   8.080  71.241  1.00  0.00    -0.232 C  
HETATM   12  C   UNL     1      -8.862   8.793  71.527  1.00  0.00    -0.225 C  
ENDROOT
BRANCH   5  13
HETATM   13  C   UNL     1      -9.345   3.941  70.575  1.00  0.00    -0.154 C  
BRANCH  13  14
HETATM   14  N   UNL     1      -8.719   3.554  69.274  1.00  0.00    -0.077 NA 
HETATM   15  C   UNL     1      -8.626   2.197  67.312  1.00  0.00    -0.119 A  
HETATM   16  C   UNL     1      -7.293   2.537  67.127  1.00  0.00    -0.057 A  
HETATM   17  C   UNL     1      -9.331   2.730  68.391  1.00  0.00    -0.192 A  
HETATM   18  C   UNL     1      -7.448   3.965  69.046  1.00  0.00    -0.054 A  
HETATM   19  C   UNL     1      -6.705   3.449  67.990  1.00  0.00    -0.045 A  
ENDBRANCH  13  14
ENDBRANCH   5  13
BRANCH   7  20
HETATM   20  N   UNL     1      -9.947   9.794  69.398  1.00  0.00    -0.192 N  
HETATM   21  H   UNL     1      -9.118   9.456  68.908  1.00  0.00     0.000 HD 
HETATM   22  O   UNL     1     -11.830  11.145  69.197  1.00  0.00    -0.303 OA 
HETATM   23  C   UNL     1     -10.866  10.565  68.707  1.00  0.00    -0.231 C  
BRANCH  23  24
HETATM   24  C   UNL     1     -10.705  10.710  67.211  1.00  0.00    -0.285 C  
BRANCH  24  25
HETATM   25  N   UNL     1     -11.244  11.630  66.461  1.00  0.00    -0.312 NA 
HETATM   26  H   UNL     1     -12.182  11.528  66.073  1.00  0.00     0.000 HD 
BRANCH  25  27
HETATM   27  O   UNL     1     -10.462  12.766  66.220  1.00  0.00    -0.251 OA 
HETATM   28  C   UNL     1     -10.399  15.039  65.487  1.00  0.00    -0.397 C  
HETATM   29  C   UNL     1     -11.952  14.326  67.313  1.00  0.00    -0.439 C  
HETATM   30  O   UNL     1     -12.938  12.483  64.819  1.00  0.00    -0.827 OA 
HETATM   31  O   UNL     1     -12.906  14.656  64.259  1.00  0.00    -0.621 OA 
HETATM   32  C   UNL     1     -11.316  13.907  65.981  1.00  0.00    -0.324 C  
HETATM   33  C   UNL     1     -12.443  13.739  64.926  1.00  0.00    -0.386 C  
ENDBRANCH  25  27
ENDBRANCH  24  25
BRANCH  24  34
HETATM   34  C   UNL     1      -9.964   9.673  66.485  1.00  0.00    -0.246 A  
HETATM   35  H2  UNL     1      -8.446   5.756  65.759  1.00  0.00     0.000 HD 
HETATM   36  C   UNL     1      -9.060   9.904  65.462  1.00  0.00    -0.189 A  
HETATM   37  S   UNL     1      -8.335   8.433  64.972  1.00  0.00    -0.136 SA 
HETATM   38  H1  UNL     1      -9.663   5.772  67.032  1.00  0.00     0.000 HD 
HETATM   39  N   UNL     1      -9.115   6.271  66.332  1.00  0.00    -0.151 NA 
HETATM   40  N   UNL     1     -10.088   8.328  66.841  1.00  0.00    -0.270 NA 
HETATM   41  C   UNL     1      -9.256   7.593  66.150  1.00  0.00    -0.116 A  
ENDBRANCH  24  34
ENDBRANCH  23  24
ENDBRANCH   7  20
TORSDOF 7
ENDMDL
MODEL       55
REMARK 921   NORMALIZED FREE ENERGY PREDICTED BY IDOCK:   -6.35 KCAL/MOL
REMARK 922        TOTAL FREE ENERGY PREDICTED BY IDOCK:  -10.49 KCAL/MOL
REMARK 923 INTER-LIGAND FREE ENERGY PREDICTED BY IDOCK:   -8.76 KCAL/MOL
REMARK 924 INTRA-LIGAND FREE ENERGY PREDICTED BY IDOCK:   -1.73 KCAL/MOL
REMARK 927      BINDING AFFINITY PREDICTED BY RF-SCORE:    0.00 PKD
ROOT
HETATM    1  O   UNL     1      -5.734   8.867  65.559  1.00  0.00    -0.046 OA 
HETATM    2  C   UNL     1      -6.433   7.832  65.629  1.00  0.00    -0.042 C  
HETATM    3  CA  UNL     1      -7.632   7.839  66.675  1.00  0.00    -0.097 C  
HETATM    4  OXT UNL     1      -6.317   6.746  64.980  1.00  0.00    -0.037 OA 
HETATM    5  C   UNL     1      -8.618   6.912  66.584  1.00  0.00    -0.124 C  
HETATM    6  C   UNL     1      -9.834   6.824  67.469  1.00  0.00    -0.132 C  
HETATM    7  CA  UNL     1      -8.514  10.239  68.908  1.00  0.00    -0.138 C  
HETATM    8  S   UNL     1      -9.949   7.795  68.961  1.00  0.00    -0.187 SA 
HETATM    9  N   UNL     1      -7.756   8.819  67.617  1.00  0.00    -0.101 N  
HETATM   10  O   UNL     1      -7.004  11.009  67.018  1.00  0.00    -0.101 OA 
HETATM   11  C   UNL     1      -8.389   8.683  68.905  1.00  0.00    -0.124 C  
HETATM   12  C   UNL     1      -7.511  10.154  67.703  1.00  0.00    -0.090 C  
ENDROOT
BRANCH   5  13
HETATM   13  C   UNL     1      -8.677   5.864  65.486  1.00  0.00    -0.129 C  
BRANCH  13  14
HETATM   14  N   UNL     1      -8.578   4.434  65.911  1.00  0.00    -0.113 NA 
HETATM   15  C   UNL     1      -7.417   2.636  66.968  1.00  0.00    -0.069 A  
HETATM   16  C   UNL     1      -8.188   1.715  66.270  1.00  0.00    -0.084 A  
HETATM   17  C   UNL     1      -7.638   4.001  66.783  1.00  0.00    -0.088 A  
HETATM   18  C   UNL     1      -9.396   3.544  65.300  1.00  0.00    -0.157 A  
HETATM   19  C   UNL     1      -9.204   2.174  65.447  1.00  0.00    -0.051 A  
ENDBRANCH  13  14
ENDBRANCH   5  13
BRANCH   7  20
HETATM   20  N   UNL     1      -9.845  10.882  68.562  1.00  0.00    -0.177 N  
HETATM   21  H   UNL     1     -10.650  10.282  68.381  1.00  0.00     0.000 HD 
HETATM   22  O   UNL     1      -9.101  13.086  68.543  1.00  0.00    -0.157 OA 
HETATM   23  C   UNL     1     -10.002  12.255  68.483  1.00  0.00    -0.170 C  
BRANCH  23  24
HETATM   24  C   UNL     1     -11.398  12.813  68.325  1.00  0.00    -0.296 C  
BRANCH  24  25
HETATM   25  N   UNL     1     -12.114  12.809  67.235  1.00  0.00    -0.417 NA 
HETATM   26  H   UNL     1     -12.916  13.428  67.114  1.00  0.00     0.000 HD 
BRANCH  25  27
HETATM   27  O   UNL     1     -11.719  11.906  66.241  1.00  0.00    -0.506 OA 
HETATM   28  C   UNL     1     -11.261  11.548  63.924  1.00  0.00    -0.439 C  
HETATM   29  C   UNL     1     -10.128  13.389  65.183  1.00  0.00    -0.266 C  
HETATM   30  O   UNL     1     -13.268  14.186  65.485  1.00  0.00    -0.688 OA 
HETATM   31  O   UNL     1     -12.710  13.891  63.332  1.00  0.00    -0.806 OA 
HETATM   32  C   UNL     1     -11.444  12.618  65.014  1.00  0.00    -0.329 C  
HETATM   33  C   UNL     1     -12.533  13.603  64.509  1.00  0.00    -0.287 C  
ENDBRANCH  25  27
ENDBRANCH  24  25
BRANCH  24  34
HETATM   34  C   UNL     1     -11.995  13.529  69.458  1.00  0.00    -0.334 A  
HETATM   35  H2  UNL     1     -14.156  13.930  73.111  1.00  0.00     0.000 HD 
HETATM   36  C   UNL     1     -12.177  14.899  69.531  1.00  0.00    -0.233 A  
HETATM   37  S   UNL     1     -13.013  15.308  70.967  1.00  0.00    -0.477 SA 
HETATM   38  H1  UNL     1     -13.755  12.252  72.756  1.00  0.00     0.000 HD 
HETATM   39  N   UNL     1     -13.713  13.239  72.504  1.00  0.00    -0.695 NA 
HETATM   40  N   UNL     1     -12.494  12.829  70.558  1.00  0.00    -0.253 NA 
HETATM   41  C   UNL     1     -13.085  13.647  71.391  1.00  0.00    -0.319 A  
ENDBRANCH  24  34
ENDBRANCH  23  24
ENDBRANCH   7  20
TORSDOF 7
ENDMDL
MODEL       56
REMARK 921   NORMALIZED FREE ENERGY PREDICTED BY IDOCK:   -6.35 KCAL/MOL
REMARK 922        TOTAL FREE ENERGY PREDICTED BY IDOCK:  -10.48 KCAL/MOL
REMARK 923 INTER-LIGAND FREE ENERGY PREDICTED BY IDOCK:   -8.70 KCAL/MOL
REMARK 924 INTRA-LIGAND FREE ENERGY PREDICTED BY IDOCK:   -1.79 KCAL/MOL
REMARK 927      BINDING AFFINITY PREDICTED BY RF-SCORE:    0.00 PKD
ROOT
HETATM    1  O   UNL     1      -8.805   6.862  66.159  1.00  0.00    -0.147 OA 
HETATM    2  C   UNL     1      -8.748   6.870  67.409  1.00  0.00    -0.119 C  
HETATM    3  CA  UNL     1      -8.154   8.177  68.096  1.00  0.00    -0.128 C  
HETATM    4  OXT UNL     1      -9.092   5.964  68.230  1.00  0.00    -0.119 OA 
HETATM    5  C   UNL     1      -8.358   8.401  69.419  1.00  0.00    -0.120 C  
HETATM    6  C   UNL     1      -7.899   9.609  70.192  1.00  0.00    -0.174 C  
HETATM    7  CA  UNL     1      -6.846  10.955  66.648  1.00  0.00    -0.127 C  
HETATM    8  S   UNL     1      -6.748  10.769  69.475  1.00  0.00    -0.122 SA 
HETATM    9  N   UNL     1      -7.518   9.143  67.371  1.00  0.00    -0.084 N  
HETATM   10  O   UNL     1      -8.284   9.509  65.136  1.00  0.00    -0.122 OA 
HETATM   11  C   UNL     1      -6.493  10.032  67.858  1.00  0.00    -0.059 C  
HETATM   12  C   UNL     1      -7.633   9.697  66.135  1.00  0.00    -0.102 C  
ENDROOT
BRANCH   5  13
HETATM   13  C   UNL     1      -9.181   7.480  70.302  1.00  0.00    -0.157 C  
BRANCH  13  14
HETATM   14  N   UNL     1     -10.577   7.915  70.617  1.00  0.00    -0.215 NA 
HETATM   15  C   UNL     1     -12.155   9.579  71.281  1.00  0.00    -0.443 A  
HETATM   16  C   UNL     1     -13.057   8.590  71.652  1.00  0.00    -0.368 A  
HETATM   17  C   UNL     1     -10.916   9.219  70.750  1.00  0.00    -0.284 A  
HETATM   18  C   UNL     1     -11.486   6.948  70.886  1.00  0.00    -0.323 A  
HETATM   19  C   UNL     1     -12.728   7.262  71.429  1.00  0.00    -0.427 A  
ENDBRANCH  13  14
ENDBRANCH   5  13
BRANCH   7  20
HETATM   20  N   UNL     1      -7.715  12.180  66.872  1.00  0.00    -0.340 N  
HETATM   21  H   UNL     1      -8.716  12.114  66.688  1.00  0.00     0.000 HD 
HETATM   22  O   UNL     1      -6.001  13.643  67.451  1.00  0.00    -0.346 OA 
HETATM   23  C   UNL     1      -7.193  13.382  67.318  1.00  0.00    -0.006 C  
BRANCH  23  24
HETATM   24  C   UNL     1      -8.152  14.487  67.700  1.00  0.00    -0.179 C  
BRANCH  24  25
HETATM   25  N   UNL     1      -9.400  14.341  68.047  1.00  0.00    -0.194 NA 
HETATM   26  H   UNL     1      -9.677  14.194  69.018  1.00  0.00     0.000 HD 
BRANCH  25  27
HETATM   27  O   UNL     1     -10.339  14.397  67.010  1.00  0.00    -0.260 OA 
HETATM   28  C   UNL     1     -12.410  13.589  66.134  1.00  0.00    -0.463 C  
HETATM   29  C   UNL     1     -12.281  14.535  68.446  1.00  0.00    -0.154 C  
HETATM   30  O   UNL     1     -10.206  12.034  68.613  1.00  0.00    -0.214 OA 
HETATM   31  O   UNL     1     -12.214  11.372  67.863  1.00  0.00    -0.592 OA 
HETATM   32  C   UNL     1     -11.540  13.692  67.398  1.00  0.00    -0.356 C  
HETATM   33  C   UNL     1     -11.368  12.252  67.954  1.00  0.00    -0.298 C  
ENDBRANCH  25  27
ENDBRANCH  24  25
BRANCH  24  34
HETATM   34  C   UNL     1      -7.700  15.877  67.577  1.00  0.00    -0.159 A  
HETATM   35  H2  UNL     1      -6.474  19.408  65.528  1.00  0.00     0.000 HD 
HETATM   36  C   UNL     1      -7.221  16.656  68.616  1.00  0.00    -0.192 A  
HETATM   37  S   UNL     1      -6.692  18.171  68.022  1.00  0.00    -0.209 SA 
HETATM   38  H1  UNL     1      -7.161  18.210  64.435  1.00  0.00     0.000 HD 
HETATM   39  N   UNL     1      -6.904  18.495  65.380  1.00  0.00    -0.526 NA 
HETATM   40  N   UNL     1      -7.668  16.507  66.332  1.00  0.00    -0.291 NA 
HETATM   41  C   UNL     1      -7.123  17.692  66.433  1.00  0.00    -0.275 A  
ENDBRANCH  24  34
ENDBRANCH  23  24
ENDBRANCH   7  20
TORSDOF 7
ENDMDL
MODEL       57
REMARK 921   NORMALIZED FREE ENERGY PREDICTED BY IDOCK:   -6.27 KCAL/MOL
REMARK 922        TOTAL FREE ENERGY PREDICTED BY IDOCK:  -10.38 KCAL/MOL
REMARK 923 INTER-LIGAND FREE ENERGY PREDICTED BY IDOCK:   -9.04 KCAL/MOL
REMARK 924 INTRA-LIGAND FREE ENERGY PREDICTED BY IDOCK:   -1.33 KCAL/MOL
REMARK 927      BINDING AFFINITY PREDICTED BY RF-SCORE:    0.00 PKD
ROOT
HETATM    1  O   UNL     1     -10.701   6.482  66.473  1.00  0.00    -0.184 OA 
HETATM    2  C   UNL     1     -10.600   6.104  67.661  1.00  0.00    -0.270 C  
HETATM    3  CA  UNL     1     -10.030   7.158  68.708  1.00  0.00    -0.163 C  
HETATM    4  OXT UNL     1     -10.881   4.972  68.166  1.00  0.00     0.162 OA 
HETATM    5  C   UNL     1     -10.194   6.950  70.039  1.00  0.00    -0.211 C  
HETATM    6  C   UNL     1      -9.751   7.879  71.140  1.00  0.00    -0.158 C  
HETATM    7  CA  UNL     1      -8.877  10.306  68.170  1.00  0.00    -0.123 C  
HETATM    8  S   UNL     1      -8.671   9.255  70.794  1.00  0.00    -0.168 SA 
HETATM    9  N   UNL     1      -9.456   8.330  68.307  1.00  0.00    -0.138 N  
HETATM   10  O   UNL     1     -10.315   9.337  66.315  1.00  0.00    -0.240 OA 
HETATM   11  C   UNL     1      -8.447   9.070  69.023  1.00  0.00    -0.132 C  
HETATM   12  C   UNL     1      -9.636   9.235  67.308  1.00  0.00    -0.155 C  
ENDROOT
BRANCH   5  13
HETATM   13  C   UNL     1     -10.951   5.764  70.609  1.00  0.00    -0.249 C  
BRANCH  13  14
HETATM   14  N   UNL     1     -10.321   5.053  71.764  1.00  0.00    -0.209 NA 
HETATM   15  C   UNL     1      -8.760   3.488  72.666  1.00  0.00    -0.095 A  
HETATM   16  C   UNL     1      -9.501   3.408  73.837  1.00  0.00    -0.119 A  
HETATM   17  C   UNL     1      -9.182   4.332  71.639  1.00  0.00    -0.132 A  
HETATM   18  C   UNL     1     -10.996   5.053  72.939  1.00  0.00    -0.277 A  
HETATM   19  C   UNL     1     -10.617   4.217  73.984  1.00  0.00    -0.303 A  
ENDBRANCH  13  14
ENDBRANCH   5  13
BRANCH   7  20
HETATM   20  N   UNL     1      -9.782  11.359  68.785  1.00  0.00    -0.321 N  
HETATM   21  H   UNL     1      -9.906  11.371  69.797  1.00  0.00     0.000 HD 
HETATM   22  O   UNL     1     -10.492  12.324  66.791  1.00  0.00    -0.216 OA 
HETATM   23  C   UNL     1     -10.442  12.302  68.017  1.00  0.00    -0.218 C  
BRANCH  23  24
HETATM   24  C   UNL     1     -11.163  13.429  68.722  1.00  0.00    -0.275 C  
BRANCH  24  25
HETATM   25  N   UNL     1     -11.127  14.692  68.397  1.00  0.00    -0.248 NA 
HETATM   26  H   UNL     1     -11.973  15.261  68.354  1.00  0.00     0.000 HD 
BRANCH  25  27
HETATM   27  O   UNL     1      -9.863  15.220  68.112  1.00  0.00    -0.214 OA 
HETATM   28  C   UNL     1      -8.549  16.621  66.691  1.00  0.00    -0.293 C  
HETATM   29  C   UNL     1     -10.615  17.497  67.795  1.00  0.00    -0.375 C  
HETATM   30  O   UNL     1     -11.784  15.045  66.002  1.00  0.00    -0.245 OA 
HETATM   31  O   UNL     1     -10.584  16.467  64.748  1.00  0.00    -0.676 OA 
HETATM   32  C   UNL     1      -9.982  16.270  67.125  1.00  0.00    -0.257 C  
HETATM   33  C   UNL     1     -10.783  15.942  65.836  1.00  0.00    -0.296 C  
ENDBRANCH  25  27
ENDBRANCH  24  25
BRANCH  24  34
HETATM   34  C   UNL     1     -11.896  13.125  69.955  1.00  0.00    -0.290 A  
HETATM   35  H2  UNL     1     -13.920  10.649  72.774  1.00  0.00     0.000 HD 
HETATM   36  C   UNL     1     -12.471  14.063  70.795  1.00  0.00    -0.372 A  
HETATM   37  S   UNL     1     -13.328  13.282  72.053  1.00  0.00    -0.476 SA 
HETATM   38  H1  UNL     1     -13.058   9.708  71.561  1.00  0.00     0.000 HD 
HETATM   39  N   UNL     1     -13.319  10.614  71.950  1.00  0.00    -0.405 NA 
HETATM   40  N   UNL     1     -12.118  11.802  70.343  1.00  0.00    -0.365 NA 
HETATM   41  C   UNL     1     -12.888  11.759  71.399  1.00  0.00    -0.335 A  
ENDBRANCH  24  34
ENDBRANCH  23  24
ENDBRANCH   7  20
TORSDOF 7
ENDMDL
MODEL       58
REMARK 921   NORMALIZED FREE ENERGY PREDICTED BY IDOCK:   -6.26 KCAL/MOL
REMARK 922        TOTAL FREE ENERGY PREDICTED BY IDOCK:  -10.36 KCAL/MOL
REMARK 923 INTER-LIGAND FREE ENERGY PREDICTED BY IDOCK:   -8.70 KCAL/MOL
REMARK 924 INTRA-LIGAND FREE ENERGY PREDICTED BY IDOCK:   -1.66 KCAL/MOL
REMARK 927      BINDING AFFINITY PREDICTED BY RF-SCORE:    0.00 PKD
ROOT
HETATM    1  O   UNL     1      -6.014   7.818  70.350  1.00  0.00    -0.030 OA 
HETATM    2  C   UNL     1      -6.103   7.774  69.103  1.00  0.00    -0.035 C  
HETATM    3  CA  UNL     1      -7.451   8.320  68.456  1.00  0.00    -0.095 C  
HETATM    4  OXT UNL     1      -5.262   7.336  68.257  1.00  0.00    -0.019 OA 
HETATM    5  C   UNL     1      -7.498   8.611  67.131  1.00  0.00    -0.088 C  
HETATM    6  C   UNL     1      -8.683   9.176  66.393  1.00  0.00    -0.130 C  
HETATM    7  CA  UNL     1     -10.249   9.479  69.988  1.00  0.00    -0.244 C  
HETATM    8  S   UNL     1     -10.290   9.249  67.164  1.00  0.00    -0.253 SA 
HETATM    9  N   UNL     1      -8.549   8.602  69.216  1.00  0.00    -0.130 N  
HETATM   10  O   UNL     1      -8.162   9.413  71.432  1.00  0.00    -0.302 OA 
HETATM   11  C   UNL     1      -9.921   8.551  68.776  1.00  0.00    -0.186 C  
HETATM   12  C   UNL     1      -8.800   9.098  70.457  1.00  0.00    -0.224 C  
ENDROOT
BRANCH   5  13
HETATM   13  C   UNL     1      -6.299   8.488  66.208  1.00  0.00    -0.057 C  
BRANCH  13  14
HETATM   14  N   UNL     1      -6.460   7.617  65.003  1.00  0.00    -0.038 NA 
HETATM   15  C   UNL     1      -6.695   7.319  62.647  1.00  0.00    -0.057 A  
HETATM   16  C   UNL     1      -7.229   6.054  62.849  1.00  0.00    -0.053 A  
HETATM   17  C   UNL     1      -6.301   8.086  63.744  1.00  0.00    -0.067 A  
HETATM   18  C   UNL     1      -6.890   6.348  65.204  1.00  0.00    -0.047 A  
HETATM   19  C   UNL     1      -7.304   5.554  64.140  1.00  0.00    -0.058 A  
ENDBRANCH  13  14
ENDBRANCH   5  13
BRANCH   7  20
HETATM   20  N   UNL     1     -10.455  10.965  69.757  1.00  0.00    -0.448 N  
HETATM   21  H   UNL     1      -9.639  11.555  69.588  1.00  0.00     0.000 HD 
HETATM   22  O   UNL     1     -12.757  10.990  70.087  1.00  0.00    -0.244 OA 
HETATM   23  C   UNL     1     -11.711  11.546  69.768  1.00  0.00    -0.353 C  
BRANCH  23  24
HETATM   24  C   UNL     1     -11.841  12.989  69.336  1.00  0.00    -0.322 C  
BRANCH  24  25
HETATM   25  N   UNL     1     -12.119  14.004  70.107  1.00  0.00    -0.330 NA 
HETATM   26  H   UNL     1     -12.248  14.945  69.734  1.00  0.00     0.000 HD 
BRANCH  25  27
HETATM   27  O   UNL     1     -12.231  13.728  71.474  1.00  0.00    -0.267 OA 
HETATM   28  C   UNL     1     -12.512  14.601  73.681  1.00  0.00    -0.374 C  
HETATM   29  C   UNL     1     -14.130  15.175  71.862  1.00  0.00    -0.649 C  
HETATM   30  O   UNL     1     -11.326  16.316  70.668  1.00  0.00    -0.386 OA 
HETATM   31  O   UNL     1     -11.725  17.131  72.721  1.00  0.00    -0.053 OA 
HETATM   32  C   UNL     1     -12.651  14.916  72.182  1.00  0.00    -0.327 C  
HETATM   33  C   UNL     1     -11.852  16.220  71.912  1.00  0.00    -0.462 C  
ENDBRANCH  25  27
ENDBRANCH  24  25
BRANCH  24  34
HETATM   34  C   UNL     1     -11.757  13.300  67.905  1.00  0.00    -0.357 A  
HETATM   35  H2  UNL     1     -11.527  12.434  63.738  1.00  0.00     0.000 HD 
HETATM   36  C   UNL     1     -11.456  14.542  67.374  1.00  0.00    -0.368 A  
HETATM   37  S   UNL     1     -11.346  14.443  65.669  1.00  0.00    -0.336 SA 
HETATM   38  H1  UNL     1     -11.927  11.008  64.692  1.00  0.00     0.000 HD 
HETATM   39  N   UNL     1     -11.719  12.006  64.644  1.00  0.00    -0.317 NA 
HETATM   40  N   UNL     1     -11.926  12.298  66.949  1.00  0.00    -0.593 NA 
HETATM   41  C   UNL     1     -11.694  12.766  65.749  1.00  0.00    -0.402 A  
ENDBRANCH  24  34
ENDBRANCH  23  24
ENDBRANCH   7  20
TORSDOF 7
ENDMDL
MODEL       59
REMARK 921   NORMALIZED FREE ENERGY PREDICTED BY IDOCK:   -6.25 KCAL/MOL
REMARK 922        TOTAL FREE ENERGY PREDICTED BY IDOCK:  -10.35 KCAL/MOL
REMARK 923 INTER-LIGAND FREE ENERGY PREDICTED BY IDOCK:   -9.29 KCAL/MOL
REMARK 924 INTRA-LIGAND FREE ENERGY PREDICTED BY IDOCK:   -1.06 KCAL/MOL
REMARK 927      BINDING AFFINITY PREDICTED BY RF-SCORE:    0.00 PKD
ROOT
HETATM    1  O   UNL     1      -5.181   9.718  66.554  1.00  0.00    -0.042 OA 
HETATM    2  C   UNL     1      -6.359   9.298  66.521  1.00  0.00    -0.066 C  
HETATM    3  CA  UNL     1      -7.495  10.294  67.021  1.00  0.00    -0.093 C  
HETATM    4  OXT UNL     1      -6.791   8.163  66.150  1.00  0.00    -0.057 OA 
HETATM    5  C   UNL     1      -8.795  10.049  66.716  1.00  0.00    -0.144 C  
HETATM    6  C   UNL     1      -9.967  10.922  67.078  1.00  0.00    -0.192 C  
HETATM    7  CA  UNL     1      -7.190  13.409  68.335  1.00  0.00    -0.110 C  
HETATM    8  S   UNL     1      -9.781  12.266  68.238  1.00  0.00    -0.202 SA 
HETATM    9  N   UNL     1      -7.196  11.454  67.674  1.00  0.00    -0.092 N  
HETATM   10  O   UNL     1      -5.167  12.560  67.057  1.00  0.00    -0.322 OA 
HETATM   11  C   UNL     1      -8.035  12.130  68.631  1.00  0.00    -0.063 C  
HETATM   12  C   UNL     1      -6.218  12.399  67.628  1.00  0.00    -0.132 C  
ENDROOT
BRANCH   5  13
HETATM   13  C   UNL     1      -9.243   8.875  65.863  1.00  0.00    -0.229 C  
BRANCH  13  14
HETATM   14  N   UNL     1      -9.609   7.617  66.584  1.00  0.00    -0.201 NA 
HETATM   15  C   UNL     1      -9.888   5.248  66.657  1.00  0.00    -0.198 A  
HETATM   16  C   UNL     1     -10.730   5.371  67.754  1.00  0.00    -0.109 A  
HETATM   17  C   UNL     1      -9.323   6.390  66.090  1.00  0.00    -0.076 A  
HETATM   18  C   UNL     1     -10.351   7.737  67.711  1.00  0.00    -0.221 A  
HETATM   19  C   UNL     1     -10.943   6.626  68.301  1.00  0.00    -0.321 A  
ENDBRANCH  13  14
ENDBRANCH   5  13
BRANCH   7  20
HETATM   20  N   UNL     1      -7.750  14.477  67.412  1.00  0.00    -0.192 N  
HETATM   21  H   UNL     1      -7.967  14.229  66.446  1.00  0.00     0.000 HD 
HETATM   22  O   UNL     1      -7.638  16.244  68.920  1.00  0.00    -0.186 OA 
HETATM   23  C   UNL     1      -7.975  15.774  67.837  1.00  0.00    -0.138 C  
BRANCH  23  24
HETATM   24  C   UNL     1      -8.713  16.718  66.915  1.00  0.00    -0.216 C  
BRANCH  24  25
HETATM   25  N   UNL     1      -9.747  16.424  66.175  1.00  0.00    -0.309 NA 
HETATM   26  H   UNL     1      -9.936  16.908  65.297  1.00  0.00     0.000 HD 
BRANCH  25  27
HETATM   27  O   UNL     1     -10.580  15.407  66.656  1.00  0.00    -0.296 OA 
HETATM   28  C   UNL     1     -12.258  13.783  66.152  1.00  0.00    -0.499 C  
HETATM   29  C   UNL     1     -10.109  13.842  64.874  1.00  0.00    -0.297 C  
HETATM   30  O   UNL     1     -11.341  16.794  64.275  1.00  0.00    -1.170 OA 
HETATM   31  O   UNL     1     -12.817  15.181  63.769  1.00  0.00    -0.636 OA 
HETATM   32  C   UNL     1     -11.185  14.704  65.547  1.00  0.00    -0.343 C  
HETATM   33  C   UNL     1     -11.882  15.566  64.459  1.00  0.00    -0.216 C  
ENDBRANCH  25  27
ENDBRANCH  24  25
BRANCH  24  34
HETATM   34  C   UNL     1      -8.180  18.071  66.728  1.00  0.00    -0.251 A  
HETATM   35  H2  UNL     1      -5.872  21.125  64.852  1.00  0.00     0.000 HD 
HETATM   36  C   UNL     1      -8.255  19.094  67.658  1.00  0.00    -0.285 A  
HETATM   37  S   UNL     1      -7.409  20.469  67.090  1.00  0.00    -0.327 SA 
HETATM   38  H1  UNL     1      -5.974  19.669  63.867  1.00  0.00     0.000 HD 
HETATM   39  N   UNL     1      -6.220  20.175  64.717  1.00  0.00    -0.261 NA 
HETATM   40  N   UNL     1      -7.479  18.406  65.568  1.00  0.00    -0.503 NA 
HETATM   41  C   UNL     1      -6.994  19.617  65.661  1.00  0.00    -0.302 A  
ENDBRANCH  24  34
ENDBRANCH  23  24
ENDBRANCH   7  20
TORSDOF 7
ENDMDL
MODEL       60
REMARK 921   NORMALIZED FREE ENERGY PREDICTED BY IDOCK:   -6.21 KCAL/MOL
REMARK 922        TOTAL FREE ENERGY PREDICTED BY IDOCK:  -10.29 KCAL/MOL
REMARK 923 INTER-LIGAND FREE ENERGY PREDICTED BY IDOCK:   -7.98 KCAL/MOL
REMARK 924 INTRA-LIGAND FREE ENERGY PREDICTED BY IDOCK:   -2.31 KCAL/MOL
REMARK 927      BINDING AFFINITY PREDICTED BY RF-SCORE:    0.00 PKD
ROOT
HETATM    1  O   UNL     1     -10.922  12.265  63.389  1.00  0.00    -0.441 OA 
HETATM    2  C   UNL     1     -11.424  13.014  64.256  1.00  0.00    -0.381 C  
HETATM    3  CA  UNL     1     -11.295  12.551  65.773  1.00  0.00    -0.336 C  
HETATM    4  OXT UNL     1     -12.045  14.111  64.100  1.00  0.00    -0.463 OA 
HETATM    5  C   UNL     1     -11.511  13.440  66.776  1.00  0.00    -0.376 C  
HETATM    6  C   UNL     1     -11.380  13.159  68.250  1.00  0.00    -0.297 C  
HETATM    7  CA  UNL     1      -9.966   9.694  67.037  1.00  0.00    -0.206 C  
HETATM    8  S   UNL     1     -11.205  11.487  68.848  1.00  0.00    -0.272 SA 
HETATM    9  N   UNL     1     -10.877  11.295  66.107  1.00  0.00    -0.253 N  
HETATM   10  O   UNL     1      -9.283  10.257  64.658  1.00  0.00    -0.201 OA 
HETATM   11  C   UNL     1     -11.229  10.573  67.304  1.00  0.00    -0.125 C  
HETATM   12  C   UNL     1      -9.995  10.379  65.625  1.00  0.00    -0.272 C  
ENDROOT
BRANCH   5  13
HETATM   13  C   UNL     1     -11.830  14.905  66.534  1.00  0.00    -0.140 C  
BRANCH  13  14
HETATM   14  N   UNL     1     -10.709  15.878  66.708  1.00  0.00    -0.311 NA 
HETATM   15  C   UNL     1      -8.475  16.603  66.278  1.00  0.00    -0.355 A  
HETATM   16  C   UNL     1      -8.509  17.411  67.407  1.00  0.00    -0.215 A  
HETATM   17  C   UNL     1      -9.598  15.849  65.935  1.00  0.00    -0.343 A  
HETATM   18  C   UNL     1     -10.783  16.735  67.754  1.00  0.00    -0.321 A  
HETATM   19  C   UNL     1      -9.684  17.496  68.138  1.00  0.00    -0.302 A  
ENDBRANCH  13  14
ENDBRANCH   5  13
BRANCH   7  20
HETATM   20  N   UNL     1      -8.695   9.954  67.825  1.00  0.00    -0.128 N  
HETATM   21  H   UNL     1      -8.017  10.623  67.460  1.00  0.00     0.000 HD 
HETATM   22  O   UNL     1      -9.081   8.397  69.510  1.00  0.00    -0.151 OA 
HETATM   23  C   UNL     1      -8.427   9.314  69.023  1.00  0.00    -0.132 C  
BRANCH  23  24
HETATM   24  C   UNL     1      -7.238   9.774  69.835  1.00  0.00    -0.116 C  
BRANCH  24  25
HETATM   25  N   UNL     1      -6.522  10.843  69.621  1.00  0.00    -0.098 NA 
HETATM   26  H   UNL     1      -5.517  10.863  69.793  1.00  0.00     0.000 HD 
BRANCH  25  27
HETATM   27  O   UNL     1      -7.213  11.962  69.140  1.00  0.00    -0.096 OA 
HETATM   28  C   UNL     1      -7.320  14.344  68.997  1.00  0.00    -0.127 C  
HETATM   29  C   UNL     1      -5.260  13.112  68.296  1.00  0.00    -0.086 C  
HETATM   30  O   UNL     1      -5.528  12.270  71.428  1.00  0.00    -0.362 OA 
HETATM   31  O   UNL     1      -5.549  14.500  71.183  1.00  0.00    -0.153 OA 
HETATM   32  C   UNL     1      -6.407  13.148  69.315  1.00  0.00    -0.106 C  
HETATM   33  C   UNL     1      -5.806  13.394  70.726  1.00  0.00    -0.148 C  
ENDBRANCH  25  27
ENDBRANCH  24  25
BRANCH  24  34
HETATM   34  C   UNL     1      -6.749   8.905  70.911  1.00  0.00    -0.068 A  
HETATM   35  H2  UNL     1      -6.067   7.709  74.946  1.00  0.00     0.000 HD 
HETATM   36  C   UNL     1      -5.864   7.854  70.749  1.00  0.00    -0.033 A  
HETATM   37  S   UNL     1      -5.466   7.178  72.271  1.00  0.00    -0.037 SA 
HETATM   38  H1  UNL     1      -7.199   9.054  74.833  1.00  0.00     0.000 HD 
HETATM   39  N   UNL     1      -6.595   8.371  74.376  1.00  0.00    -0.134 NA 
HETATM   40  N   UNL     1      -7.120   9.138  72.237  1.00  0.00    -0.303 NA 
HETATM   41  C   UNL     1      -6.481   8.327  73.040  1.00  0.00    -0.095 A  
ENDBRANCH  24  34
ENDBRANCH  23  24
ENDBRANCH   7  20
TORSDOF 7
ENDMDL
MODEL       61
REMARK 921   NORMALIZED FREE ENERGY PREDICTED BY IDOCK:   -6.18 KCAL/MOL
REMARK 922        TOTAL FREE ENERGY PREDICTED BY IDOCK:  -10.25 KCAL/MOL
REMARK 923 INTER-LIGAND FREE ENERGY PREDICTED BY IDOCK:   -8.47 KCAL/MOL
REMARK 924 INTRA-LIGAND FREE ENERGY PREDICTED BY IDOCK:   -1.78 KCAL/MOL
REMARK 927      BINDING AFFINITY PREDICTED BY RF-SCORE:    0.00 PKD
ROOT
HETATM    1  O   UNL     1     -12.560   9.708  72.382  1.00  0.00    -0.280 OA 
HETATM    2  C   UNL     1     -11.645   8.970  71.953  1.00  0.00    -0.370 C  
HETATM    3  CA  UNL     1     -10.953   9.400  70.586  1.00  0.00    -0.290 C  
HETATM    4  OXT UNL     1     -11.183   7.898  72.453  1.00  0.00    -0.295 OA 
HETATM    5  C   UNL     1      -9.761   8.857  70.229  1.00  0.00    -0.212 C  
HETATM    6  C   UNL     1      -8.969   9.200  68.994  1.00  0.00    -0.143 C  
HETATM    7  CA  UNL     1     -11.698  11.994  68.527  1.00  0.00    -0.332 C  
HETATM    8  S   UNL     1      -9.690  10.178  67.688  1.00  0.00    -0.165 SA 
HETATM    9  N   UNL     1     -11.476  10.380  69.793  1.00  0.00    -0.267 N  
HETATM   10  O   UNL     1     -12.612  12.177  70.888  1.00  0.00    -0.336 OA 
HETATM   11  C   UNL     1     -11.325  10.486  68.363  1.00  0.00    -0.262 C  
HETATM   12  C   UNL     1     -12.137  11.555  69.969  1.00  0.00    -0.331 C  
ENDROOT
BRANCH   5  13
HETATM   13  C   UNL     1      -9.001   7.872  71.099  1.00  0.00    -0.138 C  
BRANCH  13  14
HETATM   14  N   UNL     1      -8.813   6.493  70.553  1.00  0.00    -0.150 NA 
HETATM   15  C   UNL     1      -7.467   4.805  69.535  1.00  0.00    -0.056 A  
HETATM   16  C   UNL     1      -8.607   4.128  69.124  1.00  0.00    -0.112 A  
HETATM   17  C   UNL     1      -7.591   5.987  70.265  1.00  0.00    -0.095 A  
HETATM   18  C   UNL     1      -9.928   5.790  70.239  1.00  0.00    -0.198 A  
HETATM   19  C   UNL     1      -9.850   4.614  69.501  1.00  0.00    -0.286 A  
ENDBRANCH  13  14
ENDBRANCH   5  13
BRANCH   7  20
HETATM   20  N   UNL     1     -10.600  13.041  68.506  1.00  0.00    -0.255 N  
HETATM   21  H   UNL     1      -9.646  12.760  68.732  1.00  0.00     0.000 HD 
HETATM   22  O   UNL     1     -11.959  14.869  68.031  1.00  0.00    -0.306 OA 
HETATM   23  C   UNL     1     -10.851  14.366  68.191  1.00  0.00    -0.244 C  
BRANCH  23  24
HETATM   24  C   UNL     1      -9.675  15.297  68.004  1.00  0.00    -0.211 C  
BRANCH  24  25
HETATM   25  N   UNL     1      -8.413  14.972  68.064  1.00  0.00    -0.145 NA 
HETATM   26  H   UNL     1      -7.905  14.631  67.247  1.00  0.00     0.000 HD 
BRANCH  25  27
HETATM   27  O   UNL     1      -7.797  15.116  69.312  1.00  0.00    -0.180 OA 
HETATM   28  C   UNL     1      -6.015  14.452  70.758  1.00  0.00    -0.195 C  
HETATM   29  C   UNL     1      -5.544  15.300  68.453  1.00  0.00    -0.108 C  
HETATM   30  O   UNL     1      -7.393  12.689  67.857  1.00  0.00    -0.092 OA 
HETATM   31  O   UNL     1      -5.643  12.163  69.157  1.00  0.00    -0.062 OA 
HETATM   32  C   UNL     1      -6.509  14.461  69.302  1.00  0.00    -0.117 C  
HETATM   33  C   UNL     1      -6.466  12.993  68.795  1.00  0.00    -0.085 C  
ENDBRANCH  25  27
ENDBRANCH  24  25
BRANCH  24  34
HETATM   34  C   UNL     1      -9.939  16.731  67.843  1.00  0.00    -0.268 A  
HETATM   35  H2  UNL     1     -10.266  20.418  65.728  1.00  0.00     0.000 HD 
HETATM   36  C   UNL     1     -10.071  17.641  68.878  1.00  0.00    -0.351 A  
HETATM   37  S   UNL     1     -10.255  19.223  68.252  1.00  0.00    -0.398 SA 
HETATM   38  H1  UNL     1     -10.102  19.041  64.642  1.00  0.00     0.000 HD 
HETATM   39  N   UNL     1     -10.171  19.412  65.590  1.00  0.00    -0.459 NA 
HETATM   40  N   UNL     1     -10.018  17.301  66.570  1.00  0.00    -0.292 NA 
HETATM   41  C   UNL     1     -10.139  18.601  66.658  1.00  0.00    -0.385 A  
ENDBRANCH  24  34
ENDBRANCH  23  24
ENDBRANCH   7  20
TORSDOF 7
ENDMDL
MODEL       62
REMARK 921   NORMALIZED FREE ENERGY PREDICTED BY IDOCK:   -6.17 KCAL/MOL
REMARK 922        TOTAL FREE ENERGY PREDICTED BY IDOCK:  -10.23 KCAL/MOL
REMARK 923 INTER-LIGAND FREE ENERGY PREDICTED BY IDOCK:   -8.22 KCAL/MOL
REMARK 924 INTRA-LIGAND FREE ENERGY PREDICTED BY IDOCK:   -2.01 KCAL/MOL
REMARK 927      BINDING AFFINITY PREDICTED BY RF-SCORE:    0.00 PKD
ROOT
HETATM    1  O   UNL     1      -9.706   5.995  67.818  1.00  0.00    -0.111 OA 
HETATM    2  C   UNL     1      -8.680   6.181  68.510  1.00  0.00    -0.111 C  
HETATM    3  CA  UNL     1      -8.109   7.665  68.570  1.00  0.00    -0.124 C  
HETATM    4  OXT UNL     1      -8.004   5.338  69.178  1.00  0.00    -0.087 OA 
HETATM    5  C   UNL     1      -7.220   8.012  69.536  1.00  0.00    -0.070 C  
HETATM    6  C   UNL     1      -6.633   9.383  69.744  1.00  0.00    -0.045 C  
HETATM    7  CA  UNL     1      -9.187  10.445  66.947  1.00  0.00    -0.150 C  
HETATM    8  S   UNL     1      -6.837  10.661  68.516  1.00  0.00    -0.067 SA 
HETATM    9  N   UNL     1      -8.559   8.642  67.730  1.00  0.00    -0.136 N  
HETATM   10  O   UNL     1     -10.854   8.533  67.064  1.00  0.00    -0.211 OA 
HETATM   11  C   UNL     1      -7.811   9.790  67.284  1.00  0.00    -0.098 C  
HETATM   12  C   UNL     1      -9.740   8.989  67.150  1.00  0.00    -0.181 C  
ENDROOT
BRANCH   5  13
HETATM   13  C   UNL     1      -6.759   7.059  70.623  1.00  0.00    -0.053 C  
BRANCH  13  14
HETATM   14  N   UNL     1      -7.473   7.132  71.934  1.00  0.00    -0.085 NA 
HETATM   15  C   UNL     1      -9.418   7.592  73.240  1.00  0.00    -0.317 A  
HETATM   16  C   UNL     1      -8.635   7.720  74.380  1.00  0.00    -0.221 A  
HETATM   17  C   UNL     1      -8.816   7.282  72.020  1.00  0.00    -0.125 A  
HETATM   18  C   UNL     1      -6.716   7.161  73.057  1.00  0.00    -0.065 A  
HETATM   19  C   UNL     1      -7.273   7.479  74.291  1.00  0.00    -0.137 A  
ENDBRANCH  13  14
ENDBRANCH   5  13
BRANCH   7  20
HETATM   20  N   UNL     1      -9.780  11.469  67.899  1.00  0.00    -0.178 N  
HETATM   21  H   UNL     1      -9.269  11.705  68.750  1.00  0.00     0.000 HD 
HETATM   22  O   UNL     1     -11.770  11.812  66.744  1.00  0.00    -0.555 OA 
HETATM   23  C   UNL     1     -10.990  12.092  67.650  1.00  0.00    -0.243 C  
BRANCH  23  24
HETATM   24  C   UNL     1     -11.410  13.236  68.546  1.00  0.00    -0.284 C  
BRANCH  24  25
HETATM   25  N   UNL     1     -11.202  14.505  68.328  1.00  0.00    -0.265 NA 
HETATM   26  H   UNL     1     -10.908  15.138  69.072  1.00  0.00     0.000 HD 
BRANCH  25  27
HETATM   27  O   UNL     1     -11.404  14.946  67.015  1.00  0.00    -0.343 OA 
HETATM   28  C   UNL     1     -10.759  16.467  65.289  1.00  0.00    -0.269 C  
HETATM   29  C   UNL     1      -9.061  15.019  66.418  1.00  0.00    -0.312 C  
HETATM   30  O   UNL     1     -10.245  16.750  68.906  1.00  0.00    -0.267 OA 
HETATM   31  O   UNL     1      -9.544  18.089  67.247  1.00  0.00    -0.261 OA 
HETATM   32  C   UNL     1     -10.338  15.844  66.630  1.00  0.00    -0.300 C  
HETATM   33  C   UNL     1     -10.015  17.015  67.598  1.00  0.00    -0.280 C  
ENDBRANCH  25  27
ENDBRANCH  24  25
BRANCH  24  34
HETATM   34  C   UNL     1     -12.018  12.920  69.843  1.00  0.00    -0.307 A  
HETATM   35  H2  UNL     1     -13.686  10.404  72.853  1.00  0.00     0.000 HD 
HETATM   36  C   UNL     1     -12.552  13.846  70.722  1.00  0.00    -0.354 A  
HETATM   37  S   UNL     1     -13.262  13.048  72.059  1.00  0.00    -0.407 SA 
HETATM   38  H1  UNL     1     -12.900   9.481  71.575  1.00  0.00     0.000 HD 
HETATM   39  N   UNL     1     -13.161  10.381  71.978  1.00  0.00    -0.457 NA 
HETATM   40  N   UNL     1     -12.154  11.594  70.260  1.00  0.00    -0.358 NA 
HETATM   41  C   UNL     1     -12.825  11.534  71.381  1.00  0.00    -0.384 A  
ENDBRANCH  24  34
ENDBRANCH  23  24
ENDBRANCH   7  20
TORSDOF 7
ENDMDL
MODEL       63
REMARK 921   NORMALIZED FREE ENERGY PREDICTED BY IDOCK:   -6.15 KCAL/MOL
REMARK 922        TOTAL FREE ENERGY PREDICTED BY IDOCK:  -10.21 KCAL/MOL
REMARK 923 INTER-LIGAND FREE ENERGY PREDICTED BY IDOCK:   -9.85 KCAL/MOL
REMARK 924 INTRA-LIGAND FREE ENERGY PREDICTED BY IDOCK:   -0.35 KCAL/MOL
REMARK 927      BINDING AFFINITY PREDICTED BY RF-SCORE:    0.00 PKD
ROOT
HETATM    1  O   UNL     1     -10.962   7.085  66.857  1.00  0.00    -0.371 OA 
HETATM    2  C   UNL     1     -10.622   7.141  68.060  1.00  0.00    -0.196 C  
HETATM    3  CA  UNL     1      -9.419   8.117  68.427  1.00  0.00    -0.142 C  
HETATM    4  OXT UNL     1     -11.099   6.510  69.054  1.00  0.00    -0.302 OA 
HETATM    5  C   UNL     1      -9.210   8.481  69.717  1.00  0.00    -0.157 C  
HETATM    6  C   UNL     1      -8.146   9.428  70.206  1.00  0.00    -0.164 C  
HETATM    7  CA  UNL     1      -7.488  10.005  66.370  1.00  0.00    -0.104 C  
HETATM    8  S   UNL     1      -6.828   9.957  69.126  1.00  0.00    -0.058 SA 
HETATM    9  N   UNL     1      -8.637   8.685  67.463  1.00  0.00    -0.134 N  
HETATM   10  O   UNL     1      -9.686   9.209  65.378  1.00  0.00    -0.207 OA 
HETATM   11  C   UNL     1      -7.263   9.090  67.615  1.00  0.00    -0.083 C  
HETATM   12  C   UNL     1      -8.804   9.165  66.201  1.00  0.00    -0.158 C  
ENDROOT
BRANCH   5  13
HETATM   13  C   UNL     1     -10.104   8.041  70.862  1.00  0.00    -0.191 C  
BRANCH  13  14
HETATM   14  N   UNL     1     -11.350   8.835  71.090  1.00  0.00    -0.270 NA 
HETATM   15  C   UNL     1     -12.595  10.868  70.959  1.00  0.00    -0.517 A  
HETATM   16  C   UNL     1     -13.465  10.411  71.939  1.00  0.00    -0.384 A  
HETATM   17  C   UNL     1     -11.544  10.054  70.535  1.00  0.00    -0.323 A  
HETATM   18  C   UNL     1     -12.249   8.345  71.976  1.00  0.00    -0.362 A  
HETATM   19  C   UNL     1     -13.304   9.126  72.435  1.00  0.00    -0.527 A  
ENDBRANCH  13  14
ENDBRANCH   5  13
BRANCH   7  20
HETATM   20  N   UNL     1      -7.725  11.491  66.569  1.00  0.00    -0.316 N  
HETATM   21  H   UNL     1      -7.012  12.150  66.256  1.00  0.00     0.000 HD 
HETATM   22  O   UNL     1      -9.749  11.309  67.700  1.00  0.00    -0.168 OA 
HETATM   23  C   UNL     1      -8.876  11.982  67.160  1.00  0.00    -0.188 C  
BRANCH  23  24
HETATM   24  C   UNL     1      -9.117  13.474  67.141  1.00  0.00    -0.232 C  
BRANCH  24  25
HETATM   25  N   UNL     1      -8.581  14.354  67.941  1.00  0.00    -0.156 NA 
HETATM   26  H   UNL     1      -9.113  14.796  68.691  1.00  0.00     0.000 HD 
BRANCH  25  27
HETATM   27  O   UNL     1      -7.234  14.656  67.711  1.00  0.00    -0.140 OA 
HETATM   28  C   UNL     1      -5.390  16.096  68.198  1.00  0.00    -0.111 C  
HETATM   29  C   UNL     1      -6.653  14.968  70.039  1.00  0.00    -0.158 C  
HETATM   30  O   UNL     1      -8.974  16.741  68.604  1.00  0.00    -0.235 OA 
HETATM   31  O   UNL     1      -7.214  18.013  69.168  1.00  0.00    -0.241 OA 
HETATM   32  C   UNL     1      -6.783  15.643  68.667  1.00  0.00    -0.115 C  
HETATM   33  C   UNL     1      -7.651  16.922  68.826  1.00  0.00    -0.243 C  
ENDBRANCH  25  27
ENDBRANCH  24  25
BRANCH  24  34
HETATM   34  C   UNL     1     -10.124  14.007  66.217  1.00  0.00    -0.300 A  
HETATM   35  H2  UNL     1     -12.029  16.973  63.820  1.00  0.00     0.000 HD 
HETATM   36  C   UNL     1     -11.310  13.379  65.879  1.00  0.00    -0.309 A  
HETATM   37  S   UNL     1     -12.246  14.393  64.867  1.00  0.00    -0.404 SA 
HETATM   38  H1  UNL     1     -10.448  17.496  64.393  1.00  0.00     0.000 HD 
HETATM   39  N   UNL     1     -11.174  16.782  64.343  1.00  0.00    -1.107 NA 
HETATM   40  N   UNL     1      -9.963  15.269  65.641  1.00  0.00    -0.351 NA 
HETATM   41  C   UNL     1     -11.025  15.595  64.951  1.00  0.00    -0.431 A  
ENDBRANCH  24  34
ENDBRANCH  23  24
ENDBRANCH   7  20
TORSDOF 7
ENDMDL
MODEL       64
REMARK 921   NORMALIZED FREE ENERGY PREDICTED BY IDOCK:   -6.14 KCAL/MOL
REMARK 922        TOTAL FREE ENERGY PREDICTED BY IDOCK:  -10.20 KCAL/MOL
REMARK 923 INTER-LIGAND FREE ENERGY PREDICTED BY IDOCK:   -8.39 KCAL/MOL
REMARK 924 INTRA-LIGAND FREE ENERGY PREDICTED BY IDOCK:   -1.81 KCAL/MOL
REMARK 927      BINDING AFFINITY PREDICTED BY RF-SCORE:    0.00 PKD
ROOT
HETATM    1  O   UNL     1      -6.434  13.633  67.671  1.00  0.00    -0.161 OA 
HETATM    2  C   UNL     1      -7.609  13.981  67.418  1.00  0.00    -0.148 C  
HETATM    3  CA  UNL     1      -8.666  12.820  67.159  1.00  0.00    -0.202 C  
HETATM    4  OXT UNL     1      -8.093  15.152  67.325  1.00  0.00    -0.170 OA 
HETATM    5  C   UNL     1      -9.996  13.089  67.206  1.00  0.00    -0.232 C  
HETATM    6  C   UNL     1     -11.106  12.087  67.028  1.00  0.00    -0.298 C  
HETATM    7  CA  UNL     1      -8.176   9.463  67.035  1.00  0.00    -0.116 C  
HETATM    8  S   UNL     1     -10.765  10.442  66.429  1.00  0.00     0.007 SA 
HETATM    9  N   UNL     1      -8.278  11.523  66.982  1.00  0.00    -0.160 N  
HETATM   10  O   UNL     1      -6.338  10.793  68.175  1.00  0.00    -0.057 OA 
HETATM   11  C   UNL     1      -8.984  10.522  66.221  1.00  0.00    -0.158 C  
HETATM   12  C   UNL     1      -7.308  10.700  67.463  1.00  0.00    -0.091 C  
ENDROOT
BRANCH   5  13
HETATM   13  C   UNL     1     -10.556  14.458  67.547  1.00  0.00    -0.265 C  
BRANCH  13  14
HETATM   14  N   UNL     1     -11.073  14.650  68.936  1.00  0.00    -0.243 NA 
HETATM   15  C   UNL     1     -12.652  14.195  70.668  1.00  0.00    -0.421 A  
HETATM   16  C   UNL     1     -12.287  15.365  71.322  1.00  0.00    -0.446 A  
HETATM   17  C   UNL     1     -12.020  13.846  69.475  1.00  0.00    -0.343 A  
HETATM   18  C   UNL     1     -10.645  15.741  69.616  1.00  0.00    -0.295 A  
HETATM   19  C   UNL     1     -11.256  16.132  70.802  1.00  0.00    -0.356 A  
ENDBRANCH  13  14
ENDBRANCH   5  13
BRANCH   7  20
HETATM   20  N   UNL     1      -8.842   8.744  68.194  1.00  0.00    -0.141 N  
HETATM   21  H   UNL     1      -9.027   9.261  69.054  1.00  0.00     0.000 HD 
HETATM   22  O   UNL     1      -8.930   6.638  67.211  1.00  0.00    -0.115 OA 
HETATM   23  C   UNL     1      -9.208   7.411  68.123  1.00  0.00    -0.133 C  
BRANCH  23  24
HETATM   24  C   UNL     1     -10.039   6.831  69.245  1.00  0.00    -0.168 C  
BRANCH  24  25
HETATM   25  N   UNL     1     -11.206   7.255  69.642  1.00  0.00    -0.455 NA 
HETATM   26  H   UNL     1     -11.959   6.612  69.889  1.00  0.00     0.000 HD 
BRANCH  25  27
HETATM   27  O   UNL     1     -11.367   8.644  69.708  1.00  0.00    -0.066 OA 
HETATM   28  C   UNL     1     -12.103  10.518  70.994  1.00  0.00    -0.492 C  
HETATM   29  C   UNL     1     -10.455   8.889  71.935  1.00  0.00    -0.415 C  
HETATM   30  O   UNL     1     -13.031   6.991  71.342  1.00  0.00    -0.382 OA 
HETATM   31  O   UNL     1     -13.598   8.756  72.607  1.00  0.00    -0.387 OA 
HETATM   32  C   UNL     1     -11.707   9.034  71.058  1.00  0.00    -0.296 C  
HETATM   33  C   UNL     1     -12.878   8.276  71.740  1.00  0.00    -0.338 C  
ENDBRANCH  25  27
ENDBRANCH  24  25
BRANCH  24  34
HETATM   34  C   UNL     1      -9.462   5.752  70.055  1.00  0.00    -0.158 A  
HETATM   35  H2  UNL     1      -9.427   2.022  72.118  1.00  0.00     0.000 HD 
HETATM   36  C   UNL     1      -8.279   5.835  70.768  1.00  0.00    -0.123 A  
HETATM   37  S   UNL     1      -8.031   4.399  71.667  1.00  0.00    -0.093 SA 
HETATM   38  H1  UNL     1     -10.844   2.198  71.087  1.00  0.00     0.000 HD 
HETATM   39  N   UNL     1      -9.966   2.572  71.449  1.00  0.00    -0.089 NA 
HETATM   40  N   UNL     1     -10.137   4.539  70.209  1.00  0.00    -0.212 NA 
HETATM   41  C   UNL     1      -9.508   3.771  71.060  1.00  0.00    -0.169 A  
ENDBRANCH  24  34
ENDBRANCH  23  24
ENDBRANCH   7  20
TORSDOF 7
ENDMDL
MODEL       65
REMARK 921   NORMALIZED FREE ENERGY PREDICTED BY IDOCK:   -6.12 KCAL/MOL
REMARK 922        TOTAL FREE ENERGY PREDICTED BY IDOCK:  -10.17 KCAL/MOL
REMARK 923 INTER-LIGAND FREE ENERGY PREDICTED BY IDOCK:   -9.39 KCAL/MOL
REMARK 924 INTRA-LIGAND FREE ENERGY PREDICTED BY IDOCK:   -0.77 KCAL/MOL
REMARK 927      BINDING AFFINITY PREDICTED BY RF-SCORE:    0.00 PKD
ROOT
HETATM    1  O   UNL     1     -13.866  15.082  72.031  1.00  0.00    -0.382 OA 
HETATM    2  C   UNL     1     -13.759  13.836  71.978  1.00  0.00    -0.482 C  
HETATM    3  CA  UNL     1     -12.904  13.235  70.779  1.00  0.00    -0.121 C  
HETATM    4  OXT UNL     1     -14.254  12.960  72.753  1.00  0.00    -0.446 OA 
HETATM    5  C   UNL     1     -12.471  11.950  70.831  1.00  0.00    -0.397 C  
HETATM    6  C   UNL     1     -11.618  11.262  69.798  1.00  0.00    -0.333 C  
HETATM    7  CA  UNL     1     -11.411  14.846  68.190  1.00  0.00    -0.330 C  
HETATM    8  S   UNL     1     -11.328  12.013  68.206  1.00  0.00    -0.313 SA 
HETATM    9  N   UNL     1     -12.504  14.005  69.725  1.00  0.00    -0.282 N  
HETATM   10  O   UNL     1     -12.021  16.303  70.178  1.00  0.00    -0.148 OA 
HETATM   11  C   UNL     1     -12.250  13.543  68.384  1.00  0.00    -0.115 C  
HETATM   12  C   UNL     1     -12.104  15.290  69.527  1.00  0.00    -0.290 C  
ENDROOT
BRANCH   5  13
HETATM   13  C   UNL     1     -12.718  11.036  72.019  1.00  0.00    -0.072 C  
BRANCH  13  14
HETATM   14  N   UNL     1     -12.752   9.567  71.745  1.00  0.00    -0.373 NA 
HETATM   15  C   UNL     1     -13.935   7.509  71.485  1.00  0.00    -0.522 A  
HETATM   16  C   UNL     1     -12.765   6.796  71.714  1.00  0.00    -0.342 A  
HETATM   17  C   UNL     1     -13.905   8.904  71.492  1.00  0.00    -0.336 A  
HETATM   18  C   UNL     1     -11.592   8.881  71.874  1.00  0.00    -0.371 A  
HETATM   19  C   UNL     1     -11.578   7.490  71.886  1.00  0.00    -0.312 A  
ENDBRANCH  13  14
ENDBRANCH   5  13
BRANCH   7  20
HETATM   20  N   UNL     1      -9.897  14.778  68.271  1.00  0.00    -0.216 N  
HETATM   21  H   UNL     1      -9.462  14.513  69.155  1.00  0.00     0.000 HD 
HETATM   22  O   UNL     1      -9.462  15.521  66.110  1.00  0.00    -0.288 OA 
HETATM   23  C   UNL     1      -9.087  15.064  67.186  1.00  0.00    -0.215 C  
BRANCH  23  24
HETATM   24  C   UNL     1      -7.606  14.783  67.298  1.00  0.00    -0.165 C  
BRANCH  24  25
HETATM   25  N   UNL     1      -6.646  15.665  67.248  1.00  0.00    -0.276 NA 
HETATM   26  H   UNL     1      -5.800  15.573  67.811  1.00  0.00     0.000 HD 
BRANCH  25  27
HETATM   27  O   UNL     1      -6.845  16.744  66.379  1.00  0.00    -0.210 OA 
HETATM   28  C   UNL     1      -7.119  19.106  66.145  1.00  0.00    -0.273 C  
HETATM   29  C   UNL     1      -5.147  18.161  67.359  1.00  0.00    -0.142 C  
HETATM   30  O   UNL     1      -7.640  17.019  69.111  1.00  0.00    -0.229 OA 
HETATM   31  O   UNL     1      -7.762  19.248  68.885  1.00  0.00    -0.348 OA 
HETATM   32  C   UNL     1      -6.648  17.987  67.090  1.00  0.00    -0.180 C  
HETATM   33  C   UNL     1      -7.415  18.166  68.429  1.00  0.00    -0.280 C  
ENDBRANCH  25  27
ENDBRANCH  24  25
BRANCH  24  34
HETATM   34  C   UNL     1      -7.163  13.386  67.363  1.00  0.00    -0.103 A  
HETATM   35  H2  UNL     1      -7.601   9.149  67.185  1.00  0.00     0.000 HD 
HETATM   36  C   UNL     1      -5.953  12.954  67.876  1.00  0.00    -0.125 A  
HETATM   37  S   UNL     1      -5.886  11.244  67.870  1.00  0.00    -0.044 SA 
HETATM   38  H1  UNL     1      -9.017   9.991  66.563  1.00  0.00     0.000 HD 
HETATM   39  N   UNL     1      -8.079  10.023  66.962  1.00  0.00    -0.116 NA 
HETATM   40  N   UNL     1      -8.005  12.353  66.944  1.00  0.00    -0.097 NA 
HETATM   41  C   UNL     1      -7.463  11.190  67.199  1.00  0.00    -0.121 A  
ENDBRANCH  24  34
ENDBRANCH  23  24
ENDBRANCH   7  20
TORSDOF 7
ENDMDL
MODEL       66
REMARK 921   NORMALIZED FREE ENERGY PREDICTED BY IDOCK:   -6.11 KCAL/MOL
REMARK 922        TOTAL FREE ENERGY PREDICTED BY IDOCK:  -10.16 KCAL/MOL
REMARK 923 INTER-LIGAND FREE ENERGY PREDICTED BY IDOCK:   -8.42 KCAL/MOL
REMARK 924 INTRA-LIGAND FREE ENERGY PREDICTED BY IDOCK:   -1.73 KCAL/MOL
REMARK 927      BINDING AFFINITY PREDICTED BY RF-SCORE:    0.00 PKD
ROOT
HETATM    1  O   UNL     1     -11.171   6.862  67.053  1.00  0.00    -0.369 OA 
HETATM    2  C   UNL     1     -10.690   6.681  68.194  1.00  0.00    -0.258 C  
HETATM    3  CA  UNL     1      -9.817   7.863  68.806  1.00  0.00    -0.167 C  
HETATM    4  OXT UNL     1     -10.787   5.664  68.949  1.00  0.00    -0.251 OA 
HETATM    5  C   UNL     1      -9.542   7.887  70.134  1.00  0.00    -0.175 C  
HETATM    6  C   UNL     1      -8.773   8.960  70.858  1.00  0.00    -0.210 C  
HETATM    7  CA  UNL     1      -8.916  10.816  67.393  1.00  0.00    -0.139 C  
HETATM    8  S   UNL     1      -7.868  10.204  69.954  1.00  0.00    -0.099 SA 
HETATM    9  N   UNL     1      -9.410   8.922  68.046  1.00  0.00    -0.142 N  
HETATM   10  O   UNL     1     -10.871   9.629  66.290  1.00  0.00     0.062 OA 
HETATM   11  C   UNL     1      -8.228   9.718  68.264  1.00  0.00    -0.105 C  
HETATM   12  C   UNL     1      -9.908   9.658  67.016  1.00  0.00    -0.195 C  
ENDROOT
BRANCH   5  13
HETATM   13  C   UNL     1     -10.068   6.851  71.112  1.00  0.00    -0.191 C  
BRANCH  13  14
HETATM   14  N   UNL     1      -9.055   6.123  71.936  1.00  0.00    -0.141 NA 
HETATM   15  C   UNL     1      -7.336   4.486  72.182  1.00  0.00    -0.072 A  
HETATM   16  C   UNL     1      -7.534   4.468  73.556  1.00  0.00    -0.082 A  
HETATM   17  C   UNL     1      -8.102   5.336  71.385  1.00  0.00    -0.115 A  
HETATM   18  C   UNL     1      -9.189   6.182  73.283  1.00  0.00    -0.131 A  
HETATM   19  C   UNL     1      -8.454   5.343  74.114  1.00  0.00    -0.114 A  
ENDBRANCH  13  14
ENDBRANCH   5  13
BRANCH   7  20
HETATM   20  N   UNL     1      -9.579  12.001  68.072  1.00  0.00    -0.193 N  
HETATM   21  H   UNL     1      -9.531  12.077  69.088  1.00  0.00     0.000 HD 
HETATM   22  O   UNL     1     -10.498  12.950  66.157  1.00  0.00    -0.262 OA 
HETATM   23  C   UNL     1     -10.247  12.981  67.358  1.00  0.00    -0.231 C  
BRANCH  23  24
HETATM   24  C   UNL     1     -10.706  14.221  68.092  1.00  0.00    -0.244 C  
BRANCH  24  25
HETATM   25  N   UNL     1     -10.431  15.454  67.772  1.00  0.00    -0.260 NA 
HETATM   26  H   UNL     1     -10.966  15.960  67.066  1.00  0.00     0.000 HD 
BRANCH  25  27
HETATM   27  O   UNL     1      -9.360  16.044  68.453  1.00  0.00    -0.198 OA 
HETATM   28  C   UNL     1      -7.761  17.818  68.524  1.00  0.00    -0.289 C  
HETATM   29  C   UNL     1     -10.205  18.307  68.327  1.00  0.00    -0.405 C  
HETATM   30  O   UNL     1      -9.643  16.540  65.652  1.00  0.00    -0.511 OA 
HETATM   31  O   UNL     1      -8.234  18.281  65.785  1.00  0.00    -0.503 OA 
HETATM   32  C   UNL     1      -9.085  17.350  67.898  1.00  0.00    -0.255 C  
HETATM   33  C   UNL     1      -8.919  17.442  66.356  1.00  0.00    -0.246 C  
ENDBRANCH  25  27
ENDBRANCH  24  25
BRANCH  24  34
HETATM   34  C   UNL     1     -11.445  14.055  69.348  1.00  0.00    -0.290 A  
HETATM   35  H2  UNL     1     -13.666  11.942  72.310  1.00  0.00     0.000 HD 
HETATM   36  C   UNL     1     -11.905  15.087  70.147  1.00  0.00    -0.314 A  
HETATM   37  S   UNL     1     -12.817  14.461  71.453  1.00  0.00    -0.361 SA 
HETATM   38  H1  UNL     1     -12.927  10.858  71.135  1.00  0.00     0.000 HD 
HETATM   39  N   UNL     1     -13.087  11.804  71.482  1.00  0.00    -0.371 NA 
HETATM   40  N   UNL     1     -11.797  12.782  69.803  1.00  0.00    -0.327 NA 
HETATM   41  C   UNL     1     -12.549  12.870  70.870  1.00  0.00    -0.270 A  
ENDBRANCH  24  34
ENDBRANCH  23  24
ENDBRANCH   7  20
TORSDOF 7
ENDMDL
MODEL       67
REMARK 921   NORMALIZED FREE ENERGY PREDICTED BY IDOCK:   -6.11 KCAL/MOL
REMARK 922        TOTAL FREE ENERGY PREDICTED BY IDOCK:  -10.15 KCAL/MOL
REMARK 923 INTER-LIGAND FREE ENERGY PREDICTED BY IDOCK:   -8.65 KCAL/MOL
REMARK 924 INTRA-LIGAND FREE ENERGY PREDICTED BY IDOCK:   -1.50 KCAL/MOL
REMARK 927      BINDING AFFINITY PREDICTED BY RF-SCORE:    0.00 PKD
ROOT
HETATM    1  O   UNL     1      -7.474   5.998  65.943  1.00  0.00    -0.078 OA 
HETATM    2  C   UNL     1      -8.296   5.970  66.885  1.00  0.00    -0.105 C  
HETATM    3  CA  UNL     1      -8.500   7.318  67.706  1.00  0.00    -0.121 C  
HETATM    4  OXT UNL     1      -9.002   4.999  67.301  1.00  0.00    -0.113 OA 
HETATM    5  C   UNL     1      -9.585   7.468  68.508  1.00  0.00    -0.150 C  
HETATM    6  C   UNL     1      -9.932   8.698  69.304  1.00  0.00    -0.195 C  
HETATM    7  CA  UNL     1      -6.894  10.291  67.379  1.00  0.00    -0.077 C  
HETATM    8  S   UNL     1      -8.752  10.021  69.501  1.00  0.00    -0.183 SA 
HETATM    9  N   UNL     1      -7.659   8.383  67.557  1.00  0.00    -0.097 N  
HETATM   10  O   UNL     1      -6.707   8.724  65.390  1.00  0.00    -0.066 OA 
HETATM   11  C   UNL     1      -7.367   9.381  68.555  1.00  0.00    -0.079 C  
HETATM   12  C   UNL     1      -6.954   8.960  66.547  1.00  0.00    -0.080 C  
ENDROOT
BRANCH   5  13
HETATM   13  C   UNL     1     -10.674   6.418  68.639  1.00  0.00    -0.285 C  
BRANCH  13  14
HETATM   14  N   UNL     1     -11.053   6.008  70.026  1.00  0.00    -0.377 NA 
HETATM   15  C   UNL     1     -12.224   6.370  72.074  1.00  0.00    -0.320 A  
HETATM   16  C   UNL     1     -11.367   5.497  72.731  1.00  0.00    -0.359 A  
HETATM   17  C   UNL     1     -12.058   6.604  70.709  1.00  0.00    -0.304 A  
HETATM   18  C   UNL     1     -10.274   5.083  70.638  1.00  0.00    -0.235 A  
HETATM   19  C   UNL     1     -10.398   4.829  72.000  1.00  0.00    -0.247 A  
ENDBRANCH  13  14
ENDBRANCH   5  13
BRANCH   7  20
HETATM   20  N   UNL     1      -7.813  11.384  66.864  1.00  0.00    -0.153 N  
HETATM   21  H   UNL     1      -8.453  11.170  66.099  1.00  0.00     0.000 HD 
HETATM   22  O   UNL     1      -7.009  13.095  68.220  1.00  0.00    -0.084 OA 
HETATM   23  C   UNL     1      -7.810  12.661  67.397  1.00  0.00    -0.175 C  
BRANCH  23  24
HETATM   24  C   UNL     1      -8.888  13.627  66.960  1.00  0.00    -0.223 C  
BRANCH  24  25
HETATM   25  N   UNL     1      -9.546  13.593  65.835  1.00  0.00    -0.490 NA 
HETATM   26  H   UNL     1      -9.266  14.152  65.029  1.00  0.00     0.000 HD 
BRANCH  25  27
HETATM   27  O   UNL     1     -10.659  12.745  65.798  1.00  0.00    -0.265 OA 
HETATM   28  C   UNL     1     -12.755  12.231  64.773  1.00  0.00    -0.198 C  
HETATM   29  C   UNL     1     -10.683  12.480  63.394  1.00  0.00    -0.321 C  
HETATM   30  O   UNL     1     -10.929  15.408  64.792  1.00  0.00    -0.420 OA 
HETATM   31  O   UNL     1     -12.830  14.851  63.737  1.00  0.00    -0.662 OA 
HETATM   32  C   UNL     1     -11.443  13.017  64.614  1.00  0.00    -0.336 C  
HETATM   33  C   UNL     1     -11.827  14.498  64.344  1.00  0.00    -0.403 C  
ENDBRANCH  25  27
ENDBRANCH  24  25
BRANCH  24  34
HETATM   34  C   UNL     1      -9.172  14.788  67.812  1.00  0.00    -0.194 A  
HETATM   35  H2  UNL     1     -11.212  16.993  70.836  1.00  0.00     0.000 HD 
HETATM   36  C   UNL     1      -8.678  16.065  67.612  1.00  0.00    -0.173 A  
HETATM   37  S   UNL     1      -9.347  17.142  68.762  1.00  0.00    -0.219 SA 
HETATM   38  H1  UNL     1     -11.637  15.285  70.858  1.00  0.00     0.000 HD 
HETATM   39  N   UNL     1     -11.100  16.053  70.456  1.00  0.00    -0.360 NA 
HETATM   40  N   UNL     1     -10.049  14.679  68.893  1.00  0.00    -0.236 NA 
HETATM   41  C   UNL     1     -10.250  15.850  69.438  1.00  0.00    -0.262 A  
ENDBRANCH  24  34
ENDBRANCH  23  24
ENDBRANCH   7  20
TORSDOF 7
ENDMDL
MODEL       68
REMARK 921   NORMALIZED FREE ENERGY PREDICTED BY IDOCK:   -6.08 KCAL/MOL
REMARK 922        TOTAL FREE ENERGY PREDICTED BY IDOCK:  -10.11 KCAL/MOL
REMARK 923 INTER-LIGAND FREE ENERGY PREDICTED BY IDOCK:   -8.31 KCAL/MOL
REMARK 924 INTRA-LIGAND FREE ENERGY PREDICTED BY IDOCK:   -1.80 KCAL/MOL
REMARK 927      BINDING AFFINITY PREDICTED BY RF-SCORE:    0.00 PKD
ROOT
HETATM    1  O   UNL     1     -11.258   6.832  66.994  1.00  0.00    -0.393 OA 
HETATM    2  C   UNL     1     -11.076   6.862  68.232  1.00  0.00    -0.074 C  
HETATM    3  CA  UNL     1     -10.001   7.900  68.779  1.00  0.00    -0.187 C  
HETATM    4  OXT UNL     1     -11.628   6.162  69.137  1.00  0.00    -0.287 OA 
HETATM    5  C   UNL     1      -9.980   8.225  70.096  1.00  0.00    -0.187 C  
HETATM    6  C   UNL     1      -9.055   9.221  70.745  1.00  0.00    -0.244 C  
HETATM    7  CA  UNL     1      -7.966   9.993  67.045  1.00  0.00    -0.106 C  
HETATM    8  S   UNL     1      -7.654   9.879  69.859  1.00  0.00    -0.174 SA 
HETATM    9  N   UNL     1      -9.146   8.557  67.940  1.00  0.00    -0.140 N  
HETATM   10  O   UNL     1      -9.961   9.093  65.757  1.00  0.00    -0.277 OA 
HETATM   11  C   UNL     1      -7.834   9.046  68.279  1.00  0.00    -0.100 C  
HETATM   12  C   UNL     1      -9.188   9.075  66.683  1.00  0.00    -0.167 C  
ENDROOT
BRANCH   5  13
HETATM   13  C   UNL     1     -10.977   7.681  71.103  1.00  0.00    -0.246 C  
BRANCH  13  14
HETATM   14  N   UNL     1     -10.426   6.855  72.221  1.00  0.00    -0.204 NA 
HETATM   15  C   UNL     1      -9.937   6.512  74.532  1.00  0.00    -0.358 A  
HETATM   16  C   UNL     1      -8.991   5.551  74.200  1.00  0.00    -0.118 A  
HETATM   17  C   UNL     1     -10.659   7.148  73.522  1.00  0.00    -0.374 A  
HETATM   18  C   UNL     1      -9.576   5.852  71.894  1.00  0.00    -0.151 A  
HETATM   19  C   UNL     1      -8.827   5.201  72.869  1.00  0.00    -0.117 A  
ENDBRANCH  13  14
ENDBRANCH   5  13
BRANCH   7  20
HETATM   20  N   UNL     1      -8.331  11.451  67.258  1.00  0.00    -0.143 N  
HETATM   21  H   UNL     1      -9.291  11.688  67.508  1.00  0.00     0.000 HD 
HETATM   22  O   UNL     1      -6.257  12.347  66.702  1.00  0.00    -0.086 OA 
HETATM   23  C   UNL     1      -7.403  12.470  67.124  1.00  0.00    -0.063 C  
BRANCH  23  24
HETATM   24  C   UNL     1      -7.801  13.867  67.544  1.00  0.00    -0.181 C  
BRANCH  24  25
HETATM   25  N   UNL     1      -8.656  14.642  66.936  1.00  0.00    -0.318 NA 
HETATM   26  H   UNL     1      -8.361  15.475  66.427  1.00  0.00     0.000 HD 
BRANCH  25  27
HETATM   27  O   UNL     1     -10.001  14.264  67.024  1.00  0.00    -0.250 OA 
HETATM   28  C   UNL     1     -12.172  14.335  66.029  1.00  0.00    -0.422 C  
HETATM   29  C   UNL     1     -10.196  13.523  64.729  1.00  0.00    -0.355 C  
HETATM   30  O   UNL     1      -9.321  16.568  65.474  1.00  0.00    -0.453 OA 
HETATM   31  O   UNL     1     -11.326  16.524  64.468  1.00  0.00    -0.763 OA 
HETATM   32  C   UNL     1     -10.670  14.544  65.773  1.00  0.00    -0.315 C  
HETATM   33  C   UNL     1     -10.500  15.970  65.183  1.00  0.00    -0.303 C  
ENDBRANCH  25  27
ENDBRANCH  24  25
BRANCH  24  34
HETATM   34  C   UNL     1      -7.101  14.481  68.677  1.00  0.00    -0.113 A  
HETATM   35  H2  UNL     1      -5.069  17.581  70.783  1.00  0.00     0.000 HD 
HETATM   36  C   UNL     1      -6.601  13.799  69.773  1.00  0.00    -0.034 A  
HETATM   37  S   UNL     1      -5.757  14.874  70.802  1.00  0.00    -0.084 SA 
HETATM   38  H1  UNL     1      -5.841  18.171  69.314  1.00  0.00     0.000 HD 
HETATM   39  N   UNL     1      -5.636  17.403  69.953  1.00  0.00    -0.222 NA 
HETATM   40  N   UNL     1      -6.831  15.851  68.688  1.00  0.00    -0.120 NA 
HETATM   41  C   UNL     1      -6.100  16.165  69.726  1.00  0.00    -0.181 A  
ENDBRANCH  24  34
ENDBRANCH  23  24
ENDBRANCH   7  20
TORSDOF 7
ENDMDL
MODEL       69
REMARK 921   NORMALIZED FREE ENERGY PREDICTED BY IDOCK:   -6.07 KCAL/MOL
REMARK 922        TOTAL FREE ENERGY PREDICTED BY IDOCK:  -10.10 KCAL/MOL
REMARK 923 INTER-LIGAND FREE ENERGY PREDICTED BY IDOCK:   -9.08 KCAL/MOL
REMARK 924 INTRA-LIGAND FREE ENERGY PREDICTED BY IDOCK:   -1.02 KCAL/MOL
REMARK 927      BINDING AFFINITY PREDICTED BY RF-SCORE:    0.00 PKD
ROOT
HETATM    1  O   UNL     1     -11.001  17.886  66.264  1.00  0.00    -0.036 OA 
HETATM    2  C   UNL     1      -9.758  17.981  66.368  1.00  0.00    -0.321 C  
HETATM    3  CA  UNL     1      -9.000  16.784  67.093  1.00  0.00    -0.204 C  
HETATM    4  OXT UNL     1      -8.994  18.919  65.982  1.00  0.00    -0.470 OA 
HETATM    5  C   UNL     1      -7.657  16.650  66.958  1.00  0.00    -0.237 C  
HETATM    6  C   UNL     1      -6.816  15.546  67.544  1.00  0.00    -0.195 C  
HETATM    7  CA  UNL     1     -10.290  14.012  68.570  1.00  0.00    -0.247 C  
HETATM    8  S   UNL     1      -7.493  14.428  68.759  1.00  0.00    -0.136 SA 
HETATM    9  N   UNL     1      -9.677  15.817  67.779  1.00  0.00    -0.215 N  
HETATM   10  O   UNL     1     -11.843  15.215  66.962  1.00  0.00    -0.209 OA 
HETATM   11  C   UNL     1      -9.171  15.053  68.891  1.00  0.00    -0.206 C  
HETATM   12  C   UNL     1     -10.862  15.159  67.663  1.00  0.00    -0.295 C  
ENDROOT
BRANCH   5  13
HETATM   13  C   UNL     1      -6.811  17.570  66.096  1.00  0.00    -0.276 C  
BRANCH  13  14
HETATM   14  N   UNL     1      -6.220  18.769  66.765  1.00  0.00    -0.176 NA 
HETATM   15  C   UNL     1      -5.715  20.045  68.719  1.00  0.00    -0.272 A  
HETATM   16  C   UNL     1      -5.560  21.187  67.945  1.00  0.00    -0.386 A  
HETATM   17  C   UNL     1      -6.034  18.833  68.104  1.00  0.00    -0.211 A  
HETATM   18  C   UNL     1      -5.978  19.857  65.995  1.00  0.00    -0.169 A  
HETATM   19  C   UNL     1      -5.669  21.087  66.567  1.00  0.00    -0.288 A  
ENDBRANCH  13  14
ENDBRANCH   5  13
BRANCH   7  20
HETATM   20  N   UNL     1      -9.936  12.744  67.814  1.00  0.00    -0.213 N  
HETATM   21  H   UNL     1      -8.958  12.563  67.586  1.00  0.00     0.000 HD 
HETATM   22  O   UNL     1     -12.111  11.976  67.512  1.00  0.00    -0.555 OA 
HETATM   23  C   UNL     1     -10.896  11.826  67.425  1.00  0.00    -0.251 C  
BRANCH  23  24
HETATM   24  C   UNL     1     -10.438  10.504  66.852  1.00  0.00    -0.246 C  
BRANCH  24  25
HETATM   25  N   UNL     1     -10.292   9.387  67.509  1.00  0.00    -0.238 NA 
HETATM   26  H   UNL     1      -9.787   8.592  67.116  1.00  0.00     0.000 HD 
BRANCH  25  27
HETATM   27  O   UNL     1     -10.867   9.341  68.784  1.00  0.00    -0.187 OA 
HETATM   28  C   UNL     1     -11.203   8.085  70.789  1.00  0.00    -0.275 C  
HETATM   29  C   UNL     1      -8.898   8.499  69.910  1.00  0.00    -0.137 C  
HETATM   30  O   UNL     1     -10.287   6.879  67.453  1.00  0.00    -0.179 OA 
HETATM   31  O   UNL     1     -10.485   5.751  69.382  1.00  0.00    -0.232 OA 
HETATM   32  C   UNL     1     -10.352   8.204  69.514  1.00  0.00    -0.222 C  
HETATM   33  C   UNL     1     -10.400   6.825  68.801  1.00  0.00    -0.196 C  
ENDBRANCH  25  27
ENDBRANCH  24  25
BRANCH  24  34
HETATM   34  C   UNL     1     -10.008  10.461  65.451  1.00  0.00    -0.295 A  
HETATM   35  H2  UNL     1      -7.785   9.048  62.099  1.00  0.00     0.000 HD 
HETATM   36  C   UNL     1     -10.272  11.436  64.504  1.00  0.00    -0.299 A  
HETATM   37  S   UNL     1      -9.492  11.053  63.030  1.00  0.00    -0.378 SA 
HETATM   38  H1  UNL     1      -7.652   7.971  63.487  1.00  0.00     0.000 HD 
HETATM   39  N   UNL     1      -8.032   8.817  63.062  1.00  0.00    -0.153 NA 
HETATM   40  N   UNL     1      -9.217   9.411  64.981  1.00  0.00    -0.239 NA 
HETATM   41  C   UNL     1      -8.851   9.631  63.744  1.00  0.00    -0.231 A  
ENDBRANCH  24  34
ENDBRANCH  23  24
ENDBRANCH   7  20
TORSDOF 7
ENDMDL
MODEL       70
REMARK 921   NORMALIZED FREE ENERGY PREDICTED BY IDOCK:   -6.07 KCAL/MOL
REMARK 922        TOTAL FREE ENERGY PREDICTED BY IDOCK:  -10.09 KCAL/MOL
REMARK 923 INTER-LIGAND FREE ENERGY PREDICTED BY IDOCK:   -8.77 KCAL/MOL
REMARK 924 INTRA-LIGAND FREE ENERGY PREDICTED BY IDOCK:   -1.32 KCAL/MOL
REMARK 927      BINDING AFFINITY PREDICTED BY RF-SCORE:    0.00 PKD
ROOT
HETATM    1  O   UNL     1     -11.010  17.667  66.299  1.00  0.00    -0.019 OA 
HETATM    2  C   UNL     1      -9.778  17.812  66.463  1.00  0.00    -0.320 C  
HETATM    3  CA  UNL     1      -8.990  16.598  67.124  1.00  0.00    -0.210 C  
HETATM    4  OXT UNL     1      -9.048  18.813  66.183  1.00  0.00    -0.445 OA 
HETATM    5  C   UNL     1      -7.637  16.538  67.036  1.00  0.00    -0.240 C  
HETATM    6  C   UNL     1      -6.764  15.433  67.570  1.00  0.00    -0.181 C  
HETATM    7  CA  UNL     1     -10.194  13.659  68.325  1.00  0.00    -0.243 C  
HETATM    8  S   UNL     1      -7.431  14.191  68.664  1.00  0.00    -0.127 SA 
HETATM    9  N   UNL     1      -9.643  15.548  67.704  1.00  0.00    -0.210 N  
HETATM   10  O   UNL     1     -11.743  14.912  66.751  1.00  0.00    -0.335 OA 
HETATM   11  C   UNL     1      -9.142  14.723  68.774  1.00  0.00    -0.191 C  
HETATM   12  C   UNL     1     -10.788  14.846  67.487  1.00  0.00    -0.292 C  
ENDROOT
BRANCH   5  13
HETATM   13  C   UNL     1      -6.806  17.563  66.284  1.00  0.00    -0.287 C  
BRANCH  13  14
HETATM   14  N   UNL     1      -6.235  18.689  67.086  1.00  0.00    -0.180 NA 
HETATM   15  C   UNL     1      -6.117  19.995  69.080  1.00  0.00    -0.331 A  
HETATM   16  C   UNL     1      -5.528  21.037  68.375  1.00  0.00    -0.379 A  
HETATM   17  C   UNL     1      -6.453  18.816  68.415  1.00  0.00    -0.226 A  
HETATM   18  C   UNL     1      -5.575  19.661  66.412  1.00  0.00    -0.167 A  
HETATM   19  C   UNL     1      -5.232  20.858  67.033  1.00  0.00    -0.238 A  
ENDBRANCH  13  14
ENDBRANCH   5  13
BRANCH   7  20
HETATM   20  N   UNL     1      -9.747  12.474  67.489  1.00  0.00    -0.193 N  
HETATM   21  H   UNL     1      -8.789  12.450  67.140  1.00  0.00     0.000 HD 
HETATM   22  O   UNL     1     -11.801  11.384  67.421  1.00  0.00    -0.609 OA 
HETATM   23  C   UNL     1     -10.598  11.425  67.185  1.00  0.00    -0.243 C  
BRANCH  23  24
HETATM   24  C   UNL     1     -10.019  10.198  66.516  1.00  0.00    -0.224 C  
BRANCH  24  25
HETATM   25  N   UNL     1      -9.744   9.062  67.092  1.00  0.00    -0.169 NA 
HETATM   26  H   UNL     1      -9.036   8.984  67.823  1.00  0.00     0.000 HD 
BRANCH  25  27
HETATM   27  O   UNL     1     -10.476   7.953  66.651  1.00  0.00    -0.296 OA 
HETATM   28  C   UNL     1     -10.741   5.579  66.692  1.00  0.00    -0.332 C  
HETATM   29  C   UNL     1     -10.645   6.893  68.818  1.00  0.00    -0.247 C  
HETATM   30  O   UNL     1      -7.763   7.568  67.466  1.00  0.00    -0.112 OA 
HETATM   31  O   UNL     1      -8.089   5.353  67.618  1.00  0.00    -0.100 OA 
HETATM   32  C   UNL     1     -10.083   6.778  67.395  1.00  0.00    -0.175 C  
HETATM   33  C   UNL     1      -8.562   6.475  67.488  1.00  0.00    -0.119 C  
ENDBRANCH  25  27
ENDBRANCH  24  25
BRANCH  24  34
HETATM   34  C   UNL     1      -9.618  10.295  65.108  1.00  0.00    -0.277 A  
HETATM   35  H2  UNL     1      -6.958  10.024  61.789  1.00  0.00     0.000 HD 
HETATM   36  C   UNL     1     -10.341  10.929  64.113  1.00  0.00    -0.364 A  
HETATM   37  S   UNL     1      -9.464  10.911  62.644  1.00  0.00    -0.262 SA 
HETATM   38  H1  UNL     1      -6.297   9.263  63.234  1.00  0.00     0.000 HD 
HETATM   39  N   UNL     1      -7.057   9.761  62.770  1.00  0.00    -0.111 NA 
HETATM   40  N   UNL     1      -8.394   9.777  64.681  1.00  0.00    -0.150 NA 
HETATM   41  C   UNL     1      -8.185  10.075  63.424  1.00  0.00    -0.164 A  
ENDBRANCH  24  34
ENDBRANCH  23  24
ENDBRANCH   7  20
TORSDOF 7
ENDMDL
MODEL       71
REMARK 921   NORMALIZED FREE ENERGY PREDICTED BY IDOCK:   -6.04 KCAL/MOL
REMARK 922        TOTAL FREE ENERGY PREDICTED BY IDOCK:  -10.06 KCAL/MOL
REMARK 923 INTER-LIGAND FREE ENERGY PREDICTED BY IDOCK:   -8.47 KCAL/MOL
REMARK 924 INTRA-LIGAND FREE ENERGY PREDICTED BY IDOCK:   -1.59 KCAL/MOL
REMARK 927      BINDING AFFINITY PREDICTED BY RF-SCORE:    0.00 PKD
ROOT
HETATM    1  O   UNL     1      -7.865   7.121  66.182  1.00  0.00    -0.097 OA 
HETATM    2  C   UNL     1      -7.880   7.164  67.432  1.00  0.00    -0.112 C  
HETATM    3  CA  UNL     1      -7.559   8.567  68.110  1.00  0.00    -0.098 C  
HETATM    4  OXT UNL     1      -8.107   6.228  68.260  1.00  0.00    -0.110 OA 
HETATM    5  C   UNL     1      -7.871   8.779  69.414  1.00  0.00    -0.095 C  
HETATM    6  C   UNL     1      -7.671  10.064  70.173  1.00  0.00    -0.143 C  
HETATM    7  CA  UNL     1      -6.672  11.501  66.650  1.00  0.00    -0.077 C  
HETATM    8  S   UNL     1      -6.699  11.391  69.482  1.00  0.00    -0.094 SA 
HETATM    9  N   UNL     1      -7.060   9.615  67.390  1.00  0.00    -0.085 N  
HETATM   10  O   UNL     1      -7.753   9.797  65.109  1.00  0.00    -0.113 OA 
HETATM   11  C   UNL     1      -6.232  10.678  67.902  1.00  0.00    -0.054 C  
HETATM   12  C   UNL     1      -7.201  10.116  66.134  1.00  0.00    -0.115 C  
ENDROOT
BRANCH   5  13
HETATM   13  C   UNL     1      -8.571   7.747  70.280  1.00  0.00    -0.138 C  
BRANCH  13  14
HETATM   14  N   UNL     1      -9.937   8.096  70.776  1.00  0.00    -0.187 NA 
HETATM   15  C   UNL     1     -11.839   9.537  70.845  1.00  0.00    -0.385 A  
HETATM   16  C   UNL     1     -12.237   8.971  72.049  1.00  0.00    -0.446 A  
HETATM   17  C   UNL     1     -10.685   9.073  70.213  1.00  0.00    -0.230 A  
HETATM   18  C   UNL     1     -10.370   7.475  71.900  1.00  0.00    -0.193 A  
HETATM   19  C   UNL     1     -11.508   7.913  72.569  1.00  0.00    -0.455 A  
ENDBRANCH  13  14
ENDBRANCH   5  13
BRANCH   7  20
HETATM   20  N   UNL     1      -7.750  12.560  66.793  1.00  0.00    -0.384 N  
HETATM   21  H   UNL     1      -8.716  12.313  66.578  1.00  0.00     0.000 HD 
HETATM   22  O   UNL     1      -6.343  14.322  67.368  1.00  0.00    -0.324 OA 
HETATM   23  C   UNL     1      -7.465  13.850  67.206  1.00  0.00    -0.028 C  
BRANCH  23  24
HETATM   24  C   UNL     1      -8.617  14.781  67.509  1.00  0.00    -0.187 C  
BRANCH  24  25
HETATM   25  N   UNL     1      -8.531  15.974  68.028  1.00  0.00    -0.162 NA 
HETATM   26  H   UNL     1      -8.673  16.140  69.025  1.00  0.00     0.000 HD 
BRANCH  25  27
HETATM   27  O   UNL     1      -8.232  17.013  67.139  1.00  0.00    -0.179 OA 
HETATM   28  C   UNL     1      -8.344  19.356  66.682  1.00  0.00    -0.326 C  
HETATM   29  C   UNL     1      -7.338  18.515  68.811  1.00  0.00    -0.312 C  
HETATM   30  O   UNL     1     -10.378  17.370  68.993  1.00  0.00    -0.343 OA 
HETATM   31  O   UNL     1     -10.367  19.584  68.632  1.00  0.00    -0.404 OA 
HETATM   32  C   UNL     1      -8.454  18.288  67.783  1.00  0.00    -0.249 C  
HETATM   33  C   UNL     1      -9.824  18.496  68.487  1.00  0.00    -0.381 C  
ENDBRANCH  25  27
ENDBRANCH  24  25
BRANCH  24  34
HETATM   34  C   UNL     1      -9.984  14.287  67.310  1.00  0.00    -0.252 A  
HETATM   35  H2  UNL     1     -13.209  11.518  67.628  1.00  0.00     0.000 HD 
HETATM   36  C   UNL     1     -10.913  14.833  66.442  1.00  0.00    -0.331 A  
HETATM   37  S   UNL     1     -12.338  13.886  66.430  1.00  0.00    -0.368 SA 
HETATM   38  H1  UNL     1     -11.854  11.082  68.664  1.00  0.00     0.000 HD 
HETATM   39  N   UNL     1     -12.276  11.719  67.988  1.00  0.00    -0.425 NA 
HETATM   40  N   UNL     1     -10.430  13.144  67.976  1.00  0.00    -0.232 NA 
HETATM   41  C   UNL     1     -11.628  12.815  67.566  1.00  0.00    -0.356 A  
ENDBRANCH  24  34
ENDBRANCH  23  24
ENDBRANCH   7  20
TORSDOF 7
ENDMDL
MODEL       72
REMARK 921   NORMALIZED FREE ENERGY PREDICTED BY IDOCK:   -6.00 KCAL/MOL
REMARK 922        TOTAL FREE ENERGY PREDICTED BY IDOCK:   -9.99 KCAL/MOL
REMARK 923 INTER-LIGAND FREE ENERGY PREDICTED BY IDOCK:   -8.44 KCAL/MOL
REMARK 924 INTRA-LIGAND FREE ENERGY PREDICTED BY IDOCK:   -1.55 KCAL/MOL
REMARK 927      BINDING AFFINITY PREDICTED BY RF-SCORE:    0.00 PKD
ROOT
HETATM    1  O   UNL     1      -5.359  10.759  67.869  1.00  0.00    -0.040 OA 
HETATM    2  C   UNL     1      -6.393  11.140  67.277  1.00  0.00    -0.074 C  
HETATM    3  CA  UNL     1      -7.597  10.103  67.185  1.00  0.00    -0.092 C  
HETATM    4  OXT UNL     1      -6.625  12.255  66.714  1.00  0.00    -0.039 OA 
HETATM    5  C   UNL     1      -8.842  10.535  66.862  1.00  0.00    -0.143 C  
HETATM    6  C   UNL     1     -10.080   9.681  66.784  1.00  0.00    -0.236 C  
HETATM    7  CA  UNL     1      -7.737   6.882  68.248  1.00  0.00    -0.113 C  
HETATM    8  S   UNL     1      -9.967   7.901  66.828  1.00  0.00    -0.256 SA 
HETATM    9  N   UNL     1      -7.438   8.789  67.519  1.00  0.00    -0.089 N  
HETATM   10  O   UNL     1      -5.882   8.287  69.264  1.00  0.00    -0.033 OA 
HETATM   11  C   UNL     1      -8.193   7.681  66.987  1.00  0.00    -0.117 C  
HETATM   12  C   UNL     1      -6.729   8.072  68.431  1.00  0.00    -0.067 C  
ENDROOT
BRANCH   5  13
HETATM   13  C   UNL     1      -9.180  11.995  66.621  1.00  0.00    -0.211 C  
BRANCH  13  14
HETATM   14  N   UNL     1     -10.227  12.286  65.594  1.00  0.00    -0.256 NA 
HETATM   15  C   UNL     1     -12.478  12.785  64.977  1.00  0.00    -0.572 A  
HETATM   16  C   UNL     1     -12.231  12.348  63.682  1.00  0.00    -0.653 A  
HETATM   17  C   UNL     1     -11.452  12.758  65.922  1.00  0.00    -0.356 A  
HETATM   18  C   UNL     1      -9.952  11.948  64.311  1.00  0.00    -0.246 A  
HETATM   19  C   UNL     1     -10.949  11.948  63.340  1.00  0.00    -0.470 A  
ENDBRANCH  13  14
ENDBRANCH   5  13
BRANCH   7  20
HETATM   20  N   UNL     1      -8.700   6.703  69.408  1.00  0.00    -0.134 N  
HETATM   21  H   UNL     1      -8.743   7.425  70.128  1.00  0.00     0.000 HD 
HETATM   22  O   UNL     1      -9.481   4.596  68.809  1.00  0.00    -0.130 OA 
HETATM   23  C   UNL     1      -9.521   5.595  69.520  1.00  0.00    -0.136 C  
BRANCH  23  24
HETATM   24  C   UNL     1     -10.584   5.591  70.596  1.00  0.00    -0.259 C  
BRANCH  24  25
HETATM   25  N   UNL     1     -11.647   6.344  70.634  1.00  0.00    -0.369 NA 
HETATM   26  H   UNL     1     -12.547   5.991  70.960  1.00  0.00     0.000 HD 
BRANCH  25  27
HETATM   27  O   UNL     1     -11.483   7.665  70.202  1.00  0.00    -0.199 OA 
HETATM   28  C   UNL     1     -11.935   9.977  70.601  1.00  0.00    -0.401 C  
HETATM   29  C   UNL     1     -10.877   8.557  72.367  1.00  0.00    -0.378 C  
HETATM   30  O   UNL     1     -13.712   7.038  71.877  1.00  0.00    -0.293 OA 
HETATM   31  O   UNL     1     -14.026   9.213  72.330  1.00  0.00    -0.450 OA 
HETATM   32  C   UNL     1     -11.915   8.577  71.237  1.00  0.00    -0.294 C  
HETATM   33  C   UNL     1     -13.320   8.334  71.852  1.00  0.00    -0.342 C  
ENDBRANCH  25  27
ENDBRANCH  24  25
BRANCH  24  34
HETATM   34  C   UNL     1     -10.378   4.746  71.777  1.00  0.00    -0.160 A  
HETATM   35  H2  UNL     1      -9.338   1.194  73.893  1.00  0.00     0.000 HD 
HETATM   36  C   UNL     1     -10.825   5.036  73.055  1.00  0.00    -0.273 A  
HETATM   37  S   UNL     1     -10.477   3.735  74.111  1.00  0.00    -0.215 SA 
HETATM   38  H1  UNL     1      -8.861   1.123  72.199  1.00  0.00     0.000 HD 
HETATM   39  N   UNL     1      -9.283   1.634  72.974  1.00  0.00    -0.065 NA 
HETATM   40  N   UNL     1      -9.738   3.510  71.665  1.00  0.00    -0.158 NA 
HETATM   41  C   UNL     1      -9.767   2.875  72.808  1.00  0.00    -0.122 A  
ENDBRANCH  24  34
ENDBRANCH  23  24
ENDBRANCH   7  20
TORSDOF 7
ENDMDL
MODEL       73
REMARK 921   NORMALIZED FREE ENERGY PREDICTED BY IDOCK:   -5.98 KCAL/MOL
REMARK 922        TOTAL FREE ENERGY PREDICTED BY IDOCK:   -9.97 KCAL/MOL
REMARK 923 INTER-LIGAND FREE ENERGY PREDICTED BY IDOCK:   -8.01 KCAL/MOL
REMARK 924 INTRA-LIGAND FREE ENERGY PREDICTED BY IDOCK:   -1.96 KCAL/MOL
REMARK 927      BINDING AFFINITY PREDICTED BY RF-SCORE:    0.00 PKD
ROOT
HETATM    1  O   UNL     1     -12.439   9.208  72.351  1.00  0.00    -0.352 OA 
HETATM    2  C   UNL     1     -11.387   8.530  72.381  1.00  0.00    -0.342 C  
HETATM    3  CA  UNL     1     -10.476   8.552  71.076  1.00  0.00    -0.212 C  
HETATM    4  OXT UNL     1     -10.934   7.801  73.317  1.00  0.00    -0.382 OA 
HETATM    5  C   UNL     1      -9.189   8.126  71.139  1.00  0.00    -0.185 C  
HETATM    6  C   UNL     1      -8.200   8.133  70.004  1.00  0.00    -0.120 C  
HETATM    7  CA  UNL     1     -11.038  10.076  68.095  1.00  0.00    -0.193 C  
HETATM    8  S   UNL     1      -8.732   8.445  68.330  1.00  0.00    -0.143 SA 
HETATM    9  N   UNL     1     -10.921   9.082  69.899  1.00  0.00    -0.223 N  
HETATM   10  O   UNL     1     -12.428  10.934  70.039  1.00  0.00    -0.323 OA 
HETATM   11  C   UNL     1     -10.492   8.695  68.579  1.00  0.00    -0.172 C  
HETATM   12  C   UNL     1     -11.717  10.115  69.510  1.00  0.00    -0.061 C  
ENDROOT
BRANCH   5  13
HETATM   13  C   UNL     1      -8.529   7.660  72.424  1.00  0.00    -0.117 C  
BRANCH  13  14
HETATM   14  N   UNL     1      -8.182   6.208  72.517  1.00  0.00    -0.108 NA 
HETATM   15  C   UNL     1      -8.778   3.899  72.414  1.00  0.00    -0.116 A  
HETATM   16  C   UNL     1      -7.652   3.564  73.154  1.00  0.00    -0.065 A  
HETATM   17  C   UNL     1      -9.021   5.234  72.092  1.00  0.00    -0.129 A  
HETATM   18  C   UNL     1      -7.034   5.881  73.156  1.00  0.00    -0.084 A  
HETATM   19  C   UNL     1      -6.759   4.564  73.508  1.00  0.00    -0.059 A  
ENDBRANCH  13  14
ENDBRANCH   5  13
BRANCH   7  20
HETATM   20  N   UNL     1     -10.067  11.216  67.843  1.00  0.00    -0.173 N  
HETATM   21  H   UNL     1      -9.069  11.051  67.974  1.00  0.00     0.000 HD 
HETATM   22  O   UNL     1     -11.659  12.847  67.374  1.00  0.00    -0.318 OA 
HETATM   23  C   UNL     1     -10.492  12.470  67.441  1.00  0.00    -0.219 C  
BRANCH  23  24
HETATM   24  C   UNL     1      -9.451  13.485  67.026  1.00  0.00    -0.251 C  
BRANCH  24  25
HETATM   25  N   UNL     1      -8.158  13.350  67.124  1.00  0.00    -0.353 NA 
HETATM   26  H   UNL     1      -7.547  13.398  66.309  1.00  0.00     0.000 HD 
BRANCH  25  27
HETATM   27  O   UNL     1      -7.657  13.137  68.414  1.00  0.00    -0.121 OA 
HETATM   28  C   UNL     1      -6.068  11.993  69.784  1.00  0.00    -0.145 C  
HETATM   29  C   UNL     1      -5.324  13.328  67.804  1.00  0.00    -0.088 C  
HETATM   30  O   UNL     1      -7.271  11.106  66.439  1.00  0.00    -0.138 OA 
HETATM   31  O   UNL     1      -5.691  10.134  67.700  1.00  0.00    -0.045 OA 
HETATM   32  C   UNL     1      -6.418  12.395  68.341  1.00  0.00    -0.058 C  
HETATM   33  C   UNL     1      -6.420  11.095  67.492  1.00  0.00    -0.069 C  
ENDBRANCH  25  27
ENDBRANCH  24  25
BRANCH  24  34
HETATM   34  C   UNL     1      -9.905  14.800  66.561  1.00  0.00    -0.272 A  
HETATM   35  H2  UNL     1     -11.538  17.604  63.796  1.00  0.00     0.000 HD 
HETATM   36  C   UNL     1      -9.642  16.005  67.190  1.00  0.00    -0.218 A  
HETATM   37  S   UNL     1     -10.252  17.303  66.257  1.00  0.00    -0.314 SA 
HETATM   38  H1  UNL     1     -11.749  15.940  63.258  1.00  0.00     0.000 HD 
HETATM   39  N   UNL     1     -11.414  16.604  63.956  1.00  0.00    -1.136 NA 
HETATM   40  N   UNL     1     -10.615  14.926  65.365  1.00  0.00    -0.343 NA 
HETATM   41  C   UNL     1     -10.815  16.187  65.082  1.00  0.00    -0.361 A  
ENDBRANCH  24  34
ENDBRANCH  23  24
ENDBRANCH   7  20
TORSDOF 7
ENDMDL
MODEL       74
REMARK 921   NORMALIZED FREE ENERGY PREDICTED BY IDOCK:   -5.96 KCAL/MOL
REMARK 922        TOTAL FREE ENERGY PREDICTED BY IDOCK:   -9.93 KCAL/MOL
REMARK 923 INTER-LIGAND FREE ENERGY PREDICTED BY IDOCK:   -8.39 KCAL/MOL
REMARK 924 INTRA-LIGAND FREE ENERGY PREDICTED BY IDOCK:   -1.54 KCAL/MOL
REMARK 927      BINDING AFFINITY PREDICTED BY RF-SCORE:    0.00 PKD
ROOT
HETATM    1  O   UNL     1     -11.282  16.605  64.094  1.00  0.00    -1.103 OA 
HETATM    2  C   UNL     1     -11.032  17.208  65.161  1.00  0.00     0.048 C  
HETATM    3  CA  UNL     1     -10.983  16.333  66.490  1.00  0.00    -0.007 C  
HETATM    4  OXT UNL     1     -10.819  18.446  65.347  1.00  0.00    -0.577 OA 
HETATM    5  C   UNL     1     -10.407  16.835  67.612  1.00  0.00    -0.309 C  
HETATM    6  C   UNL     1     -10.247  16.110  68.922  1.00  0.00    -0.245 C  
HETATM    7  CA  UNL     1     -11.613  13.023  66.903  1.00  0.00    -0.366 C  
HETATM    8  S   UNL     1     -11.089  14.567  69.221  1.00  0.00    -0.275 SA 
HETATM    9  N   UNL     1     -11.421  15.041  66.515  1.00  0.00    -0.293 N  
HETATM   10  O   UNL     1     -11.133  13.754  64.519  1.00  0.00    -0.373 OA 
HETATM   11  C   UNL     1     -11.950  14.346  67.662  1.00  0.00    -0.343 C  
HETATM   12  C   UNL     1     -11.428  13.976  65.669  1.00  0.00    -0.319 C  
ENDROOT
BRANCH   5  13
HETATM   13  C   UNL     1      -9.746  18.201  67.669  1.00  0.00    -0.292 C  
BRANCH  13  14
HETATM   14  N   UNL     1      -8.252  18.227  67.721  1.00  0.00    -0.244 NA 
HETATM   15  C   UNL     1      -6.198  19.088  68.580  1.00  0.00    -0.244 A  
HETATM   16  C   UNL     1      -5.519  18.605  67.469  1.00  0.00    -0.147 A  
HETATM   17  C   UNL     1      -7.572  18.876  68.695  1.00  0.00    -0.331 A  
HETATM   18  C   UNL     1      -7.582  17.670  66.683  1.00  0.00    -0.238 A  
HETATM   19  C   UNL     1      -6.215  17.868  66.524  1.00  0.00    -0.216 A  
ENDBRANCH  13  14
ENDBRANCH   5  13
BRANCH   7  20
HETATM   20  N   UNL     1     -10.364  12.246  67.276  1.00  0.00    -0.213 N  
HETATM   21  H   UNL     1      -9.803  12.564  68.067  1.00  0.00     0.000 HD 
HETATM   22  O   UNL     1     -10.457  10.704  65.537  1.00  0.00    -0.248 OA 
HETATM   23  C   UNL     1      -9.961  11.120  66.580  1.00  0.00    -0.214 C  
BRANCH  23  24
HETATM   24  C   UNL     1      -8.821  10.297  67.136  1.00  0.00    -0.136 C  
BRANCH  24  25
HETATM   25  N   UNL     1      -7.811   9.820  66.463  1.00  0.00    -0.108 NA 
HETATM   26  H   UNL     1      -7.198  10.421  65.912  1.00  0.00     0.000 HD 
BRANCH  25  27
HETATM   27  O   UNL     1      -7.617   8.436  66.540  1.00  0.00    -0.086 OA 
HETATM   28  C   UNL     1      -6.851   6.454  65.447  1.00  0.00    -0.048 C  
HETATM   29  C   UNL     1      -5.365   8.455  65.657  1.00  0.00    -0.031 C  
HETATM   30  O   UNL     1      -7.876   9.643  63.962  1.00  0.00    -0.123 OA 
HETATM   31  O   UNL     1      -7.031   7.810  62.982  1.00  0.00    -0.076 OA 
HETATM   32  C   UNL     1      -6.810   7.992  65.426  1.00  0.00    -0.062 C  
HETATM   33  C   UNL     1      -7.253   8.442  64.007  1.00  0.00    -0.093 C  
ENDBRANCH  25  27
ENDBRANCH  24  25
BRANCH  24  34
HETATM   34  C   UNL     1      -8.877   9.888  68.544  1.00  0.00    -0.122 A  
HETATM   35  H2  UNL     1     -10.688   9.291  72.357  1.00  0.00     0.000 HD 
HETATM   36  C   UNL     1      -7.781   9.594  69.336  1.00  0.00    -0.101 A  
HETATM   37  S   UNL     1      -8.281   9.277  70.941  1.00  0.00    -0.052 SA 
HETATM   38  H1  UNL     1     -11.873   9.670  71.110  1.00  0.00     0.000 HD 
HETATM   39  N   UNL     1     -10.904   9.503  71.382  1.00  0.00    -0.350 NA 
HETATM   40  N   UNL     1     -10.099   9.826  69.218  1.00  0.00    -0.186 NA 
HETATM   41  C   UNL     1      -9.910   9.558  70.484  1.00  0.00    -0.269 A  
ENDBRANCH  24  34
ENDBRANCH  23  24
ENDBRANCH   7  20
TORSDOF 7
ENDMDL
MODEL       75
REMARK 921   NORMALIZED FREE ENERGY PREDICTED BY IDOCK:   -5.95 KCAL/MOL
REMARK 922        TOTAL FREE ENERGY PREDICTED BY IDOCK:   -9.93 KCAL/MOL
REMARK 923 INTER-LIGAND FREE ENERGY PREDICTED BY IDOCK:   -8.09 KCAL/MOL
REMARK 924 INTRA-LIGAND FREE ENERGY PREDICTED BY IDOCK:   -1.84 KCAL/MOL
REMARK 927      BINDING AFFINITY PREDICTED BY RF-SCORE:    0.00 PKD
ROOT
HETATM    1  O   UNL     1      -5.270  10.146  65.571  1.00  0.00    -0.049 OA 
HETATM    2  C   UNL     1      -6.034   9.169  65.735  1.00  0.00    -0.051 C  
HETATM    3  CA  UNL     1      -7.177   9.322  66.832  1.00  0.00    -0.086 C  
HETATM    4  OXT UNL     1      -6.025   8.041  65.150  1.00  0.00    -0.044 OA 
HETATM    5  C   UNL     1      -8.228   8.462  66.842  1.00  0.00    -0.103 C  
HETATM    6  C   UNL     1      -9.401   8.513  67.785  1.00  0.00    -0.137 C  
HETATM    7  CA  UNL     1      -7.783  11.903  68.952  1.00  0.00    -0.016 C  
HETATM    8  S   UNL     1      -9.376   9.574  69.218  1.00  0.00    -0.179 SA 
HETATM    9  N   UNL     1      -7.188  10.360  67.717  1.00  0.00    -0.085 N  
HETATM   10  O   UNL     1      -6.318  12.453  66.952  1.00  0.00    -0.169 OA 
HETATM   11  C   UNL     1      -7.764  10.344  69.038  1.00  0.00    -0.116 C  
HETATM   12  C   UNL     1      -6.848  11.678  67.710  1.00  0.00    -0.079 C  
ENDROOT
BRANCH   5  13
HETATM   13  C   UNL     1      -8.411   7.360  65.814  1.00  0.00    -0.143 C  
BRANCH  13  14
HETATM   14  N   UNL     1      -8.592   5.971  66.338  1.00  0.00    -0.125 NA 
HETATM   15  C   UNL     1      -9.966   4.092  66.867  1.00  0.00    -0.127 A  
HETATM   16  C   UNL     1      -8.993   3.612  67.734  1.00  0.00    -0.165 A  
HETATM   17  C   UNL     1      -9.740   5.275  66.163  1.00  0.00    -0.161 A  
HETATM   18  C   UNL     1      -7.601   5.460  67.106  1.00  0.00    -0.092 A  
HETATM   19  C   UNL     1      -7.789   4.291  67.835  1.00  0.00    -0.079 A  
ENDBRANCH  13  14
ENDBRANCH   5  13
BRANCH   7  20
HETATM   20  N   UNL     1      -9.082  12.617  68.627  1.00  0.00    -0.397 N  
HETATM   21  H   UNL     1      -9.890  12.065  68.340  1.00  0.00     0.000 HD 
HETATM   22  O   UNL     1      -8.291  14.787  68.905  1.00  0.00    -0.162 OA 
HETATM   23  C   UNL     1      -9.206  13.994  68.706  1.00  0.00    -0.050 C  
BRANCH  23  24
HETATM   24  C   UNL     1     -10.582  14.603  68.556  1.00  0.00    -0.245 C  
BRANCH  24  25
HETATM   25  N   UNL     1     -11.053  15.193  67.493  1.00  0.00    -0.312 NA 
HETATM   26  H   UNL     1     -10.807  16.155  67.256  1.00  0.00     0.000 HD 
BRANCH  25  27
HETATM   27  O   UNL     1     -11.917  14.432  66.697  1.00  0.00    -0.407 OA 
HETATM   28  C   UNL     1     -12.695  13.930  64.495  1.00  0.00    -0.115 C  
HETATM   29  C   UNL     1     -10.258  13.828  65.045  1.00  0.00    -0.370 C  
HETATM   30  O   UNL     1     -10.975  16.936  65.691  1.00  0.00    -0.155 OA 
HETATM   31  O   UNL     1     -11.604  16.374  63.612  1.00  0.00    -0.926 OA 
HETATM   32  C   UNL     1     -11.565  14.588  65.304  1.00  0.00    -0.359 C  
HETATM   33  C   UNL     1     -11.407  16.039  64.773  1.00  0.00    -0.280 C  
ENDBRANCH  25  27
ENDBRANCH  24  25
BRANCH  24  34
HETATM   34  C   UNL     1     -11.458  14.647  69.732  1.00  0.00    -0.282 A  
HETATM   35  H2  UNL     1     -14.074  13.062  72.701  1.00  0.00     0.000 HD 
HETATM   36  C   UNL     1     -11.956  15.799  70.315  1.00  0.00    -0.361 A  
HETATM   37  S   UNL     1     -13.028  15.400  71.587  1.00  0.00    -0.469 SA 
HETATM   38  H1  UNL     1     -13.262  11.795  71.786  1.00  0.00     0.000 HD 
HETATM   39  N   UNL     1     -13.416  12.787  71.971  1.00  0.00    -0.494 NA 
HETATM   40  N   UNL     1     -11.912  13.467  70.325  1.00  0.00    -0.331 NA 
HETATM   41  C   UNL     1     -12.769  13.734  71.275  1.00  0.00    -0.371 A  
ENDBRANCH  24  34
ENDBRANCH  23  24
ENDBRANCH   7  20
TORSDOF 7
ENDMDL
MODEL       76
REMARK 921   NORMALIZED FREE ENERGY PREDICTED BY IDOCK:   -5.95 KCAL/MOL
REMARK 922        TOTAL FREE ENERGY PREDICTED BY IDOCK:   -9.92 KCAL/MOL
REMARK 923 INTER-LIGAND FREE ENERGY PREDICTED BY IDOCK:   -8.60 KCAL/MOL
REMARK 924 INTRA-LIGAND FREE ENERGY PREDICTED BY IDOCK:   -1.32 KCAL/MOL
REMARK 927      BINDING AFFINITY PREDICTED BY RF-SCORE:    0.00 PKD
ROOT
HETATM    1  O   UNL     1      -8.108  15.418  68.053  1.00  0.00    -0.135 OA 
HETATM    2  C   UNL     1      -9.350  15.302  68.145  1.00  0.00    -0.198 C  
HETATM    3  CA  UNL     1      -9.948  13.831  68.029  1.00  0.00    -0.246 C  
HETATM    4  OXT UNL     1     -10.227  16.207  68.308  1.00  0.00    -0.236 OA 
HETATM    5  C   UNL     1     -11.218  13.581  68.438  1.00  0.00    -0.309 C  
HETATM    6  C   UNL     1     -11.899  12.237  68.433  1.00  0.00    -0.304 C  
HETATM    7  CA  UNL     1      -8.341  10.906  67.409  1.00  0.00    -0.117 C  
HETATM    8  S   UNL     1     -11.169  10.847  67.586  1.00  0.00    -0.269 SA 
HETATM    9  N   UNL     1      -9.186  12.777  67.616  1.00  0.00    -0.184 N  
HETATM   10  O   UNL     1      -6.866  12.817  68.194  1.00  0.00    -0.074 OA 
HETATM   11  C   UNL     1      -9.666  11.593  66.949  1.00  0.00    -0.195 C  
HETATM   12  C   UNL     1      -7.893  12.373  67.742  1.00  0.00    -0.154 C  
ENDROOT
BRANCH   5  13
HETATM   13  C   UNL     1     -12.115  14.636  69.061  1.00  0.00    -0.235 C  
BRANCH  13  14
HETATM   14  N   UNL     1     -12.296  14.579  70.544  1.00  0.00    -0.316 NA 
HETATM   15  C   UNL     1     -13.441  13.803  72.489  1.00  0.00    -0.682 A  
HETATM   16  C   UNL     1     -12.918  14.854  73.230  1.00  0.00    -0.635 A  
HETATM   17  C   UNL     1     -13.105  13.673  71.141  1.00  0.00    -0.234 A  
HETATM   18  C   UNL     1     -11.707  15.551  71.282  1.00  0.00    -0.401 A  
HETATM   19  C   UNL     1     -12.023  15.723  72.625  1.00  0.00    -0.597 A  
ENDBRANCH  13  14
ENDBRANCH   5  13
BRANCH   7  20
HETATM   20  N   UNL     1      -8.360   9.977  68.610  1.00  0.00    -0.112 N  
HETATM   21  H   UNL     1      -8.683  10.339  69.507  1.00  0.00     0.000 HD 
HETATM   22  O   UNL     1      -7.423   8.128  67.555  1.00  0.00    -0.091 OA 
HETATM   23  C   UNL     1      -7.954   8.657  68.526  1.00  0.00    -0.116 C  
BRANCH  23  24
HETATM   24  C   UNL     1      -8.189   7.754  69.716  1.00  0.00    -0.129 C  
BRANCH  24  25
HETATM   25  N   UNL     1      -8.976   7.996  70.727  1.00  0.00    -0.142 NA 
HETATM   26  H   UNL     1      -9.181   8.947  71.035  1.00  0.00     0.000 HD 
BRANCH  25  27
HETATM   27  O   UNL     1      -9.524   6.877  71.364  1.00  0.00    -0.160 OA 
HETATM   28  C   UNL     1     -11.461   5.872  72.339  1.00  0.00    -0.358 C  
HETATM   29  C   UNL     1     -11.526   6.780  70.010  1.00  0.00    -0.390 C  
HETATM   30  O   UNL     1     -10.768   9.422  71.752  1.00  0.00    -0.334 OA 
HETATM   31  O   UNL     1     -12.620   8.433  72.543  1.00  0.00    -0.345 OA 
HETATM   32  C   UNL     1     -10.964   7.001  71.421  1.00  0.00    -0.240 C  
HETATM   33  C   UNL     1     -11.538   8.331  71.979  1.00  0.00    -0.340 C  
ENDBRANCH  25  27
ENDBRANCH  24  25
BRANCH  24  34
HETATM   34  C   UNL     1      -7.392   6.528  69.830  1.00  0.00    -0.086 A  
HETATM   35  H2  UNL     1      -6.599   2.353  69.496  1.00  0.00     0.000 HD 
HETATM   36  C   UNL     1      -6.209   6.407  70.538  1.00  0.00    -0.039 A  
HETATM   37  S   UNL     1      -5.668   4.783  70.510  1.00  0.00    -0.017 SA 
HETATM   38  H1  UNL     1      -8.073   2.819  68.653  1.00  0.00     0.000 HD 
HETATM   39  N   UNL     1      -7.259   3.077  69.210  1.00  0.00    -0.045 NA 
HETATM   40  N   UNL     1      -7.834   5.336  69.251  1.00  0.00    -0.087 NA 
HETATM   41  C   UNL     1      -7.038   4.349  69.574  1.00  0.00    -0.050 A  
ENDBRANCH  24  34
ENDBRANCH  23  24
ENDBRANCH   7  20
TORSDOF 7
ENDMDL
MODEL       77
REMARK 921   NORMALIZED FREE ENERGY PREDICTED BY IDOCK:   -5.93 KCAL/MOL
REMARK 922        TOTAL FREE ENERGY PREDICTED BY IDOCK:   -9.90 KCAL/MOL
REMARK 923 INTER-LIGAND FREE ENERGY PREDICTED BY IDOCK:   -8.43 KCAL/MOL
REMARK 924 INTRA-LIGAND FREE ENERGY PREDICTED BY IDOCK:   -1.47 KCAL/MOL
REMARK 927      BINDING AFFINITY PREDICTED BY RF-SCORE:    0.00 PKD
ROOT
HETATM    1  O   UNL     1     -12.772  14.503  63.804  1.00  0.00    -0.780 OA 
HETATM    2  C   UNL     1     -12.001  15.337  64.329  1.00  0.00    -0.223 C  
HETATM    3  CA  UNL     1     -11.246  14.887  65.656  1.00  0.00    -0.347 C  
HETATM    4  OXT UNL     1     -11.734  16.522  63.958  1.00  0.00    -1.111 OA 
HETATM    5  C   UNL     1     -10.168  15.586  66.094  1.00  0.00    -0.322 C  
HETATM    6  C   UNL     1      -9.329  15.252  67.300  1.00  0.00    -0.205 C  
HETATM    7  CA  UNL     1     -11.527  11.991  67.406  1.00  0.00    -0.336 C  
HETATM    8  S   UNL     1      -9.869  14.025  68.477  1.00  0.00    -0.200 SA 
HETATM    9  N   UNL     1     -11.590  13.749  66.327  1.00  0.00    -0.336 N  
HETATM   10  O   UNL     1     -12.392  11.914  65.020  1.00  0.00    -0.315 OA 
HETATM   11  C   UNL     1     -11.424  13.513  67.739  1.00  0.00    -0.315 C  
HETATM   12  C   UNL     1     -12.034  12.503  66.011  1.00  0.00    -0.392 C  
ENDROOT
BRANCH   5  13
HETATM   13  C   UNL     1      -9.591  16.778  65.351  1.00  0.00     0.504 C  
BRANCH  13  14
HETATM   14  N   UNL     1      -9.510  18.068  66.103  1.00  0.00    -0.499 NA 
HETATM   15  C   UNL     1      -8.299  19.675  67.386  1.00  0.00    -0.335 A  
HETATM   16  C   UNL     1      -9.489  20.195  67.878  1.00  0.00    -0.438 A  
HETATM   17  C   UNL     1      -8.331  18.613  66.483  1.00  0.00    -0.291 A  
HETATM   18  C   UNL     1     -10.676  18.630  66.503  1.00  0.00    -0.238 A  
HETATM   19  C   UNL     1     -10.690  19.683  67.413  1.00  0.00    -0.563 A  
ENDBRANCH  13  14
ENDBRANCH   5  13
BRANCH   7  20
HETATM   20  N   UNL     1     -10.262  11.155  67.335  1.00  0.00    -0.185 N  
HETATM   21  H   UNL     1      -9.360  11.614  67.464  1.00  0.00     0.000 HD 
HETATM   22  O   UNL     1     -11.285   9.136  66.797  1.00  0.00     0.348 OA 
HETATM   23  C   UNL     1     -10.293   9.791  67.101  1.00  0.00    -0.248 C  
BRANCH  23  24
HETATM   24  C   UNL     1      -9.007   9.007  67.240  1.00  0.00    -0.127 C  
BRANCH  24  25
HETATM   25  N   UNL     1      -8.101   8.839  66.318  1.00  0.00    -0.105 NA 
HETATM   26  H   UNL     1      -7.111   8.747  66.546  1.00  0.00     0.000 HD 
BRANCH  25  27
HETATM   27  O   UNL     1      -8.565   8.791  64.999  1.00  0.00    -0.175 OA 
HETATM   28  C   UNL     1      -8.152   8.092  62.752  1.00  0.00    -0.139 C  
HETATM   29  C   UNL     1      -8.047   6.456  64.641  1.00  0.00    -0.100 C  
HETATM   30  O   UNL     1      -5.751   8.608  65.471  1.00  0.00    -0.046 OA 
HETATM   31  O   UNL     1      -5.420   7.831  63.392  1.00  0.00    -0.047 OA 
HETATM   32  C   UNL     1      -7.736   7.899  64.220  1.00  0.00    -0.128 C  
HETATM   33  C   UNL     1      -6.200   8.115  64.292  1.00  0.00    -0.065 C  
ENDBRANCH  25  27
ENDBRANCH  24  25
BRANCH  24  34
HETATM   34  C   UNL     1      -8.775   8.264  68.483  1.00  0.00    -0.133 A  
HETATM   35  H2  UNL     1      -6.502   6.053  71.333  1.00  0.00     0.000 HD 
HETATM   36  C   UNL     1      -9.764   7.787  69.326  1.00  0.00    -0.165 A  
HETATM   37  S   UNL     1      -9.068   6.877  70.597  1.00  0.00    -0.155 SA 
HETATM   38  H1  UNL     1      -5.483   6.811  70.114  1.00  0.00     0.000 HD 
HETATM   39  N   UNL     1      -6.410   6.639  70.503  1.00  0.00    -0.041 NA 
HETATM   40  N   UNL     1      -7.479   7.925  68.878  1.00  0.00    -0.092 NA 
HETATM   41  C   UNL     1      -7.509   7.166  69.943  1.00  0.00    -0.086 A  
ENDBRANCH  24  34
ENDBRANCH  23  24
ENDBRANCH   7  20
TORSDOF 7
ENDMDL
MODEL       78
REMARK 921   NORMALIZED FREE ENERGY PREDICTED BY IDOCK:   -5.93 KCAL/MOL
REMARK 922        TOTAL FREE ENERGY PREDICTED BY IDOCK:   -9.90 KCAL/MOL
REMARK 923 INTER-LIGAND FREE ENERGY PREDICTED BY IDOCK:   -8.64 KCAL/MOL
REMARK 924 INTRA-LIGAND FREE ENERGY PREDICTED BY IDOCK:   -1.25 KCAL/MOL
REMARK 927      BINDING AFFINITY PREDICTED BY RF-SCORE:    0.00 PKD
ROOT
HETATM    1  O   UNL     1      -7.676   6.638  72.284  1.00  0.00    -0.095 OA 
HETATM    2  C   UNL     1      -7.659   6.096  71.157  1.00  0.00    -0.093 C  
HETATM    3  CA  UNL     1      -8.592   6.730  70.035  1.00  0.00    -0.141 C  
HETATM    4  OXT UNL     1      -6.998   5.082  70.769  1.00  0.00    -0.045 OA 
HETATM    5  C   UNL     1      -8.391   6.421  68.729  1.00  0.00    -0.121 C  
HETATM    6  C   UNL     1      -9.162   6.977  67.560  1.00  0.00    -0.124 C  
HETATM    7  CA  UNL     1     -10.793   9.304  70.281  1.00  0.00    -0.246 C  
HETATM    8  S   UNL     1     -10.659   7.912  67.816  1.00  0.00    -0.128 SA 
HETATM    9  N   UNL     1      -9.542   7.663  70.336  1.00  0.00    -0.168 N  
HETATM   10  O   UNL     1      -9.065   9.164  72.136  1.00  0.00    -0.312 OA 
HETATM   11  C   UNL     1     -10.765   7.895  69.608  1.00  0.00    -0.218 C  
HETATM   12  C   UNL     1      -9.681   8.697  71.209  1.00  0.00    -0.237 C  
ENDROOT
BRANCH   5  13
HETATM   13  C   UNL     1      -7.269   5.517  68.251  1.00  0.00    -0.071 C  
BRANCH  13  14
HETATM   14  N   UNL     1      -7.664   4.300  67.477  1.00  0.00    -0.083 NA 
HETATM   15  C   UNL     1      -7.839   3.081  65.432  1.00  0.00    -0.082 A  
HETATM   16  C   UNL     1      -8.819   2.269  65.988  1.00  0.00    -0.124 A  
HETATM   17  C   UNL     1      -7.260   4.090  66.202  1.00  0.00    -0.068 A  
HETATM   18  C   UNL     1      -8.549   3.453  68.055  1.00  0.00    -0.095 A  
HETATM   19  C   UNL     1      -9.160   2.442  67.320  1.00  0.00    -0.180 A  
ENDBRANCH  13  14
ENDBRANCH   5  13
BRANCH   7  20
HETATM   20  N   UNL     1     -10.343  10.519  69.490  1.00  0.00    -0.294 N  
HETATM   21  H   UNL     1      -9.345  10.720  69.420  1.00  0.00     0.000 HD 
HETATM   22  O   UNL     1     -12.463  11.321  68.969  1.00  0.00    -0.417 OA 
HETATM   23  C   UNL     1     -11.241  11.362  68.860  1.00  0.00    -0.248 C  
BRANCH  23  24
HETATM   24  C   UNL     1     -10.701  12.430  67.936  1.00  0.00    -0.220 C  
BRANCH  24  25
HETATM   25  N   UNL     1     -10.203  13.581  68.292  1.00  0.00    -0.245 NA 
HETATM   26  H   UNL     1     -10.399  13.995  69.204  1.00  0.00     0.000 HD 
BRANCH  25  27
HETATM   27  O   UNL     1      -9.383  14.216  67.352  1.00  0.00    -0.202 OA 
HETATM   28  C   UNL     1      -8.601  16.283  66.445  1.00  0.00    -0.361 C  
HETATM   29  C   UNL     1      -8.435  15.818  68.896  1.00  0.00    -0.218 C  
HETATM   30  O   UNL     1     -11.643  15.633  68.381  1.00  0.00    -0.365 OA 
HETATM   31  O   UNL     1     -10.811  17.575  67.624  1.00  0.00    -0.343 OA 
HETATM   32  C   UNL     1      -9.304  15.629  67.646  1.00  0.00    -0.206 C  
HETATM   33  C   UNL     1     -10.645  16.384  67.857  1.00  0.00    -0.320 C  
ENDBRANCH  25  27
ENDBRANCH  24  25
BRANCH  24  34
HETATM   34  C   UNL     1     -10.831  12.231  66.488  1.00  0.00    -0.259 A  
HETATM   35  H2  UNL     1     -12.884  11.973  62.761  1.00  0.00     0.000 HD 
HETATM   36  C   UNL     1      -9.856  11.696  65.665  1.00  0.00    -0.240 A  
HETATM   37  S   UNL     1     -10.457  11.530  64.071  1.00  0.00    -0.408 SA 
HETATM   38  H1  UNL     1     -13.895  12.655  64.031  1.00  0.00     0.000 HD 
HETATM   39  N   UNL     1     -12.998  12.276  63.729  1.00  0.00    -0.786 NA 
HETATM   40  N   UNL     1     -12.028  12.530  65.834  1.00  0.00    -0.544 NA 
HETATM   41  C   UNL     1     -11.966  12.167  64.579  1.00  0.00    -0.337 A  
ENDBRANCH  24  34
ENDBRANCH  23  24
ENDBRANCH   7  20
TORSDOF 7
ENDMDL
MODEL       79
REMARK 921   NORMALIZED FREE ENERGY PREDICTED BY IDOCK:   -5.88 KCAL/MOL
REMARK 922        TOTAL FREE ENERGY PREDICTED BY IDOCK:   -9.82 KCAL/MOL
REMARK 923 INTER-LIGAND FREE ENERGY PREDICTED BY IDOCK:   -7.98 KCAL/MOL
REMARK 924 INTRA-LIGAND FREE ENERGY PREDICTED BY IDOCK:   -1.84 KCAL/MOL
REMARK 927      BINDING AFFINITY PREDICTED BY RF-SCORE:    0.00 PKD
ROOT
HETATM    1  O   UNL     1      -7.176   6.439  72.116  1.00  0.00    -0.084 OA 
HETATM    2  C   UNL     1      -7.271   5.852  71.015  1.00  0.00    -0.074 C  
HETATM    3  CA  UNL     1      -8.294   6.462  69.958  1.00  0.00    -0.130 C  
HETATM    4  OXT UNL     1      -6.668   4.811  70.610  1.00  0.00    -0.034 OA 
HETATM    5  C   UNL     1      -8.220   6.097  68.653  1.00  0.00    -0.108 C  
HETATM    6  C   UNL     1      -9.085   6.624  67.538  1.00  0.00    -0.116 C  
HETATM    7  CA  UNL     1     -10.417   9.089  70.298  1.00  0.00    -0.215 C  
HETATM    8  S   UNL     1     -10.536   7.599  67.891  1.00  0.00    -0.125 SA 
HETATM    9  N   UNL     1      -9.196   7.426  70.306  1.00  0.00    -0.154 N  
HETATM   10  O   UNL     1      -8.527   8.986  71.991  1.00  0.00    -0.368 OA 
HETATM   11  C   UNL     1     -10.475   7.655  69.684  1.00  0.00    -0.235 C  
HETATM   12  C   UNL     1      -9.235   8.496  71.145  1.00  0.00    -0.197 C  
ENDROOT
BRANCH   5  13
HETATM   13  C   UNL     1      -7.162   5.152  68.112  1.00  0.00    -0.067 C  
BRANCH  13  14
HETATM   14  N   UNL     1      -7.645   3.873  67.506  1.00  0.00    -0.068 NA 
HETATM   15  C   UNL     1      -8.087   2.483  65.617  1.00  0.00    -0.084 A  
HETATM   16  C   UNL     1      -8.969   1.720  66.371  1.00  0.00    -0.098 A  
HETATM   17  C   UNL     1      -7.420   3.554  66.210  1.00  0.00    -0.077 A  
HETATM   18  C   UNL     1      -8.430   3.077  68.272  1.00  0.00    -0.081 A  
HETATM   19  C   UNL     1      -9.123   2.007  67.718  1.00  0.00    -0.209 A  
ENDBRANCH  13  14
ENDBRANCH   5  13
BRANCH   7  20
HETATM   20  N   UNL     1     -10.021  10.262  69.420  1.00  0.00    -0.225 N  
HETATM   21  H   UNL     1      -9.030  10.436  69.247  1.00  0.00     0.000 HD 
HETATM   22  O   UNL     1     -12.165  11.096  69.074  1.00  0.00    -0.469 OA 
HETATM   23  C   UNL     1     -10.958  11.104  68.847  1.00  0.00    -0.225 C  
BRANCH  23  24
HETATM   24  C   UNL     1     -10.489  12.122  67.833  1.00  0.00    -0.208 C  
BRANCH  24  25
HETATM   25  N   UNL     1     -11.245  12.827  67.039  1.00  0.00    -0.278 NA 
HETATM   26  H   UNL     1     -11.352  13.836  67.149  1.00  0.00     0.000 HD 
BRANCH  25  27
HETATM   27  O   UNL     1     -11.902  12.120  66.025  1.00  0.00    -0.522 OA 
HETATM   28  C   UNL     1     -12.752  12.141  63.792  1.00  0.00    -0.525 C  
HETATM   29  C   UNL     1     -10.370  12.742  64.260  1.00  0.00    -0.402 C  
HETATM   30  O   UNL     1     -11.990  14.977  65.982  1.00  0.00    -0.134 OA 
HETATM   31  O   UNL     1     -12.664  14.957  63.843  1.00  0.00    -0.789 OA 
HETATM   32  C   UNL     1     -11.810  12.849  64.780  1.00  0.00    -0.363 C  
HETATM   33  C   UNL     1     -12.216  14.348  64.805  1.00  0.00    -0.446 C  
ENDBRANCH  25  27
ENDBRANCH  24  25
BRANCH  24  34
HETATM   34  C   UNL     1      -9.046  12.283  67.622  1.00  0.00    -0.184 A  
HETATM   35  H2  UNL     1      -5.082  11.023  66.691  1.00  0.00     0.000 HD 
HETATM   36  C   UNL     1      -8.303  13.390  67.994  1.00  0.00    -0.165 A  
HETATM   37  S   UNL     1      -6.643  13.121  67.673  1.00  0.00    -0.153 SA 
HETATM   38  H1  UNL     1      -6.280   9.795  66.296  1.00  0.00     0.000 HD 
HETATM   39  N   UNL     1      -6.056  10.724  66.653  1.00  0.00    -0.079 NA 
HETATM   40  N   UNL     1      -8.291  11.253  67.059  1.00  0.00    -0.146 NA 
HETATM   41  C   UNL     1      -7.019  11.558  67.073  1.00  0.00    -0.145 A  
ENDBRANCH  24  34
ENDBRANCH  23  24
ENDBRANCH   7  20
TORSDOF 7
ENDMDL
MODEL       80
REMARK 921   NORMALIZED FREE ENERGY PREDICTED BY IDOCK:   -5.87 KCAL/MOL
REMARK 922        TOTAL FREE ENERGY PREDICTED BY IDOCK:   -9.80 KCAL/MOL
REMARK 923 INTER-LIGAND FREE ENERGY PREDICTED BY IDOCK:   -8.12 KCAL/MOL
REMARK 924 INTRA-LIGAND FREE ENERGY PREDICTED BY IDOCK:   -1.68 KCAL/MOL
REMARK 927      BINDING AFFINITY PREDICTED BY RF-SCORE:    0.00 PKD
ROOT
HETATM    1  O   UNL     1     -13.028   8.047  71.339  1.00  0.00    -0.311 OA 
HETATM    2  C   UNL     1     -12.528   9.178  71.150  1.00  0.00    -0.254 C  
HETATM    3  CA  UNL     1     -11.177   9.240  70.311  1.00  0.00    -0.231 C  
HETATM    4  OXT UNL     1     -12.942  10.311  71.549  1.00  0.00    -0.381 OA 
HETATM    5  C   UNL     1     -10.755  10.419  69.789  1.00  0.00    -0.325 C  
HETATM    6  C   UNL     1      -9.528  10.620  68.939  1.00  0.00    -0.192 C  
HETATM    7  CA  UNL     1      -9.318   6.694  69.050  1.00  0.00    -0.133 C  
HETATM    8  S   UNL     1      -8.309   9.328  68.773  1.00  0.00    -0.119 SA 
HETATM    9  N   UNL     1     -10.465   8.113  70.013  1.00  0.00    -0.226 N  
HETATM   10  O   UNL     1     -11.708   6.099  69.667  1.00  0.00    -0.331 OA 
HETATM   11  C   UNL     1      -9.043   8.042  69.789  1.00  0.00    -0.149 C  
HETATM   12  C   UNL     1     -10.737   6.815  69.711  1.00  0.00    -0.249 C  
ENDROOT
BRANCH   5  13
HETATM   13  C   UNL     1     -11.537  11.714  69.919  1.00  0.00    -0.288 C  
BRANCH  13  14
HETATM   14  N   UNL     1     -11.563  12.610  68.722  1.00  0.00    -0.291 NA 
HETATM   15  C   UNL     1     -11.700  14.776  67.727  1.00  0.00    -0.368 A  
HETATM   16  C   UNL     1     -12.086  14.208  66.520  1.00  0.00    -0.481 A  
HETATM   17  C   UNL     1     -11.428  13.954  68.821  1.00  0.00    -0.292 A  
HETATM   18  C   UNL     1     -11.845  12.044  67.525  1.00  0.00    -0.205 A  
HETATM   19  C   UNL     1     -12.136  12.827  66.412  1.00  0.00    -0.370 A  
ENDBRANCH  13  14
ENDBRANCH   5  13
BRANCH   7  20
HETATM   20  N   UNL     1      -9.342   6.665  67.533  1.00  0.00    -0.123 N  
HETATM   21  H   UNL     1      -9.821   7.414  67.033  1.00  0.00     0.000 HD 
HETATM   22  O   UNL     1      -8.246   4.630  67.269  1.00  0.00    -0.105 OA 
HETATM   23  C   UNL     1      -8.737   5.655  66.805  1.00  0.00    -0.115 C  
BRANCH  23  24
HETATM   24  C   UNL     1      -8.641   5.806  65.304  1.00  0.00    -0.129 C  
BRANCH  24  25
HETATM   25  N   UNL     1      -8.448   6.918  64.650  1.00  0.00    -0.343 NA 
HETATM   26  H   UNL     1      -8.840   7.072  63.721  1.00  0.00     0.000 HD 
BRANCH  25  27
HETATM   27  O   UNL     1      -7.673   7.887  65.297  1.00  0.00    -0.085 OA 
HETATM   28  C   UNL     1      -6.966  10.168  65.371  1.00  0.00    -0.139 C  
HETATM   29  C   UNL     1      -9.398   9.582  65.352  1.00  0.00    -0.324 C  
HETATM   30  O   UNL     1      -8.362   8.289  62.552  1.00  0.00    -0.185 OA 
HETATM   31  O   UNL     1      -7.808  10.459  62.697  1.00  0.00    -0.144 OA 
HETATM   32  C   UNL     1      -8.017   9.201  64.801  1.00  0.00    -0.126 C  
HETATM   33  C   UNL     1      -8.030   9.394  63.260  1.00  0.00    -0.142 C  
ENDBRANCH  25  27
ENDBRANCH  24  25
BRANCH  24  34
HETATM   34  C   UNL     1      -8.888   4.627  64.467  1.00  0.00    -0.153 A  
HETATM   35  H2  UNL     1     -11.197   1.475  62.762  1.00  0.00     0.000 HD 
HETATM   36  C   UNL     1      -7.909   3.844  63.880  1.00  0.00    -0.084 A  
HETATM   37  S   UNL     1      -8.621   2.505  63.087  1.00  0.00    -0.085 SA 
HETATM   38  H1  UNL     1     -12.202   2.667  63.580  1.00  0.00     0.000 HD 
HETATM   39  N   UNL     1     -11.279   2.346  63.288  1.00  0.00    -0.306 NA 
HETATM   40  N   UNL     1     -10.189   4.169  64.250  1.00  0.00    -0.155 NA 
HETATM   41  C   UNL     1     -10.172   3.046  63.580  1.00  0.00    -0.188 A  
ENDBRANCH  24  34
ENDBRANCH  23  24
ENDBRANCH   7  20
TORSDOF 7
ENDMDL
MODEL       81
REMARK 921   NORMALIZED FREE ENERGY PREDICTED BY IDOCK:   -5.83 KCAL/MOL
REMARK 922        TOTAL FREE ENERGY PREDICTED BY IDOCK:   -9.76 KCAL/MOL
REMARK 923 INTER-LIGAND FREE ENERGY PREDICTED BY IDOCK:   -8.77 KCAL/MOL
REMARK 924 INTRA-LIGAND FREE ENERGY PREDICTED BY IDOCK:   -0.99 KCAL/MOL
REMARK 927      BINDING AFFINITY PREDICTED BY RF-SCORE:    0.00 PKD
ROOT
HETATM    1  O   UNL     1     -13.582   8.592  72.407  1.00  0.00    -0.333 OA 
HETATM    2  C   UNL     1     -13.316   9.756  72.035  1.00  0.00    -0.451 C  
HETATM    3  CA  UNL     1     -12.057   9.939  71.078  1.00  0.00    -0.358 C  
HETATM    4  OXT UNL     1     -13.910  10.841  72.322  1.00  0.00    -0.007 OA 
HETATM    5  C   UNL     1     -11.899  11.090  70.377  1.00  0.00    -0.460 C  
HETATM    6  C   UNL     1     -10.788  11.385  69.403  1.00  0.00    -0.162 C  
HETATM    7  CA  UNL     1      -9.837   7.613  69.989  1.00  0.00    -0.180 C  
HETATM    8  S   UNL     1      -9.362  10.319  69.294  1.00  0.00    -0.192 SA 
HETATM    9  N   UNL     1     -11.167   8.926  70.862  1.00  0.00    -0.266 N  
HETATM   10  O   UNL     1     -12.028   6.695  70.884  1.00  0.00    -0.371 OA 
HETATM   11  C   UNL     1      -9.774   9.079  70.524  1.00  0.00    -0.216 C  
HETATM   12  C   UNL     1     -11.209   7.571  70.752  1.00  0.00    -0.270 C  
ENDROOT
BRANCH   5  13
HETATM   13  C   UNL     1     -12.901  12.230  70.411  1.00  0.00     0.251 C  
BRANCH  13  14
HETATM   14  N   UNL     1     -12.532  13.429  71.224  1.00  0.00    -0.324 NA 
HETATM   15  C   UNL     1     -12.888  14.901  73.069  1.00  0.00    -0.586 A  
HETATM   16  C   UNL     1     -12.145  15.890  72.437  1.00  0.00    -0.605 A  
HETATM   17  C   UNL     1     -13.061  13.664  72.448  1.00  0.00    -0.399 A  
HETATM   18  C   UNL     1     -11.728  14.352  70.645  1.00  0.00    -0.252 A  
HETATM   19  C   UNL     1     -11.539  15.603  71.224  1.00  0.00    -0.485 A  
ENDBRANCH  13  14
ENDBRANCH   5  13
BRANCH   7  20
HETATM   20  N   UNL     1      -9.952   7.368  68.495  1.00  0.00    -0.160 N  
HETATM   21  H   UNL     1     -10.870   7.432  68.055  1.00  0.00     0.000 HD 
HETATM   22  O   UNL     1      -7.722   6.820  68.123  1.00  0.00    -0.105 OA 
HETATM   23  C   UNL     1      -8.853   7.060  67.712  1.00  0.00    -0.123 C  
BRANCH  23  24
HETATM   24  C   UNL     1      -9.025   7.025  66.210  1.00  0.00    -0.151 C  
BRANCH  24  25
HETATM   25  N   UNL     1      -9.139   5.957  65.470  1.00  0.00    -0.341 NA 
HETATM   26  H   UNL     1      -9.880   5.858  64.776  1.00  0.00     0.000 HD 
BRANCH  25  27
HETATM   27  O   UNL     1      -8.185   4.955  65.683  1.00  0.00    -0.110 OA 
HETATM   28  C   UNL     1      -7.416   2.765  65.115  1.00  0.00    -0.072 C  
HETATM   29  C   UNL     1      -7.794   4.488  63.342  1.00  0.00    -0.077 C  
HETATM   30  O   UNL     1     -10.753   4.212  64.669  1.00  0.00    -0.255 OA 
HETATM   31  O   UNL     1      -9.959   2.212  64.033  1.00  0.00    -0.139 OA 
HETATM   32  C   UNL     1      -8.318   3.930  64.672  1.00  0.00    -0.097 C  
HETATM   33  C   UNL     1      -9.738   3.346  64.438  1.00  0.00    -0.168 C  
ENDBRANCH  25  27
ENDBRANCH  24  25
BRANCH  24  34
HETATM   34  C   UNL     1      -8.957   8.289  65.470  1.00  0.00    -0.064 A  
HETATM   35  H2  UNL     1     -10.297  12.124  64.179  1.00  0.00     0.000 HD 
HETATM   36  C   UNL     1      -8.077   8.564  64.438  1.00  0.00    -0.163 A  
HETATM   37  S   UNL     1      -8.410  10.106  63.774  1.00  0.00    -0.178 SA 
HETATM   38  H1  UNL     1     -11.243  11.511  65.532  1.00  0.00     0.000 HD 
HETATM   39  N   UNL     1     -10.476  11.395  64.869  1.00  0.00    -0.290 NA 
HETATM   40  N   UNL     1      -9.861   9.319  65.737  1.00  0.00    -0.288 NA 
HETATM   41  C   UNL     1      -9.699  10.301  64.888  1.00  0.00    -0.320 A  
ENDBRANCH  24  34
ENDBRANCH  23  24
ENDBRANCH   7  20
TORSDOF 7
ENDMDL
MODEL       82
REMARK 921   NORMALIZED FREE ENERGY PREDICTED BY IDOCK:   -5.80 KCAL/MOL
REMARK 922        TOTAL FREE ENERGY PREDICTED BY IDOCK:   -9.72 KCAL/MOL
REMARK 923 INTER-LIGAND FREE ENERGY PREDICTED BY IDOCK:   -8.09 KCAL/MOL
REMARK 924 INTRA-LIGAND FREE ENERGY PREDICTED BY IDOCK:   -1.63 KCAL/MOL
REMARK 927      BINDING AFFINITY PREDICTED BY RF-SCORE:    0.00 PKD
ROOT
HETATM    1  O   UNL     1      -6.450  12.834  68.253  1.00  0.00    -0.069 OA 
HETATM    2  C   UNL     1      -7.592  13.113  67.826  1.00  0.00    -0.155 C  
HETATM    3  CA  UNL     1      -8.660  11.933  67.798  1.00  0.00    -0.154 C  
HETATM    4  OXT UNL     1      -8.034  14.222  67.391  1.00  0.00    -0.179 OA 
HETATM    5  C   UNL     1      -9.981  12.216  67.668  1.00  0.00    -0.199 C  
HETATM    6  C   UNL     1     -11.104  11.212  67.673  1.00  0.00    -0.287 C  
HETATM    7  CA  UNL     1      -8.259   8.659  68.600  1.00  0.00    -0.121 C  
HETATM    8  S   UNL     1     -10.767   9.464  67.555  1.00  0.00    -0.142 SA 
HETATM    9  N   UNL     1      -8.298  10.632  67.999  1.00  0.00    -0.116 N  
HETATM   10  O   UNL     1      -6.473  10.228  69.491  1.00  0.00    -0.047 OA 
HETATM   11  C   UNL     1      -8.974   9.472  67.475  1.00  0.00    -0.124 C  
HETATM   12  C   UNL     1      -7.390   9.957  68.755  1.00  0.00    -0.078 C  
ENDROOT
BRANCH   5  13
HETATM   13  C   UNL     1     -10.526  13.631  67.592  1.00  0.00    -0.238 C  
BRANCH  13  14
HETATM   14  N   UNL     1     -11.020  14.235  68.868  1.00  0.00    -0.250 NA 
HETATM   15  C   UNL     1     -12.613  14.381  70.639  1.00  0.00    -0.424 A  
HETATM   16  C   UNL     1     -12.170  15.660  70.946  1.00  0.00    -0.466 A  
HETATM   17  C   UNL     1     -12.012  13.674  69.598  1.00  0.00    -0.343 A  
HETATM   18  C   UNL     1     -10.519  15.442  69.222  1.00  0.00    -0.251 A  
HETATM   19  C   UNL     1     -11.096  16.186  70.246  1.00  0.00    -0.375 A  
ENDBRANCH  13  14
ENDBRANCH   5  13
BRANCH   7  20
HETATM   20  N   UNL     1      -9.030   8.277  69.851  1.00  0.00    -0.139 N  
HETATM   21  H   UNL     1      -8.991   8.896  70.661  1.00  0.00     0.000 HD 
HETATM   22  O   UNL     1      -9.814   6.224  69.088  1.00  0.00    -0.140 OA 
HETATM   23  C   UNL     1      -9.783   7.119  69.928  1.00  0.00    -0.170 C  
BRANCH  23  24
HETATM   24  C   UNL     1     -10.672   6.915  71.134  1.00  0.00    -0.225 C  
BRANCH  24  25
HETATM   25  N   UNL     1     -10.552   5.978  72.033  1.00  0.00    -0.215 NA 
HETATM   26  H   UNL     1     -11.363   5.504  72.430  1.00  0.00     0.000 HD 
BRANCH  25  27
HETATM   27  O   UNL     1      -9.245   5.661  72.422  1.00  0.00    -0.144 OA 
HETATM   28  C   UNL     1      -7.737   3.978  73.199  1.00  0.00    -0.080 C  
HETATM   29  C   UNL     1      -9.093   3.623  71.128  1.00  0.00    -0.177 C  
HETATM   30  O   UNL     1     -11.395   4.044  73.389  1.00  0.00    -0.253 OA 
HETATM   31  O   UNL     1      -9.956   2.431  73.989  1.00  0.00    -0.092 OA 
HETATM   32  C   UNL     1      -9.104   4.227  72.539  1.00  0.00    -0.115 C  
HETATM   33  C   UNL     1     -10.166   3.478  73.390  1.00  0.00    -0.148 C  
ENDBRANCH  25  27
ENDBRANCH  24  25
BRANCH  24  34
HETATM   34  C   UNL     1     -11.854   7.771  71.283  1.00  0.00    -0.295 A  
HETATM   35  H2  UNL     1     -13.973  11.381  72.087  1.00  0.00     0.000 HD 
HETATM   36  C   UNL     1     -13.161   7.322  71.355  1.00  0.00    -0.346 A  
HETATM   37  S   UNL     1     -14.220   8.635  71.644  1.00  0.00    -0.330 SA 
HETATM   38  H1  UNL     1     -12.241  11.651  71.919  1.00  0.00     0.000 HD 
HETATM   39  N   UNL     1     -13.038  11.014  71.908  1.00  0.00    -0.483 NA 
HETATM   40  N   UNL     1     -11.718   9.153  71.427  1.00  0.00    -0.316 NA 
HETATM   41  C   UNL     1     -12.880   9.705  71.663  1.00  0.00    -0.405 A  
ENDBRANCH  24  34
ENDBRANCH  23  24
ENDBRANCH   7  20
TORSDOF 7
ENDMDL
MODEL       83
REMARK 921   NORMALIZED FREE ENERGY PREDICTED BY IDOCK:   -5.80 KCAL/MOL
REMARK 922        TOTAL FREE ENERGY PREDICTED BY IDOCK:   -9.71 KCAL/MOL
REMARK 923 INTER-LIGAND FREE ENERGY PREDICTED BY IDOCK:   -8.53 KCAL/MOL
REMARK 924 INTRA-LIGAND FREE ENERGY PREDICTED BY IDOCK:   -1.18 KCAL/MOL
REMARK 927      BINDING AFFINITY PREDICTED BY RF-SCORE:    0.00 PKD
ROOT
HETATM    1  O   UNL     1      -9.596  19.422  69.051  1.00  0.00    -0.401 OA 
HETATM    2  C   UNL     1      -8.387  19.398  68.729  1.00  0.00    -0.344 C  
HETATM    3  CA  UNL     1      -7.731  17.966  68.497  1.00  0.00    -0.297 C  
HETATM    4  OXT UNL     1      -7.584  20.368  68.568  1.00  0.00    -0.078 OA 
HETATM    5  C   UNL     1      -6.548  17.860  67.839  1.00  0.00    -0.188 C  
HETATM    6  C   UNL     1      -5.835  16.576  67.507  1.00  0.00    -0.150 C  
HETATM    7  CA  UNL     1      -9.104  14.888  68.897  1.00  0.00    -0.191 C  
HETATM    8  S   UNL     1      -6.354  15.029  68.228  1.00  0.00    -0.131 SA 
HETATM    9  N   UNL     1      -8.372  16.816  68.857  1.00  0.00    -0.244 N  
HETATM   10  O   UNL     1     -10.758  16.804  68.702  1.00  0.00    -0.322 OA 
HETATM   11  C   UNL     1      -7.742  15.574  69.228  1.00  0.00    -0.223 C  
HETATM   12  C   UNL     1      -9.652  16.359  68.891  1.00  0.00    -0.252 C  
ENDROOT
BRANCH   5  13
HETATM   13  C   UNL     1      -5.812  19.052  67.253  1.00  0.00    -0.170 C  
BRANCH  13  14
HETATM   14  N   UNL     1      -5.894  19.234  65.771  1.00  0.00    -0.162 NA 
HETATM   15  C   UNL     1      -5.169  18.730  63.553  1.00  0.00    -0.163 A  
HETATM   16  C   UNL     1      -5.719  19.918  63.092  1.00  0.00    -0.308 A  
HETATM   17  C   UNL     1      -5.279  18.397  64.903  1.00  0.00    -0.133 A  
HETATM   18  C   UNL     1      -6.516  20.346  65.313  1.00  0.00    -0.276 A  
HETATM   19  C   UNL     1      -6.421  20.722  63.977  1.00  0.00    -0.250 A  
ENDBRANCH  13  14
ENDBRANCH   5  13
BRANCH   7  20
HETATM   20  N   UNL     1      -9.272  14.160  67.575  1.00  0.00    -0.185 N  
HETATM   21  H   UNL     1      -9.322  14.706  66.715  1.00  0.00     0.000 HD 
HETATM   22  O   UNL     1      -9.447  12.013  68.452  1.00  0.00    -0.201 OA 
HETATM   23  C   UNL     1      -9.359  12.781  67.499  1.00  0.00    -0.189 C  
BRANCH  23  24
HETATM   24  C   UNL     1      -9.328  12.131  66.134  1.00  0.00    -0.195 C  
BRANCH  24  25
HETATM   25  N   UNL     1      -8.370  11.389  65.653  1.00  0.00    -0.375 NA 
HETATM   26  H   UNL     1      -7.433  11.759  65.488  1.00  0.00     0.000 HD 
BRANCH  25  27
HETATM   27  O   UNL     1      -8.700  10.058  65.375  1.00  0.00    -0.144 OA 
HETATM   28  C   UNL     1      -7.961   7.788  65.270  1.00  0.00    -0.127 C  
HETATM   29  C   UNL     1      -7.672   9.132  67.359  1.00  0.00    -0.092 C  
HETATM   30  O   UNL     1      -5.961  10.857  65.194  1.00  0.00    -0.057 OA 
HETATM   31  O   UNL     1      -5.299   8.714  65.227  1.00  0.00    -0.034 OA 
HETATM   32  C   UNL     1      -7.639   9.186  65.826  1.00  0.00    -0.091 C  
HETATM   33  C   UNL     1      -6.195   9.536  65.374  1.00  0.00    -0.067 C  
ENDBRANCH  25  27
ENDBRANCH  24  25
BRANCH  24  34
HETATM   34  C   UNL     1     -10.415  12.427  65.195  1.00  0.00    -0.292 A  
HETATM   35  H2  UNL     1     -13.283  14.873  63.202  1.00  0.00     0.000 HD 
HETATM   36  C   UNL     1     -11.195  11.482  64.551  1.00  0.00    -0.231 A  
HETATM   37  S   UNL     1     -12.421  12.252  63.638  1.00  0.00    -0.491 SA 
HETATM   38  H1  UNL     1     -12.115  15.825  64.113  1.00  0.00     0.000 HD 
HETATM   39  N   UNL     1     -12.458  14.917  63.801  1.00  0.00    -0.698 NA 
HETATM   40  N   UNL     1     -10.785  13.747  64.928  1.00  0.00    -0.376 NA 
HETATM   41  C   UNL     1     -11.845  13.780  64.163  1.00  0.00    -0.401 A  
ENDBRANCH  24  34
ENDBRANCH  23  24
ENDBRANCH   7  20
TORSDOF 7
ENDMDL
MODEL       84
REMARK 921   NORMALIZED FREE ENERGY PREDICTED BY IDOCK:   -5.79 KCAL/MOL
REMARK 922        TOTAL FREE ENERGY PREDICTED BY IDOCK:   -9.69 KCAL/MOL
REMARK 923 INTER-LIGAND FREE ENERGY PREDICTED BY IDOCK:   -9.10 KCAL/MOL
REMARK 924 INTRA-LIGAND FREE ENERGY PREDICTED BY IDOCK:   -0.59 KCAL/MOL
REMARK 927      BINDING AFFINITY PREDICTED BY RF-SCORE:    0.00 PKD
ROOT
HETATM    1  O   UNL     1     -10.978   6.975  66.826  1.00  0.00    -0.317 OA 
HETATM    2  C   UNL     1     -10.750   7.009  68.055  1.00  0.00    -0.194 C  
HETATM    3  CA  UNL     1      -9.537   7.919  68.539  1.00  0.00    -0.150 C  
HETATM    4  OXT UNL     1     -11.350   6.402  68.996  1.00  0.00    -0.355 OA 
HETATM    5  C   UNL     1      -9.430   8.268  69.847  1.00  0.00    -0.167 C  
HETATM    6  C   UNL     1      -8.369   9.157  70.439  1.00  0.00    -0.185 C  
HETATM    7  CA  UNL     1      -7.327   9.710  66.686  1.00  0.00    -0.090 C  
HETATM    8  S   UNL     1      -6.930   9.619  69.491  1.00  0.00    -0.066 SA 
HETATM    9  N   UNL     1      -8.640   8.448  67.657  1.00  0.00    -0.129 N  
HETATM   10  O   UNL     1      -9.461   9.033  65.488  1.00  0.00    -0.228 OA 
HETATM   11  C   UNL     1      -7.267   8.781  67.940  1.00  0.00    -0.084 C  
HETATM   12  C   UNL     1      -8.663   8.940  66.389  1.00  0.00    -0.129 C  
ENDROOT
BRANCH   5  13
HETATM   13  C   UNL     1     -10.449   7.872  70.900  1.00  0.00    -0.203 C  
BRANCH  13  14
HETATM   14  N   UNL     1     -11.381   8.942  71.374  1.00  0.00    -0.284 NA 
HETATM   15  C   UNL     1     -13.425   9.644  72.388  1.00  0.00    -0.421 A  
HETATM   16  C   UNL     1     -13.291  10.900  71.810  1.00  0.00    -0.413 A  
HETATM   17  C   UNL     1     -12.445   8.676  72.167  1.00  0.00    -0.389 A  
HETATM   18  C   UNL     1     -11.195  10.192  70.887  1.00  0.00    -0.307 A  
HETATM   19  C   UNL     1     -12.153  11.183  71.072  1.00  0.00    -0.380 A  
ENDBRANCH  13  14
ENDBRANCH   5  13
BRANCH   7  20
HETATM   20  N   UNL     1      -7.504  11.206  66.873  1.00  0.00    -0.131 N  
HETATM   21  H   UNL     1      -6.703  11.819  66.721  1.00  0.00     0.000 HD 
HETATM   22  O   UNL     1      -9.717  11.144  67.587  1.00  0.00    -0.167 OA 
HETATM   23  C   UNL     1      -8.715  11.764  67.244  1.00  0.00    -0.163 C  
BRANCH  23  24
HETATM   24  C   UNL     1      -8.852  13.270  67.217  1.00  0.00    -0.216 C  
BRANCH  24  25
HETATM   25  N   UNL     1      -9.688  13.956  66.488  1.00  0.00    -0.286 NA 
HETATM   26  H   UNL     1     -10.063  14.853  66.798  1.00  0.00     0.000 HD 
BRANCH  25  27
HETATM   27  O   UNL     1     -10.039  13.392  65.256  1.00  0.00    -0.297 OA 
HETATM   28  C   UNL     1     -11.725  13.113  63.586  1.00  0.00    -0.505 C  
HETATM   29  C   UNL     1     -11.045  15.396  64.348  1.00  0.00    -0.149 C  
HETATM   30  O   UNL     1     -12.117  14.046  67.108  1.00  0.00    -0.423 OA 
HETATM   31  O   UNL     1     -13.656  13.899  65.483  1.00  0.00    -0.579 OA 
HETATM   32  C   UNL     1     -11.293  13.951  64.801  1.00  0.00    -0.363 C  
HETATM   33  C   UNL     1     -12.476  13.944  65.807  1.00  0.00    -0.495 C  
ENDBRANCH  25  27
ENDBRANCH  24  25
BRANCH  24  34
HETATM   34  C   UNL     1      -7.900  14.072  67.993  1.00  0.00    -0.152 A  
HETATM   35  H2  UNL     1      -5.073  14.844  71.088  1.00  0.00     0.000 HD 
HETATM   36  C   UNL     1      -7.765  15.447  67.917  1.00  0.00    -0.133 A  
HETATM   37  S   UNL     1      -6.626  15.993  69.071  1.00  0.00    -0.163 SA 
HETATM   38  H1  UNL     1      -5.436  13.128  70.933  1.00  0.00     0.000 HD 
HETATM   39  N   UNL     1      -5.573  14.088  70.619  1.00  0.00    -0.141 NA 
HETATM   40  N   UNL     1      -7.075  13.471  68.945  1.00  0.00    -0.106 NA 
HETATM   41  C   UNL     1      -6.396  14.377  69.600  1.00  0.00    -0.140 A  
ENDBRANCH  24  34
ENDBRANCH  23  24
ENDBRANCH   7  20
TORSDOF 7
ENDMDL
MODEL       85
REMARK 921   NORMALIZED FREE ENERGY PREDICTED BY IDOCK:   -5.77 KCAL/MOL
REMARK 922        TOTAL FREE ENERGY PREDICTED BY IDOCK:   -9.67 KCAL/MOL
REMARK 923 INTER-LIGAND FREE ENERGY PREDICTED BY IDOCK:   -8.37 KCAL/MOL
REMARK 924 INTRA-LIGAND FREE ENERGY PREDICTED BY IDOCK:   -1.30 KCAL/MOL
REMARK 927      BINDING AFFINITY PREDICTED BY RF-SCORE:    0.00 PKD
ROOT
HETATM    1  O   UNL     1      -7.434   6.520  71.653  1.00  0.00    -0.086 OA 
HETATM    2  C   UNL     1      -7.421   6.041  70.497  1.00  0.00    -0.090 C  
HETATM    3  CA  UNL     1      -8.368   6.731  69.420  1.00  0.00    -0.132 C  
HETATM    4  OXT UNL     1      -6.758   5.055  70.049  1.00  0.00    -0.035 OA 
HETATM    5  C   UNL     1      -8.175   6.496  68.097  1.00  0.00    -0.117 C  
HETATM    6  C   UNL     1      -8.957   7.112  66.967  1.00  0.00    -0.129 C  
HETATM    7  CA  UNL     1     -10.582   9.272  69.825  1.00  0.00    -0.231 C  
HETATM    8  S   UNL     1     -10.459   8.021  67.285  1.00  0.00    -0.292 SA 
HETATM    9  N   UNL     1      -9.321   7.640  69.779  1.00  0.00    -0.151 N  
HETATM   10  O   UNL     1      -8.839   9.040  71.656  1.00  0.00    -0.329 OA 
HETATM   11  C   UNL     1     -10.550   7.904  69.074  1.00  0.00    -0.162 C  
HETATM   12  C   UNL     1      -9.459   8.622  70.710  1.00  0.00    -0.190 C  
ENDROOT
BRANCH   5  13
HETATM   13  C   UNL     1      -7.050   5.628  67.561  1.00  0.00    -0.074 C  
BRANCH  13  14
HETATM   14  N   UNL     1      -7.443   4.469  66.702  1.00  0.00    -0.081 NA 
HETATM   15  C   UNL     1      -7.761   3.457  64.563  1.00  0.00    -0.077 A  
HETATM   16  C   UNL     1      -8.610   2.513  65.125  1.00  0.00    -0.104 A  
HETATM   17  C   UNL     1      -7.172   4.426  65.376  1.00  0.00    -0.068 A  
HETATM   18  C   UNL     1      -8.193   3.495  67.271  1.00  0.00    -0.090 A  
HETATM   19  C   UNL     1      -8.809   2.518  66.496  1.00  0.00    -0.136 A  
ENDBRANCH  13  14
ENDBRANCH   5  13
BRANCH   7  20
HETATM   20  N   UNL     1     -10.145  10.532  69.100  1.00  0.00    -0.215 N  
HETATM   21  H   UNL     1      -9.154  10.773  69.083  1.00  0.00     0.000 HD 
HETATM   22  O   UNL     1     -12.271  11.273  68.511  1.00  0.00    -0.588 OA 
HETATM   23  C   UNL     1     -11.048  11.365  68.460  1.00  0.00    -0.235 C  
BRANCH  23  24
HETATM   24  C   UNL     1     -10.510  12.486  67.601  1.00  0.00    -0.217 C  
BRANCH  24  25
HETATM   25  N   UNL     1     -10.416  12.486  66.300  1.00  0.00    -0.243 NA 
HETATM   26  H   UNL     1      -9.657  12.964  65.814  1.00  0.00     0.000 HD 
BRANCH  25  27
HETATM   27  O   UNL     1     -11.417  11.794  65.610  1.00  0.00    -0.290 OA 
HETATM   28  C   UNL     1     -12.905  11.756  63.740  1.00  0.00    -0.302 C  
HETATM   29  C   UNL     1     -10.448  12.089  63.413  1.00  0.00    -0.474 C  
HETATM   30  O   UNL     1     -11.239  14.629  65.288  1.00  0.00    -0.328 OA 
HETATM   31  O   UNL     1     -12.536  14.535  63.459  1.00  0.00    -0.746 OA 
HETATM   32  C   UNL     1     -11.642  12.412  64.322  1.00  0.00    -0.368 C  
HETATM   33  C   UNL     1     -11.875  13.947  64.305  1.00  0.00    -0.412 C  
ENDBRANCH  25  27
ENDBRANCH  24  25
BRANCH  24  34
HETATM   34  C   UNL     1      -9.933  13.659  68.265  1.00  0.00    -0.236 A  
HETATM   35  H2  UNL     1      -9.974  17.487  70.142  1.00  0.00     0.000 HD 
HETATM   36  C   UNL     1      -8.583  13.960  68.325  1.00  0.00    -0.177 A  
HETATM   37  S   UNL     1      -8.349  15.474  69.089  1.00  0.00    -0.265 SA 
HETATM   38  H1  UNL     1     -11.594  16.825  69.946  1.00  0.00     0.000 HD 
HETATM   39  N   UNL     1     -10.585  16.731  69.831  1.00  0.00    -0.196 NA 
HETATM   40  N   UNL     1     -10.757  14.620  68.855  1.00  0.00    -0.241 NA 
HETATM   41  C   UNL     1     -10.046  15.633  69.281  1.00  0.00    -0.258 A  
ENDBRANCH  24  34
ENDBRANCH  23  24
ENDBRANCH   7  20
TORSDOF 7
ENDMDL
MODEL       86
REMARK 921   NORMALIZED FREE ENERGY PREDICTED BY IDOCK:   -5.76 KCAL/MOL
REMARK 922        TOTAL FREE ENERGY PREDICTED BY IDOCK:   -9.66 KCAL/MOL
REMARK 923 INTER-LIGAND FREE ENERGY PREDICTED BY IDOCK:   -8.20 KCAL/MOL
REMARK 924 INTRA-LIGAND FREE ENERGY PREDICTED BY IDOCK:   -1.46 KCAL/MOL
REMARK 927      BINDING AFFINITY PREDICTED BY RF-SCORE:    0.00 PKD
ROOT
HETATM    1  O   UNL     1     -13.309   9.562  72.186  1.00  0.00    -0.414 OA 
HETATM    2  C   UNL     1     -12.202   8.978  72.160  1.00  0.00    -0.357 C  
HETATM    3  CA  UNL     1     -11.153   9.467  71.068  1.00  0.00    -0.363 C  
HETATM    4  OXT UNL     1     -11.787   8.023  72.887  1.00  0.00    -0.337 OA 
HETATM    5  C   UNL     1      -9.845   9.127  71.183  1.00  0.00    -0.371 C  
HETATM    6  C   UNL     1      -8.736   9.552  70.256  1.00  0.00    -0.235 C  
HETATM    7  CA  UNL     1     -11.522  11.809  68.638  1.00  0.00    -0.288 C  
HETATM    8  S   UNL     1      -9.100  10.339  68.697  1.00  0.00    -0.159 SA 
HETATM    9  N   UNL     1     -11.512  10.309  70.055  1.00  0.00    -0.278 N  
HETATM   10  O   UNL     1     -13.211  11.924  70.530  1.00  0.00     0.288 OA 
HETATM   11  C   UNL     1     -10.894  10.385  68.755  1.00  0.00    -0.232 C  
HETATM   12  C   UNL     1     -12.361  11.358  69.886  1.00  0.00    -0.214 C  
ENDROOT
BRANCH   5  13
HETATM   13  C   UNL     1      -9.293   8.324  72.347  1.00  0.00    -0.268 C  
BRANCH  13  14
HETATM   14  N   UNL     1      -8.067   7.509  72.086  1.00  0.00    -0.099 NA 
HETATM   15  C   UNL     1      -5.695   7.252  72.020  1.00  0.00    -0.037 A  
HETATM   16  C   UNL     1      -5.825   6.174  71.154  1.00  0.00    -0.026 A  
HETATM   17  C   UNL     1      -6.836   7.902  72.489  1.00  0.00    -0.075 A  
HETATM   18  C   UNL     1      -8.206   6.401  71.319  1.00  0.00    -0.122 A  
HETATM   19  C   UNL     1      -7.095   5.730  70.820  1.00  0.00    -0.070 A  
ENDBRANCH  13  14
ENDBRANCH   5  13
BRANCH   7  20
HETATM   20  N   UNL     1     -10.655  13.030  68.884  1.00  0.00    -0.399 N  
HETATM   21  H   UNL     1      -9.773  12.916  69.385  1.00  0.00     0.000 HD 
HETATM   22  O   UNL     1     -12.102  14.599  67.960  1.00  0.00    -0.286 OA 
HETATM   23  C   UNL     1     -11.020  14.293  68.451  1.00  0.00    -0.253 C  
BRANCH  23  24
HETATM   24  C   UNL     1     -10.011  15.414  68.565  1.00  0.00    -0.213 C  
BRANCH  24  25
HETATM   25  N   UNL     1     -10.267  16.692  68.515  1.00  0.00    -0.264 NA 
HETATM   26  H   UNL     1     -10.210  17.286  69.342  1.00  0.00     0.000 HD 
BRANCH  25  27
HETATM   27  O   UNL     1     -10.623  17.200  67.260  1.00  0.00    -0.325 OA 
HETATM   28  C   UNL     1     -10.564  19.058  65.759  1.00  0.00    -0.388 C  
HETATM   29  C   UNL     1      -8.458  18.156  66.761  1.00  0.00    -0.273 C  
HETATM   30  O   UNL     1     -10.147  19.036  69.399  1.00  0.00    -0.237 OA 
HETATM   31  O   UNL     1      -9.972  20.736  67.944  1.00  0.00    -0.263 OA 
HETATM   32  C   UNL     1      -9.940  18.453  67.027  1.00  0.00    -0.342 C  
HETATM   33  C   UNL     1     -10.035  19.529  68.143  1.00  0.00    -0.418 C  
ENDBRANCH  25  27
ENDBRANCH  24  25
BRANCH  24  34
HETATM   34  C   UNL     1      -8.588  15.067  68.635  1.00  0.00    -0.174 A  
HETATM   35  H2  UNL     1      -5.107  12.726  67.875  1.00  0.00     0.000 HD 
HETATM   36  C   UNL     1      -7.665  15.645  69.490  1.00  0.00    -0.185 A  
HETATM   37  S   UNL     1      -6.147  14.871  69.329  1.00  0.00    -0.113 SA 
HETATM   38  H1  UNL     1      -6.477  12.221  66.889  1.00  0.00     0.000 HD 
HETATM   39  N   UNL     1      -6.080  12.845  67.591  1.00  0.00    -0.146 NA 
HETATM   40  N   UNL     1      -8.066  14.041  67.844  1.00  0.00    -0.141 NA 
HETATM   41  C   UNL     1      -6.814  13.821  68.149  1.00  0.00    -0.122 A  
ENDBRANCH  24  34
ENDBRANCH  23  24
ENDBRANCH   7  20
TORSDOF 7
ENDMDL
MODEL       87
REMARK 921   NORMALIZED FREE ENERGY PREDICTED BY IDOCK:   -5.75 KCAL/MOL
REMARK 922        TOTAL FREE ENERGY PREDICTED BY IDOCK:   -9.64 KCAL/MOL
REMARK 923 INTER-LIGAND FREE ENERGY PREDICTED BY IDOCK:   -7.78 KCAL/MOL
REMARK 924 INTRA-LIGAND FREE ENERGY PREDICTED BY IDOCK:   -1.86 KCAL/MOL
REMARK 927      BINDING AFFINITY PREDICTED BY RF-SCORE:    0.00 PKD
ROOT
HETATM    1  O   UNL     1      -5.815   8.620  65.606  1.00  0.00    -0.049 OA 
HETATM    2  C   UNL     1      -6.872   9.287  65.584  1.00  0.00    -0.074 C  
HETATM    3  CA  UNL     1      -8.181   8.586  66.158  1.00  0.00    -0.115 C  
HETATM    4  OXT UNL     1      -7.064  10.466  65.152  1.00  0.00    -0.134 OA 
HETATM    5  C   UNL     1      -9.270   9.333  66.472  1.00  0.00    -0.206 C  
HETATM    6  C   UNL     1     -10.554   8.816  67.064  1.00  0.00    -0.213 C  
HETATM    7  CA  UNL     1      -8.582   5.422  67.324  1.00  0.00    -0.108 C  
HETATM    8  S   UNL     1     -10.885   7.064  67.143  1.00  0.00    -0.303 SA 
HETATM    9  N   UNL     1      -8.214   7.250  66.440  1.00  0.00    -0.115 N  
HETATM   10  O   UNL     1      -6.183   6.247  67.207  1.00  0.00    -0.029 OA 
HETATM   11  C   UNL     1      -9.382   6.406  66.413  1.00  0.00    -0.147 C  
HETATM   12  C   UNL     1      -7.353   6.312  66.917  1.00  0.00    -0.083 C  
ENDROOT
BRANCH   5  13
HETATM   13  C   UNL     1      -9.304  10.846  66.351  1.00  0.00    -0.176 C  
BRANCH  13  14
HETATM   14  N   UNL     1     -10.419  11.434  65.548  1.00  0.00    -0.261 NA 
HETATM   15  C   UNL     1     -11.392  12.073  63.464  1.00  0.00    -0.528 A  
HETATM   16  C   UNL     1     -12.254  12.941  64.120  1.00  0.00    -0.487 A  
HETATM   17  C   UNL     1     -10.484  11.313  64.201  1.00  0.00    -0.369 A  
HETATM   18  C   UNL     1     -11.320  12.206  66.202  1.00  0.00    -0.361 A  
HETATM   19  C   UNL     1     -12.234  12.989  65.505  1.00  0.00    -0.521 A  
ENDBRANCH  13  14
ENDBRANCH   5  13
BRANCH   7  20
HETATM   20  N   UNL     1      -8.858   5.393  68.816  1.00  0.00    -0.103 N  
HETATM   21  H   UNL     1      -8.569   6.188  69.386  1.00  0.00     0.000 HD 
HETATM   22  O   UNL     1      -9.769   3.254  68.895  1.00  0.00    -0.098 OA 
HETATM   23  C   UNL     1      -9.489   4.324  69.428  1.00  0.00    -0.186 C  
BRANCH  23  24
HETATM   24  C   UNL     1      -9.899   4.462  70.877  1.00  0.00    -0.196 C  
BRANCH  24  25
HETATM   25  N   UNL     1     -10.537   5.468  71.407  1.00  0.00    -0.250 NA 
HETATM   26  H   UNL     1     -11.424   5.347  71.896  1.00  0.00     0.000 HD 
BRANCH  25  27
HETATM   27  O   UNL     1      -9.934   6.723  71.267  1.00  0.00    -0.178 OA 
HETATM   28  C   UNL     1     -10.038   9.062  71.743  1.00  0.00    -0.373 C  
HETATM   29  C   UNL     1     -10.186   7.375  73.583  1.00  0.00    -0.380 C  
HETATM   30  O   UNL     1     -12.751   6.600  71.736  1.00  0.00    -0.350 OA 
HETATM   31  O   UNL     1     -12.785   8.771  72.301  1.00  0.00    -0.371 OA 
HETATM   32  C   UNL     1     -10.586   7.680  72.133  1.00  0.00    -0.232 C  
HETATM   33  C   UNL     1     -12.135   7.763  72.055  1.00  0.00    -0.311 C  
ENDBRANCH  25  27
ENDBRANCH  24  25
BRANCH  24  34
HETATM   34  C   UNL     1      -9.461   3.433  71.826  1.00  0.00    -0.144 A  
HETATM   35  H2  UNL     1      -6.679   0.837  73.748  1.00  0.00     0.000 HD 
HETATM   36  C   UNL     1     -10.300   2.602  72.548  1.00  0.00    -0.129 A  
HETATM   37  S   UNL     1      -9.382   1.472  73.446  1.00  0.00    -0.072 SA 
HETATM   38  H1  UNL     1      -5.879   2.047  72.749  1.00  0.00     0.000 HD 
HETATM   39  N   UNL     1      -6.737   1.643  73.125  1.00  0.00    -0.014 NA 
HETATM   40  N   UNL     1      -8.102   3.179  72.023  1.00  0.00    -0.061 NA 
HETATM   41  C   UNL     1      -7.939   2.151  72.815  1.00  0.00    -0.053 A  
ENDBRANCH  24  34
ENDBRANCH  23  24
ENDBRANCH   7  20
TORSDOF 7
ENDMDL
MODEL       88
REMARK 921   NORMALIZED FREE ENERGY PREDICTED BY IDOCK:   -5.73 KCAL/MOL
REMARK 922        TOTAL FREE ENERGY PREDICTED BY IDOCK:   -9.62 KCAL/MOL
REMARK 923 INTER-LIGAND FREE ENERGY PREDICTED BY IDOCK:   -8.32 KCAL/MOL
REMARK 924 INTRA-LIGAND FREE ENERGY PREDICTED BY IDOCK:   -1.30 KCAL/MOL
REMARK 927      BINDING AFFINITY PREDICTED BY RF-SCORE:    0.00 PKD
ROOT
HETATM    1  O   UNL     1     -13.152  14.269  72.578  1.00  0.00    -0.405 OA 
HETATM    2  C   UNL     1     -13.157  13.160  72.000  1.00  0.00    -0.376 C  
HETATM    3  CA  UNL     1     -12.627  13.124  70.500  1.00  0.00    -0.165 C  
HETATM    4  OXT UNL     1     -13.543  12.032  72.440  1.00  0.00    -0.338 OA 
HETATM    5  C   UNL     1     -12.294  11.941  69.925  1.00  0.00    -0.168 C  
HETATM    6  C   UNL     1     -11.737  11.758  68.537  1.00  0.00    -0.330 C  
HETATM    7  CA  UNL     1     -11.597  15.690  68.529  1.00  0.00    -0.370 C  
HETATM    8  S   UNL     1     -11.734  13.107  67.370  1.00  0.00    -0.368 SA 
HETATM    9  N   UNL     1     -12.401  14.269  69.791  1.00  0.00    -0.325 N  
HETATM   10  O   UNL     1     -11.654  16.181  71.019  1.00  0.00    -0.413 OA 
HETATM   11  C   UNL     1     -12.475  14.409  68.359  1.00  0.00     0.225 C  
HETATM   12  C   UNL     1     -11.953  15.527  70.049  1.00  0.00    -0.364 C  
ENDROOT
BRANCH   5  13
HETATM   13  C   UNL     1     -12.353  10.613  70.659  1.00  0.00    -0.369 C  
BRANCH  13  14
HETATM   14  N   UNL     1     -11.051   9.925  70.916  1.00  0.00    -0.340 NA 
HETATM   15  C   UNL     1      -8.806   9.388  70.306  1.00  0.00    -0.269 A  
HETATM   16  C   UNL     1      -8.831   8.284  71.147  1.00  0.00    -0.182 A  
HETATM   17  C   UNL     1      -9.929  10.210  70.213  1.00  0.00    -0.021 A  
HETATM   18  C   UNL     1     -11.049   8.907  71.809  1.00  0.00    -0.363 A  
HETATM   19  C   UNL     1      -9.955   8.055  71.925  1.00  0.00    -0.255 A  
ENDBRANCH  13  14
ENDBRANCH   5  13
BRANCH   7  20
HETATM   20  N   UNL     1     -10.111  15.621  68.231  1.00  0.00    -0.216 N  
HETATM   21  H   UNL     1      -9.724  14.759  67.846  1.00  0.00     0.000 HD 
HETATM   22  O   UNL     1      -9.560  17.731  69.041  1.00  0.00    -0.237 OA 
HETATM   23  C   UNL     1      -9.262  16.689  68.464  1.00  0.00    -0.234 C  
BRANCH  23  24
HETATM   24  C   UNL     1      -7.840  16.604  67.958  1.00  0.00    -0.170 C  
BRANCH  24  25
HETATM   25  N   UNL     1      -7.017  15.608  68.132  1.00  0.00    -0.113 NA 
HETATM   26  H   UNL     1      -6.314  15.610  68.872  1.00  0.00     0.000 HD 
BRANCH  25  27
HETATM   27  O   UNL     1      -7.152  14.534  67.243  1.00  0.00    -0.171 OA 
HETATM   28  C   UNL     1      -6.884  12.188  66.877  1.00  0.00     0.004 C  
HETATM   29  C   UNL     1      -8.199  13.037  68.828  1.00  0.00     0.111 C  
HETATM   30  O   UNL     1      -5.259  14.320  69.375  1.00  0.00    -0.086 OA 
HETATM   31  O   UNL     1      -5.132  12.099  69.083  1.00  0.00    -0.055 OA 
HETATM   32  C   UNL     1      -6.965  13.287  67.950  1.00  0.00    -0.137 C  
HETATM   33  C   UNL     1      -5.695  13.158  68.834  1.00  0.00    -0.074 C  
ENDBRANCH  25  27
ENDBRANCH  24  25
BRANCH  24  34
HETATM   34  C   UNL     1      -7.262  17.779  67.297  1.00  0.00    -0.179 A  
HETATM   35  H2  UNL     1      -5.716  20.045  64.033  1.00  0.00     0.000 HD 
HETATM   36  C   UNL     1      -6.716  18.873  67.945  1.00  0.00    -0.215 A  
HETATM   37  S   UNL     1      -6.051  19.963  66.805  1.00  0.00    -0.170 SA 
HETATM   38  H1  UNL     1      -6.508  18.565  63.499  1.00  0.00     0.000 HD 
HETATM   39  N   UNL     1      -6.228  19.190  64.255  1.00  0.00    -0.433 NA 
HETATM   40  N   UNL     1      -7.171  17.838  65.905  1.00  0.00    -0.468 NA 
HETATM   41  C   UNL     1      -6.521  18.911  65.534  1.00  0.00    -0.277 A  
ENDBRANCH  24  34
ENDBRANCH  23  24
ENDBRANCH   7  20
TORSDOF 7
ENDMDL
MODEL       89
REMARK 921   NORMALIZED FREE ENERGY PREDICTED BY IDOCK:   -5.71 KCAL/MOL
REMARK 922        TOTAL FREE ENERGY PREDICTED BY IDOCK:   -9.59 KCAL/MOL
REMARK 923 INTER-LIGAND FREE ENERGY PREDICTED BY IDOCK:   -7.97 KCAL/MOL
REMARK 924 INTRA-LIGAND FREE ENERGY PREDICTED BY IDOCK:   -1.62 KCAL/MOL
REMARK 927      BINDING AFFINITY PREDICTED BY RF-SCORE:    0.00 PKD
ROOT
HETATM    1  O   UNL     1      -6.059  10.187  66.352  1.00  0.00    -0.062 OA 
HETATM    2  C   UNL     1      -6.584  11.284  66.647  1.00  0.00    -0.135 C  
HETATM    3  CA  UNL     1      -8.115  11.257  67.084  1.00  0.00    -0.150 C  
HETATM    4  OXT UNL     1      -6.068  12.444  66.639  1.00  0.00    -0.126 OA 
HETATM    5  C   UNL     1      -8.657  12.324  67.723  1.00  0.00    -0.170 C  
HETATM    6  C   UNL     1     -10.070  12.423  68.235  1.00  0.00    -0.227 C  
HETATM    7  CA  UNL     1     -10.267   8.634  67.196  1.00  0.00    -0.283 C  
HETATM    8  S   UNL     1     -11.295  11.211  67.774  1.00  0.00    -0.271 SA 
HETATM    9  N   UNL     1      -8.888  10.144  66.920  1.00  0.00    -0.132 N  
HETATM   10  O   UNL     1      -7.803   8.023  67.128  1.00  0.00    -0.102 OA 
HETATM   11  C   UNL     1     -10.317  10.124  66.732  1.00  0.00    -0.222 C  
HETATM   12  C   UNL     1      -8.719   8.796  66.986  1.00  0.00    -0.123 C  
ENDROOT
BRANCH   5  13
HETATM   13  C   UNL     1      -7.861  13.560  68.102  1.00  0.00    -0.144 C  
BRANCH  13  14
HETATM   14  N   UNL     1      -8.453  14.884  67.735  1.00  0.00    -0.147 NA 
HETATM   15  C   UNL     1      -9.421  16.984  68.326  1.00  0.00    -0.265 A  
HETATM   16  C   UNL     1      -9.969  17.101  67.056  1.00  0.00    -0.287 A  
HETATM   17  C   UNL     1      -8.649  15.867  68.645  1.00  0.00    -0.198 A  
HETATM   18  C   UNL     1      -8.903  15.036  66.467  1.00  0.00    -0.251 A  
HETATM   19  C   UNL     1      -9.687  16.128  66.110  1.00  0.00    -0.352 A  
ENDBRANCH  13  14
ENDBRANCH   5  13
BRANCH   7  20
HETATM   20  N   UNL     1     -10.664   8.281  68.618  1.00  0.00    -0.410 N  
HETATM   21  H   UNL     1     -11.045   9.011  69.219  1.00  0.00     0.000 HD 
HETATM   22  O   UNL     1      -9.966   6.062  68.566  1.00  0.00    -0.128 OA 
HETATM   23  C   UNL     1     -10.527   7.000  69.125  1.00  0.00    -0.207 C  
BRANCH  23  24
HETATM   24  C   UNL     1     -11.126   6.693  70.479  1.00  0.00    -0.307 C  
BRANCH  24  25
HETATM   25  N   UNL     1     -10.841   5.669  71.235  1.00  0.00    -0.245 NA 
HETATM   26  H   UNL     1     -11.090   4.716  70.970  1.00  0.00     0.000 HD 
BRANCH  25  27
HETATM   27  O   UNL     1     -10.175   5.954  72.433  1.00  0.00    -0.182 OA 
HETATM   28  C   UNL     1      -8.463   5.322  73.975  1.00  0.00    -0.112 C  
HETATM   29  C   UNL     1      -7.944   5.648  71.550  1.00  0.00    -0.117 C  
HETATM   30  O   UNL     1     -10.159   3.266  71.461  1.00  0.00    -0.134 OA 
HETATM   31  O   UNL     1      -8.464   2.745  72.835  1.00  0.00    -0.070 OA 
HETATM   32  C   UNL     1      -8.993   5.130  72.544  1.00  0.00    -0.130 C  
HETATM   33  C   UNL     1      -9.171   3.603  72.323  1.00  0.00    -0.117 C  
ENDBRANCH  25  27
ENDBRANCH  24  25
BRANCH  24  34
HETATM   34  C   UNL     1     -12.210   7.548  70.973  1.00  0.00    -0.259 A  
HETATM   35  H2  UNL     1     -14.010  11.176  72.304  1.00  0.00     0.000 HD 
HETATM   36  C   UNL     1     -13.418   7.097  71.475  1.00  0.00    -0.332 A  
HETATM   37  S   UNL     1     -14.347   8.415  72.049  1.00  0.00    -0.437 SA 
HETATM   38  H1  UNL     1     -12.428  11.446  71.581  1.00  0.00     0.000 HD 
HETATM   39  N   UNL     1     -13.177  10.806  71.846  1.00  0.00    -0.466 NA 
HETATM   40  N   UNL     1     -12.055   8.935  71.023  1.00  0.00    -0.269 NA 
HETATM   41  C   UNL     1     -13.087   9.490  71.604  1.00  0.00    -0.401 A  
ENDBRANCH  24  34
ENDBRANCH  23  24
ENDBRANCH   7  20
TORSDOF 7
ENDMDL
MODEL       90
REMARK 921   NORMALIZED FREE ENERGY PREDICTED BY IDOCK:   -5.64 KCAL/MOL
REMARK 922        TOTAL FREE ENERGY PREDICTED BY IDOCK:   -9.48 KCAL/MOL
REMARK 923 INTER-LIGAND FREE ENERGY PREDICTED BY IDOCK:   -7.86 KCAL/MOL
REMARK 924 INTRA-LIGAND FREE ENERGY PREDICTED BY IDOCK:   -1.62 KCAL/MOL
REMARK 927      BINDING AFFINITY PREDICTED BY RF-SCORE:    0.00 PKD
ROOT
HETATM    1  O   UNL     1      -7.101   7.428  65.310  1.00  0.00    -0.060 OA 
HETATM    2  C   UNL     1      -7.799   7.276  66.336  1.00  0.00    -0.106 C  
HETATM    3  CA  UNL     1      -8.008   8.553  67.263  1.00  0.00    -0.102 C  
HETATM    4  OXT UNL     1      -8.372   6.226  66.765  1.00  0.00    -0.109 OA 
HETATM    5  C   UNL     1      -8.997   8.563  68.193  1.00  0.00    -0.142 C  
HETATM    6  C   UNL     1      -9.341   9.712  69.104  1.00  0.00    -0.172 C  
HETATM    7  CA  UNL     1      -6.690  11.666  66.952  1.00  0.00    -0.124 C  
HETATM    8  S   UNL     1      -8.252  11.118  69.252  1.00  0.00     0.192 SA 
HETATM    9  N   UNL     1      -7.277   9.693  67.089  1.00  0.00    -0.086 N  
HETATM   10  O   UNL     1      -6.622  10.237  64.854  1.00  0.00    -0.127 OA 
HETATM   11  C   UNL     1      -6.946  10.653  68.112  1.00  0.00    -0.073 C  
HETATM   12  C   UNL     1      -6.745  10.385  66.046  1.00  0.00    -0.124 C  
ENDROOT
BRANCH   5  13
HETATM   13  C   UNL     1      -9.976   7.418  68.379  1.00  0.00    -0.164 C  
BRANCH  13  14
HETATM   14  N   UNL     1     -10.099   6.852  69.757  1.00  0.00    -0.182 NA 
HETATM   15  C   UNL     1      -9.304   5.474  71.536  1.00  0.00    -0.172 A  
HETATM   16  C   UNL     1     -10.574   5.448  72.098  1.00  0.00    -0.284 A  
HETATM   17  C   UNL     1      -9.082   6.197  70.365  1.00  0.00    -0.153 A  
HETATM   18  C   UNL     1     -11.316   6.910  70.349  1.00  0.00    -0.328 A  
HETATM   19  C   UNL     1     -11.584   6.194  71.511  1.00  0.00    -0.304 A  
ENDBRANCH  13  14
ENDBRANCH   5  13
BRANCH   7  20
HETATM   20  N   UNL     1      -7.747  12.704  66.620  1.00  0.00    -0.350 N  
HETATM   21  H   UNL     1      -8.472  12.470  65.942  1.00  0.00     0.000 HD 
HETATM   22  O   UNL     1      -6.882  14.420  67.932  1.00  0.00    -0.132 OA 
HETATM   23  C   UNL     1      -7.759  13.957  67.208  1.00  0.00    -0.084 C  
BRANCH  23  24
HETATM   24  C   UNL     1      -8.953  14.854  66.969  1.00  0.00    -0.236 C  
BRANCH  24  25
HETATM   25  N   UNL     1     -10.104  14.492  66.476  1.00  0.00    -0.266 NA 
HETATM   26  H   UNL     1     -10.972  14.592  67.003  1.00  0.00     0.000 HD 
BRANCH  25  27
HETATM   27  O   UNL     1     -10.081  13.960  65.181  1.00  0.00    -0.346 OA 
HETATM   28  C   UNL     1     -11.334  13.027  63.374  1.00  0.00    -0.208 C  
HETATM   29  C   UNL     1     -11.961  15.239  64.357  1.00  0.00    -0.285 C  
HETATM   30  O   UNL     1     -12.238  13.250  66.917  1.00  0.00    -0.350 OA 
HETATM   31  O   UNL     1     -13.437  12.500  65.175  1.00  0.00    -0.275 OA 
HETATM   32  C   UNL     1     -11.431  13.835  64.678  1.00  0.00    -0.371 C  
HETATM   33  C   UNL     1     -12.461  13.114  65.589  1.00  0.00    -0.425 C  
ENDBRANCH  25  27
ENDBRANCH  24  25
BRANCH  24  34
HETATM   34  C   UNL     1      -8.802  16.294  67.205  1.00  0.00    -0.193 A  
HETATM   35  H2  UNL     1      -7.990  20.347  66.165  1.00  0.00     0.000 HD 
HETATM   36  C   UNL     1      -8.731  16.897  68.449  1.00  0.00    -0.244 A  
HETATM   37  S   UNL     1      -8.439  18.574  68.275  1.00  0.00    -0.325 SA 
HETATM   38  H1  UNL     1      -8.157  19.318  64.746  1.00  0.00     0.000 HD 
HETATM   39  N   UNL     1      -8.170  19.428  65.760  1.00  0.00    -0.417 NA 
HETATM   40  N   UNL     1      -8.655  17.178  66.134  1.00  0.00    -0.469 NA 
HETATM   41  C   UNL     1      -8.417  18.388  66.570  1.00  0.00    -0.270 A  
ENDBRANCH  24  34
ENDBRANCH  23  24
ENDBRANCH   7  20
TORSDOF 7
ENDMDL
MODEL       91
REMARK 921   NORMALIZED FREE ENERGY PREDICTED BY IDOCK:   -5.60 KCAL/MOL
REMARK 922        TOTAL FREE ENERGY PREDICTED BY IDOCK:   -9.44 KCAL/MOL
REMARK 923 INTER-LIGAND FREE ENERGY PREDICTED BY IDOCK:   -7.75 KCAL/MOL
REMARK 924 INTRA-LIGAND FREE ENERGY PREDICTED BY IDOCK:   -1.68 KCAL/MOL
REMARK 927      BINDING AFFINITY PREDICTED BY RF-SCORE:    0.00 PKD
ROOT
HETATM    1  O   UNL     1      -6.352   6.830  71.762  1.00  0.00    -0.041 OA 
HETATM    2  C   UNL     1      -7.441   6.227  71.883  1.00  0.00    -0.094 C  
HETATM    3  CA  UNL     1      -8.740   6.965  71.334  1.00  0.00    -0.126 C  
HETATM    4  OXT UNL     1      -7.672   5.091  72.403  1.00  0.00    -0.092 OA 
HETATM    5  C   UNL     1      -9.884   6.264  71.128  1.00  0.00    -0.203 C  
HETATM    6  C   UNL     1     -11.170   6.815  70.572  1.00  0.00    -0.320 C  
HETATM    7  CA  UNL     1      -9.035  10.067  69.985  1.00  0.00    -0.081 C  
HETATM    8  S   UNL     1     -11.409   8.575  70.395  1.00  0.00    -0.118 SA 
HETATM    9  N   UNL     1      -8.717   8.280  70.967  1.00  0.00    -0.136 N  
HETATM   10  O   UNL     1      -6.682   9.114  70.028  1.00  0.00    -0.041 OA 
HETATM   11  C   UNL     1      -9.835   9.190  70.999  1.00  0.00    -0.296 C  
HETATM   12  C   UNL     1      -7.835   9.135  70.383  1.00  0.00    -0.133 C  
ENDROOT
BRANCH   5  13
HETATM   13  C   UNL     1      -9.993   4.766  71.351  1.00  0.00    -0.197 C  
BRANCH  13  14
HETATM   14  N   UNL     1      -9.596   3.883  70.212  1.00  0.00    -0.192 NA 
HETATM   15  C   UNL     1      -9.625   3.308  67.895  1.00  0.00    -0.142 A  
HETATM   16  C   UNL     1      -9.262   2.004  68.204  1.00  0.00    -0.235 A  
HETATM   17  C   UNL     1      -9.775   4.243  68.919  1.00  0.00    -0.125 A  
HETATM   18  C   UNL     1      -9.149   2.640  70.512  1.00  0.00    -0.115 A  
HETATM   19  C   UNL     1      -8.998   1.673  69.524  1.00  0.00    -0.139 A  
ENDBRANCH  13  14
ENDBRANCH   5  13
BRANCH   7  20
HETATM   20  N   UNL     1      -9.393  10.017  68.510  1.00  0.00    -0.141 N  
HETATM   21  H   UNL     1     -10.009   9.276  68.178  1.00  0.00     0.000 HD 
HETATM   22  O   UNL     1      -8.062  11.801  67.834  1.00  0.00    -0.129 OA 
HETATM   23  C   UNL     1      -8.910  10.944  67.603  1.00  0.00    -0.133 C  
BRANCH  23  24
HETATM   24  C   UNL     1      -9.470  10.938  66.199  1.00  0.00    -0.200 C  
BRANCH  24  25
HETATM   25  N   UNL     1     -10.459  11.664  65.758  1.00  0.00    -0.254 NA 
HETATM   26  H   UNL     1     -11.346  11.249  65.471  1.00  0.00     0.000 HD 
BRANCH  25  27
HETATM   27  O   UNL     1     -10.234  13.044  65.701  1.00  0.00    -0.282 OA 
HETATM   28  C   UNL     1     -11.006  15.172  64.936  1.00  0.00    -0.434 C  
HETATM   29  C   UNL     1     -12.491  13.684  66.291  1.00  0.00    -0.420 C  
HETATM   30  O   UNL     1     -11.863  11.837  63.686  1.00  0.00    -0.447 OA 
HETATM   31  O   UNL     1     -12.662  13.845  63.082  1.00  0.00    -0.718 OA 
HETATM   32  C   UNL     1     -11.413  13.713  65.198  1.00  0.00    -0.316 C  
HETATM   33  C   UNL     1     -12.029  13.166  63.882  1.00  0.00    -0.488 C  
ENDBRANCH  25  27
ENDBRANCH  24  25
BRANCH  24  34
HETATM   34  C   UNL     1      -8.943   9.958  65.242  1.00  0.00    -0.191 A  
HETATM   35  H2  UNL     1      -7.228   6.258  64.003  1.00  0.00     0.000 HD 
HETATM   36  C   UNL     1      -8.619  10.224  63.923  1.00  0.00    -0.187 A  
HETATM   37  S   UNL     1      -7.931   8.837  63.194  1.00  0.00    -0.167 SA 
HETATM   38  H1  UNL     1      -7.766   6.213  65.679  1.00  0.00     0.000 HD 
HETATM   39  N   UNL     1      -7.666   6.720  64.800  1.00  0.00    -0.105 NA 
HETATM   40  N   UNL     1      -8.669   8.649  65.643  1.00  0.00    -0.173 NA 
HETATM   41  C   UNL     1      -8.099   7.984  64.672  1.00  0.00    -0.140 A  
ENDBRANCH  24  34
ENDBRANCH  23  24
ENDBRANCH   7  20
TORSDOF 7
ENDMDL
MODEL       92
REMARK 921   NORMALIZED FREE ENERGY PREDICTED BY IDOCK:   -5.60 KCAL/MOL
REMARK 922        TOTAL FREE ENERGY PREDICTED BY IDOCK:   -9.42 KCAL/MOL
REMARK 923 INTER-LIGAND FREE ENERGY PREDICTED BY IDOCK:   -8.11 KCAL/MOL
REMARK 924 INTRA-LIGAND FREE ENERGY PREDICTED BY IDOCK:   -1.32 KCAL/MOL
REMARK 927      BINDING AFFINITY PREDICTED BY RF-SCORE:    0.00 PKD
ROOT
HETATM    1  O   UNL     1     -10.262   8.346  66.144  1.00  0.00    -0.131 OA 
HETATM    2  C   UNL     1      -9.630   8.095  67.194  1.00  0.00    -0.174 C  
HETATM    3  CA  UNL     1      -8.707   9.254  67.776  1.00  0.00    -0.120 C  
HETATM    4  OXT UNL     1      -9.607   7.023  67.875  1.00  0.00    -0.124 OA 
HETATM    5  C   UNL     1      -8.259   9.186  69.055  1.00  0.00    -0.115 C  
HETATM    6  C   UNL     1      -7.421  10.225  69.753  1.00  0.00    -0.165 C  
HETATM    7  CA  UNL     1      -8.058  12.328  66.490  1.00  0.00     0.164 C  
HETATM    8  S   UNL     1      -6.668  11.558  68.837  1.00  0.00    -0.094 SA 
HETATM    9  N   UNL     1      -8.424  10.377  67.054  1.00  0.00    -0.126 N  
HETATM   10  O   UNL     1     -10.119  11.169  65.564  1.00  0.00    -0.234 OA 
HETATM   11  C   UNL     1      -7.240  11.188  67.176  1.00  0.00    -0.120 C  
HETATM   12  C   UNL     1      -9.068  11.172  66.158  1.00  0.00    -0.201 C  
ENDROOT
BRANCH   5  13
HETATM   13  C   UNL     1      -8.631   8.066  70.010  1.00  0.00    -0.134 C  
BRANCH  13  14
HETATM   14  N   UNL     1      -9.953   8.177  70.700  1.00  0.00    -0.188 NA 
HETATM   15  C   UNL     1     -11.924   9.396  71.272  1.00  0.00    -0.430 A  
HETATM   16  C   UNL     1     -12.147   8.551  72.350  1.00  0.00    -0.436 A  
HETATM   17  C   UNL     1     -10.821   9.184  70.444  1.00  0.00    -0.242 A  
HETATM   18  C   UNL     1     -10.215   7.292  71.691  1.00  0.00    -0.192 A  
HETATM   19  C   UNL     1     -11.297   7.473  72.547  1.00  0.00    -0.384 A  
ENDBRANCH  13  14
ENDBRANCH   5  13
BRANCH   7  20
HETATM   20  N   UNL     1      -8.647  13.439  67.339  1.00  0.00    -0.194 N  
HETATM   21  H   UNL     1      -9.613  13.357  67.658  1.00  0.00     0.000 HD 
HETATM   22  O   UNL     1      -6.802  14.854  67.277  1.00  0.00    -0.254 OA 
HETATM   23  C   UNL     1      -7.918  14.560  67.695  1.00  0.00    -0.177 C  
BRANCH  23  24
HETATM   24  C   UNL     1      -8.515  15.519  68.700  1.00  0.00    -0.174 C  
BRANCH  24  25
HETATM   25  N   UNL     1      -9.475  15.257  69.543  1.00  0.00    -0.368 NA 
HETATM   26  H   UNL     1      -9.767  15.929  70.254  1.00  0.00     0.000 HD 
BRANCH  25  27
HETATM   27  O   UNL     1     -10.080  14.002  69.417  1.00  0.00     0.054 OA 
HETATM   28  C   UNL     1     -12.106  12.736  69.484  1.00  0.00    -0.265 C  
HETATM   29  C   UNL     1     -11.903  14.749  68.014  1.00  0.00    -0.324 C  
HETATM   30  O   UNL     1     -11.395  16.009  70.971  1.00  0.00    -0.382 OA 
HETATM   31  O   UNL     1     -13.316  14.850  70.902  1.00  0.00    -0.375 OA 
HETATM   32  C   UNL     1     -11.517  14.153  69.374  1.00  0.00    -0.288 C  
HETATM   33  C   UNL     1     -12.173  15.009  70.492  1.00  0.00    -0.337 C  
ENDBRANCH  25  27
ENDBRANCH  24  25
BRANCH  24  34
HETATM   34  C   UNL     1      -8.069  16.917  68.681  1.00  0.00    -0.253 A  
HETATM   35  H2  UNL     1      -5.632  20.243  69.764  1.00  0.00     0.000 HD 
HETATM   36  C   UNL     1      -8.783  17.976  68.149  1.00  0.00    -0.272 A  
HETATM   37  S   UNL     1      -7.958  19.448  68.439  1.00  0.00    -0.347 SA 
HETATM   38  H1  UNL     1      -4.947  18.713  70.305  1.00  0.00     0.000 HD 
HETATM   39  N   UNL     1      -5.684  19.225  69.820  1.00  0.00    -0.233 NA 
HETATM   40  N   UNL     1      -6.864  17.287  69.283  1.00  0.00    -0.236 NA 
HETATM   41  C   UNL     1      -6.720  18.587  69.255  1.00  0.00    -0.234 A  
ENDBRANCH  24  34
ENDBRANCH  23  24
ENDBRANCH   7  20
TORSDOF 7
ENDMDL
MODEL       93
REMARK 921   NORMALIZED FREE ENERGY PREDICTED BY IDOCK:   -5.58 KCAL/MOL
REMARK 922        TOTAL FREE ENERGY PREDICTED BY IDOCK:   -9.41 KCAL/MOL
REMARK 923 INTER-LIGAND FREE ENERGY PREDICTED BY IDOCK:   -7.48 KCAL/MOL
REMARK 924 INTRA-LIGAND FREE ENERGY PREDICTED BY IDOCK:   -1.93 KCAL/MOL
REMARK 927      BINDING AFFINITY PREDICTED BY RF-SCORE:    0.00 PKD
ROOT
HETATM    1  O   UNL     1      -5.482   6.107  67.464  1.00  0.00    -0.005 OA 
HETATM    2  C   UNL     1      -6.323   5.205  67.255  1.00  0.00    -0.040 C  
HETATM    3  CA  UNL     1      -7.771   5.407  67.885  1.00  0.00    -0.092 C  
HETATM    4  OXT UNL     1      -6.187   4.120  66.608  1.00  0.00    -0.030 OA 
HETATM    5  C   UNL     1      -8.815   4.661  67.442  1.00  0.00    -0.110 C  
HETATM    6  C   UNL     1     -10.242   4.774  67.909  1.00  0.00    -0.001 C  
HETATM    7  CA  UNL     1      -8.908   7.903  69.885  1.00  0.00    -0.141 C  
HETATM    8  S   UNL     1     -10.658   5.739  69.351  1.00  0.00    -0.319 SA 
HETATM    9  N   UNL     1      -8.024   6.386  68.803  1.00  0.00    -0.109 N  
HETATM   10  O   UNL     1      -6.784   8.421  68.595  1.00  0.00    -0.057 OA 
HETATM   11  C   UNL     1      -9.038   6.348  69.826  1.00  0.00    -0.141 C  
HETATM   12  C   UNL     1      -7.608   7.659  69.040  1.00  0.00    -0.104 C  
ENDROOT
BRANCH   5  13
HETATM   13  C   UNL     1      -8.695   3.648  66.318  1.00  0.00    -0.120 C  
BRANCH  13  14
HETATM   14  N   UNL     1      -9.243   4.050  64.986  1.00  0.00    -0.142 NA 
HETATM   15  C   UNL     1     -10.711   3.713  63.134  1.00  0.00    -0.210 A  
HETATM   16  C   UNL     1      -9.908   4.518  62.337  1.00  0.00    -0.034 A  
HETATM   17  C   UNL     1     -10.367   3.500  64.469  1.00  0.00    -0.104 A  
HETATM   18  C   UNL     1      -8.508   4.912  64.243  1.00  0.00    -0.137 A  
HETATM   19  C   UNL     1      -8.808   5.143  62.905  1.00  0.00    -0.018 A  
ENDBRANCH  13  14
ENDBRANCH   5  13
BRANCH   7  20
HETATM   20  N   UNL     1      -9.946   8.766  69.190  1.00  0.00    -0.185 N  
HETATM   21  H   UNL     1     -10.752   8.314  68.757  1.00  0.00     0.000 HD 
HETATM   22  O   UNL     1      -8.863  10.804  69.480  1.00  0.00    -0.040 OA 
HETATM   23  C   UNL     1      -9.835  10.144  69.124  1.00  0.00    -0.214 C  
BRANCH  23  24
HETATM   24  C   UNL     1     -11.004  10.937  68.587  1.00  0.00    -0.227 C  
BRANCH  24  25
HETATM   25  N   UNL     1     -11.518  10.843  67.392  1.00  0.00    -0.489 NA 
HETATM   26  H   UNL     1     -12.441  11.217  67.170  1.00  0.00     0.000 HD 
BRANCH  25  27
HETATM   27  O   UNL     1     -10.730  10.200  66.430  1.00  0.00    -0.125 OA 
HETATM   28  C   UNL     1      -9.669  10.329  64.293  1.00  0.00    -0.373 C  
HETATM   29  C   UNL     1      -9.248  12.071  66.038  1.00  0.00    -0.152 C  
HETATM   30  O   UNL     1     -12.462  12.313  65.592  1.00  0.00    -0.591 OA 
HETATM   31  O   UNL     1     -11.358  12.491  63.647  1.00  0.00    -0.420 OA 
HETATM   32  C   UNL     1     -10.311  11.150  65.424  1.00  0.00    -0.271 C  
HETATM   33  C   UNL     1     -11.416  12.031  64.780  1.00  0.00    -0.298 C  
ENDBRANCH  25  27
ENDBRANCH  24  25
BRANCH  24  34
HETATM   34  C   UNL     1     -11.574  11.996  69.426  1.00  0.00    -0.330 A  
HETATM   35  H2  UNL     1     -13.878  13.613  72.628  1.00  0.00     0.000 HD 
HETATM   36  C   UNL     1     -11.590  13.344  69.112  1.00  0.00    -0.315 A  
HETATM   37  S   UNL     1     -12.451  14.218  70.304  1.00  0.00    -0.333 SA 
HETATM   38  H1  UNL     1     -13.668  11.871  72.774  1.00  0.00     0.000 HD 
HETATM   39  N   UNL     1     -13.489  12.740  72.271  1.00  0.00    -0.558 NA 
HETATM   40  N   UNL     1     -12.219  11.684  70.625  1.00  0.00    -0.384 NA 
HETATM   41  C   UNL     1     -12.752  12.757  71.150  1.00  0.00    -0.263 A  
ENDBRANCH  24  34
ENDBRANCH  23  24
ENDBRANCH   7  20
TORSDOF 7
ENDMDL
MODEL       94
REMARK 921   NORMALIZED FREE ENERGY PREDICTED BY IDOCK:   -5.52 KCAL/MOL
REMARK 922        TOTAL FREE ENERGY PREDICTED BY IDOCK:   -9.32 KCAL/MOL
REMARK 923 INTER-LIGAND FREE ENERGY PREDICTED BY IDOCK:   -8.58 KCAL/MOL
REMARK 924 INTRA-LIGAND FREE ENERGY PREDICTED BY IDOCK:   -0.74 KCAL/MOL
REMARK 927      BINDING AFFINITY PREDICTED BY RF-SCORE:    0.00 PKD
ROOT
HETATM    1  O   UNL     1      -7.575  15.159  69.352  1.00  0.00    -0.185 OA 
HETATM    2  C   UNL     1      -8.792  15.380  69.164  1.00  0.00    -0.249 C  
HETATM    3  CA  UNL     1      -9.613  14.271  68.371  1.00  0.00    -0.221 C  
HETATM    4  OXT UNL     1      -9.484  16.388  69.511  1.00  0.00    -0.168 OA 
HETATM    5  C   UNL     1     -10.970  14.272  68.411  1.00  0.00    -0.267 C  
HETATM    6  C   UNL     1     -11.874  13.264  67.752  1.00  0.00    -0.353 C  
HETATM    7  CA  UNL     1      -8.508  11.396  66.944  1.00  0.00    -0.157 C  
HETATM    8  S   UNL     1     -11.229  12.094  66.570  1.00  0.00    -0.345 SA 
HETATM    9  N   UNL     1      -8.990  13.247  67.718  1.00  0.00    -0.185 N  
HETATM   10  O   UNL     1      -6.958  12.423  68.673  1.00  0.00    -0.081 OA 
HETATM   11  C   UNL     1      -9.492  12.547  66.563  1.00  0.00    -0.240 C  
HETATM   12  C   UNL     1      -7.888  12.472  67.906  1.00  0.00    -0.144 C  
ENDROOT
BRANCH   5  13
HETATM   13  C   UNL     1     -11.777  15.266  69.227  1.00  0.00    -0.338 C  
BRANCH  13  14
HETATM   14  N   UNL     1     -12.605  14.710  70.341  1.00  0.00    -0.349 NA 
HETATM   15  C   UNL     1     -14.009  14.990  72.251  1.00  0.00    -0.611 A  
HETATM   16  C   UNL     1     -13.730  13.692  72.659  1.00  0.00    -0.551 A  
HETATM   17  C   UNL     1     -13.444  15.480  71.074  1.00  0.00    -0.368 A  
HETATM   18  C   UNL     1     -12.405  13.414  70.681  1.00  0.00    -0.348 A  
HETATM   19  C   UNL     1     -12.939  12.889  71.852  1.00  0.00    -0.405 A  
ENDBRANCH  13  14
ENDBRANCH   5  13
BRANCH   7  20
HETATM   20  N   UNL     1      -9.039  10.164  67.655  1.00  0.00    -0.137 N  
HETATM   21  H   UNL     1      -9.980  10.190  68.049  1.00  0.00     0.000 HD 
HETATM   22  O   UNL     1      -7.107   8.880  67.482  1.00  0.00    -0.075 OA 
HETATM   23  C   UNL     1      -8.289   9.008  67.785  1.00  0.00    -0.117 C  
BRANCH  23  24
HETATM   24  C   UNL     1      -8.963   7.769  68.331  1.00  0.00    -0.132 C  
BRANCH  24  25
HETATM   25  N   UNL     1      -9.669   7.692  69.425  1.00  0.00    -0.163 NA 
HETATM   26  H   UNL     1     -10.378   8.387  69.660  1.00  0.00     0.000 HD 
BRANCH  25  27
HETATM   27  O   UNL     1      -9.396   6.601  70.259  1.00  0.00    -0.158 OA 
HETATM   28  C   UNL     1      -9.082   5.813  72.493  1.00  0.00    -0.136 C  
HETATM   29  C   UNL     1     -11.148   7.073  71.859  1.00  0.00    -0.274 C  
HETATM   30  O   UNL     1      -8.802   9.232  71.206  1.00  0.00    -0.290 OA 
HETATM   31  O   UNL     1      -8.642   8.474  73.311  1.00  0.00    -0.359 OA 
HETATM   32  C   UNL     1      -9.633   6.967  71.637  1.00  0.00    -0.161 C  
HETATM   33  C   UNL     1      -8.966   8.273  72.147  1.00  0.00    -0.209 C  
ENDBRANCH  25  27
ENDBRANCH  24  25
BRANCH  24  34
HETATM   34  C   UNL     1      -8.736   6.492  67.647  1.00  0.00    -0.114 A  
HETATM   35  H2  UNL     1      -9.617   3.299  64.964  1.00  0.00     0.000 HD 
HETATM   36  C   UNL     1      -7.796   5.545  68.015  1.00  0.00    -0.096 A  
HETATM   37  S   UNL     1      -7.941   4.155  67.027  1.00  0.00    -0.097 SA 
HETATM   38  H1  UNL     1     -10.669   4.689  64.711  1.00  0.00     0.000 HD 
HETATM   39  N   UNL     1      -9.896   4.249  65.211  1.00  0.00    -0.196 NA 
HETATM   40  N   UNL     1      -9.534   6.112  66.567  1.00  0.00    -0.153 NA 
HETATM   41  C   UNL     1      -9.240   4.895  66.187  1.00  0.00    -0.146 A  
ENDBRANCH  24  34
ENDBRANCH  23  24
ENDBRANCH   7  20
TORSDOF 7
ENDMDL
MODEL       95
REMARK 921   NORMALIZED FREE ENERGY PREDICTED BY IDOCK:   -5.47 KCAL/MOL
REMARK 922        TOTAL FREE ENERGY PREDICTED BY IDOCK:   -9.25 KCAL/MOL
REMARK 923 INTER-LIGAND FREE ENERGY PREDICTED BY IDOCK:   -7.69 KCAL/MOL
REMARK 924 INTRA-LIGAND FREE ENERGY PREDICTED BY IDOCK:   -1.57 KCAL/MOL
REMARK 927      BINDING AFFINITY PREDICTED BY RF-SCORE:    0.00 PKD
ROOT
HETATM    1  O   UNL     1      -5.900  10.977  67.743  1.00  0.00    -0.046 OA 
HETATM    2  C   UNL     1      -7.004  11.358  67.294  1.00  0.00    -0.115 C  
HETATM    3  CA  UNL     1      -8.224  10.344  67.422  1.00  0.00    -0.117 C  
HETATM    4  OXT UNL     1      -7.300  12.456  66.728  1.00  0.00     0.007 OA 
HETATM    5  C   UNL     1      -9.497  10.790  67.268  1.00  0.00    -0.177 C  
HETATM    6  C   UNL     1     -10.747   9.960  67.407  1.00  0.00    -0.260 C  
HETATM    7  CA  UNL     1      -8.256   7.168  68.621  1.00  0.00    -0.125 C  
HETATM    8  S   UNL     1     -10.656   8.181  67.505  1.00  0.00    -0.168 SA 
HETATM    9  N   UNL     1      -8.039   9.040  67.780  1.00  0.00    -0.109 N  
HETATM   10  O   UNL     1      -6.250   8.570  69.296  1.00  0.00    -0.040 OA 
HETATM   11  C   UNL     1      -8.881   7.930  67.410  1.00  0.00    -0.127 C  
HETATM   12  C   UNL     1      -7.214   8.342  68.606  1.00  0.00    -0.080 C  
ENDROOT
BRANCH   5  13
HETATM   13  C   UNL     1      -9.844  12.247  67.021  1.00  0.00    -0.205 C  
BRANCH  13  14
HETATM   14  N   UNL     1     -10.750  12.540  65.868  1.00  0.00    -0.258 NA 
HETATM   15  C   UNL     1     -11.263  12.484  63.538  1.00  0.00    -0.525 A  
HETATM   16  C   UNL     1     -12.193  13.501  63.707  1.00  0.00    -0.449 A  
HETATM   17  C   UNL     1     -10.556  12.004  64.641  1.00  0.00    -0.307 A  
HETATM   18  C   UNL     1     -11.722  13.465  66.058  1.00  0.00    -0.362 A  
HETATM   19  C   UNL     1     -12.441  13.979  64.985  1.00  0.00    -0.446 A  
ENDBRANCH  13  14
ENDBRANCH   5  13
BRANCH   7  20
HETATM   20  N   UNL     1      -9.040   7.053  69.916  1.00  0.00    -0.142 N  
HETATM   21  H   UNL     1      -8.906   7.762  70.637  1.00  0.00     0.000 HD 
HETATM   22  O   UNL     1     -10.090   5.034  69.435  1.00  0.00    -0.210 OA 
HETATM   23  C   UNL     1      -9.929   6.019  70.149  1.00  0.00    -0.178 C  
BRANCH  23  24
HETATM   24  C   UNL     1     -10.809   6.088  71.377  1.00  0.00    -0.270 C  
BRANCH  24  25
HETATM   25  N   UNL     1     -10.787   5.267  72.390  1.00  0.00    -0.229 NA 
HETATM   26  H   UNL     1     -11.627   4.785  72.712  1.00  0.00     0.000 HD 
BRANCH  25  27
HETATM   27  O   UNL     1      -9.545   5.087  73.011  1.00  0.00    -0.141 OA 
HETATM   28  C   UNL     1      -8.047   3.575  74.096  1.00  0.00    -0.074 C  
HETATM   29  C   UNL     1      -8.978   3.051  71.835  1.00  0.00    -0.138 C  
HETATM   30  O   UNL     1     -11.672   3.284  73.646  1.00  0.00    -0.096 OA 
HETATM   31  O   UNL     1     -10.216   1.831  74.542  1.00  0.00    -0.103 OA 
HETATM   32  C   UNL     1      -9.293   3.676  73.200  1.00  0.00    -0.102 C  
HETATM   33  C   UNL     1     -10.414   2.841  73.879  1.00  0.00    -0.155 C  
ENDBRANCH  25  27
ENDBRANCH  24  25
BRANCH  24  34
HETATM   34  C   UNL     1     -11.871   7.099  71.419  1.00  0.00    -0.308 A  
HETATM   35  H2  UNL     1     -13.496  11.034  71.639  1.00  0.00     0.000 HD 
HETATM   36  C   UNL     1     -13.213   6.839  71.633  1.00  0.00    -0.162 A  
HETATM   37  S   UNL     1     -14.091   8.306  71.723  1.00  0.00    -0.438 SA 
HETATM   38  H1  UNL     1     -11.760  11.047  71.346  1.00  0.00     0.000 HD 
HETATM   39  N   UNL     1     -12.624  10.525  71.489  1.00  0.00    -0.410 NA 
HETATM   40  N   UNL     1     -11.565   8.456  71.299  1.00  0.00    -0.276 NA 
HETATM   41  C   UNL     1     -12.637   9.184  71.483  1.00  0.00    -0.343 A  
ENDBRANCH  24  34
ENDBRANCH  23  24
ENDBRANCH   7  20
TORSDOF 7
ENDMDL
MODEL       96
REMARK 921   NORMALIZED FREE ENERGY PREDICTED BY IDOCK:   -5.42 KCAL/MOL
REMARK 922        TOTAL FREE ENERGY PREDICTED BY IDOCK:   -9.18 KCAL/MOL
REMARK 923 INTER-LIGAND FREE ENERGY PREDICTED BY IDOCK:   -7.83 KCAL/MOL
REMARK 924 INTRA-LIGAND FREE ENERGY PREDICTED BY IDOCK:   -1.35 KCAL/MOL
REMARK 927      BINDING AFFINITY PREDICTED BY RF-SCORE:    0.00 PKD
ROOT
HETATM    1  O   UNL     1     -11.479  18.055  67.920  1.00  0.00     0.328 OA 
HETATM    2  C   UNL     1     -10.294  18.194  67.543  1.00  0.00    -0.392 C  
HETATM    3  CA  UNL     1      -9.344  16.922  67.660  1.00  0.00    -0.233 C  
HETATM    4  OXT UNL     1      -9.720  19.228  67.080  1.00  0.00    -0.307 OA 
HETATM    5  C   UNL     1      -8.168  16.888  66.984  1.00  0.00    -0.228 C  
HETATM    6  C   UNL     1      -7.194  15.740  66.962  1.00  0.00    -0.173 C  
HETATM    7  CA  UNL     1     -10.018  13.855  68.949  1.00  0.00    -0.069 C  
HETATM    8  S   UNL     1      -7.365  14.376  68.100  1.00  0.00    -0.148 SA 
HETATM    9  N   UNL     1      -9.720  15.807  68.352  1.00  0.00    -0.200 N  
HETATM   10  O   UNL     1     -12.048  15.259  68.352  1.00  0.00    -0.236 OA 
HETATM   11  C   UNL     1      -8.836  14.873  69.001  1.00  0.00    -0.179 C  
HETATM   12  C   UNL     1     -10.872  15.122  68.585  1.00  0.00    -0.245 C  
ENDROOT
BRANCH   5  13
HETATM   13  C   UNL     1      -7.708  18.000  66.058  1.00  0.00    -0.176 C  
BRANCH  13  14
HETATM   14  N   UNL     1      -6.803  19.036  66.643  1.00  0.00    -0.193 NA 
HETATM   15  C   UNL     1      -5.777  20.111  68.511  1.00  0.00    -0.276 A  
HETATM   16  C   UNL     1      -5.517  21.233  67.736  1.00  0.00    -0.378 A  
HETATM   17  C   UNL     1      -6.413  19.009  67.939  1.00  0.00    -0.223 A  
HETATM   18  C   UNL     1      -6.468  20.087  65.857  1.00  0.00    -0.217 A  
HETATM   19  C   UNL     1      -5.844  21.211  66.389  1.00  0.00    -0.324 A  
ENDBRANCH  13  14
ENDBRANCH   5  13
BRANCH   7  20
HETATM   20  N   UNL     1     -10.028  12.776  67.881  1.00  0.00    -0.222 N  
HETATM   21  H   UNL     1      -9.706  13.009  66.942  1.00  0.00     0.000 HD 
HETATM   22  O   UNL     1     -10.992  11.101  69.177  1.00  0.00    -0.214 OA 
HETATM   23  C   UNL     1     -10.458  11.486  68.141  1.00  0.00    -0.193 C  
BRANCH  23  24
HETATM   24  C   UNL     1     -10.251  10.429  67.079  1.00  0.00    -0.225 C  
BRANCH  24  25
HETATM   25  N   UNL     1      -9.968   9.173  67.284  1.00  0.00    -0.195 NA 
HETATM   26  H   UNL     1     -10.326   8.434  66.679  1.00  0.00     0.000 HD 
BRANCH  25  27
HETATM   27  O   UNL     1      -9.144   8.898  68.382  1.00  0.00    -0.137 OA 
HETATM   28  C   UNL     1      -7.236   7.724  69.213  1.00  0.00    -0.081 C  
HETATM   29  C   UNL     1      -7.054   9.198  67.201  1.00  0.00    -0.082 C  
HETATM   30  O   UNL     1      -9.258   7.004  66.244  1.00  0.00    -0.166 OA 
HETATM   31  O   UNL     1      -7.390   6.006  66.984  1.00  0.00    -0.074 OA 
HETATM   32  C   UNL     1      -7.956   8.201  67.941  1.00  0.00    -0.127 C  
HETATM   33  C   UNL     1      -8.162   6.955  67.036  1.00  0.00    -0.120 C  
ENDBRANCH  25  27
ENDBRANCH  24  25
BRANCH  24  34
HETATM   34  C   UNL     1     -10.257  10.843  65.672  1.00  0.00    -0.263 A  
HETATM   35  H2  UNL     1     -11.757  12.801  62.195  1.00  0.00     0.000 HD 
HETATM   36  C   UNL     1      -9.455  10.310  64.678  1.00  0.00    -0.293 A  
HETATM   37  S   UNL     1      -9.863  10.991  63.162  1.00  0.00    -0.352 SA 
HETATM   38  H1  UNL     1     -12.596  13.309  63.657  1.00  0.00     0.000 HD 
HETATM   39  N   UNL     1     -11.874  12.746  63.207  1.00  0.00    -0.505 NA 
HETATM   40  N   UNL     1     -11.161  11.807  65.218  1.00  0.00    -0.297 NA 
HETATM   41  C   UNL     1     -11.077  11.937  63.919  1.00  0.00    -0.412 A  
ENDBRANCH  24  34
ENDBRANCH  23  24
ENDBRANCH   7  20
TORSDOF 7
ENDMDL
MODEL       97
REMARK 921   NORMALIZED FREE ENERGY PREDICTED BY IDOCK:   -5.42 KCAL/MOL
REMARK 922        TOTAL FREE ENERGY PREDICTED BY IDOCK:   -9.18 KCAL/MOL
REMARK 923 INTER-LIGAND FREE ENERGY PREDICTED BY IDOCK:   -7.51 KCAL/MOL
REMARK 924 INTRA-LIGAND FREE ENERGY PREDICTED BY IDOCK:   -1.67 KCAL/MOL
REMARK 927      BINDING AFFINITY PREDICTED BY RF-SCORE:    0.00 PKD
ROOT
HETATM    1  O   UNL     1     -13.324   8.524  72.990  1.00  0.00    -0.138 OA 
HETATM    2  C   UNL     1     -13.085   9.545  72.309  1.00  0.00    -0.408 C  
HETATM    3  CA  UNL     1     -11.718   9.566  71.494  1.00  0.00    -0.402 C  
HETATM    4  OXT UNL     1     -13.784  10.598  72.176  1.00  0.00    -0.188 OA 
HETATM    5  C   UNL     1     -11.537  10.466  70.494  1.00  0.00    -0.433 C  
HETATM    6  C   UNL     1     -10.321  10.573  69.612  1.00  0.00    -0.193 C  
HETATM    7  CA  UNL     1      -9.218   7.269  71.441  1.00  0.00    -0.142 C  
HETATM    8  S   UNL     1      -8.827   9.680  70.003  1.00  0.00    -0.226 SA 
HETATM    9  N   UNL     1     -10.742   8.636  71.706  1.00  0.00    -0.294 N  
HETATM   10  O   UNL     1     -11.450   6.435  72.318  1.00  0.00    -0.273 OA 
HETATM   11  C   UNL     1      -9.328   8.826  71.500  1.00  0.00    -0.267 C  
HETATM   12  C   UNL     1     -10.679   7.313  72.016  1.00  0.00    -0.211 C  
ENDROOT
BRANCH   5  13
HETATM   13  C   UNL     1     -12.606  11.452  70.059  1.00  0.00    -0.059 C  
BRANCH  13  14
HETATM   14  N   UNL     1     -12.192  12.883  69.926  1.00  0.00    -0.237 NA 
HETATM   15  C   UNL     1     -12.140  15.133  70.720  1.00  0.00    -0.387 A  
HETATM   16  C   UNL     1     -11.838  15.588  69.443  1.00  0.00    -0.392 A  
HETATM   17  C   UNL     1     -12.301  13.766  70.946  1.00  0.00    -0.380 A  
HETATM   18  C   UNL     1     -11.804  13.309  68.700  1.00  0.00    -0.345 A  
HETATM   19  C   UNL     1     -11.645  14.663  68.429  1.00  0.00    -0.351 A  
ENDBRANCH  13  14
ENDBRANCH   5  13
BRANCH   7  20
HETATM   20  N   UNL     1      -9.104   6.580  70.093  1.00  0.00    -0.154 N  
HETATM   21  H   UNL     1      -9.943   6.468  69.524  1.00  0.00     0.000 HD 
HETATM   22  O   UNL     1      -6.846   6.042  70.239  1.00  0.00    -0.050 OA 
HETATM   23  C   UNL     1      -7.899   6.097  69.612  1.00  0.00    -0.103 C  
BRANCH  23  24
HETATM   24  C   UNL     1      -7.840   5.603  68.185  1.00  0.00    -0.096 C  
BRANCH  24  25
HETATM   25  N   UNL     1      -7.694   6.338  67.117  1.00  0.00    -0.096 NA 
HETATM   26  H   UNL     1      -7.599   5.927  66.188  1.00  0.00     0.000 HD 
BRANCH  25  27
HETATM   27  O   UNL     1      -7.675   7.722  67.320  1.00  0.00    -0.108 OA 
HETATM   28  C   UNL     1      -8.225   9.883  66.462  1.00  0.00    -0.121 C  
HETATM   29  C   UNL     1      -9.968   8.099  66.651  1.00  0.00    -0.339 C  
HETATM   30  O   UNL     1      -7.805   6.731  64.642  1.00  0.00    -0.107 OA 
HETATM   31  O   UNL     1      -8.446   8.746  63.892  1.00  0.00    -0.168 OA 
HETATM   32  C   UNL     1      -8.494   8.375  66.324  1.00  0.00    -0.127 C  
HETATM   33  C   UNL     1      -8.238   7.998  64.840  1.00  0.00    -0.134 C  
ENDBRANCH  25  27
ENDBRANCH  24  25
BRANCH  24  34
HETATM   34  C   UNL     1      -8.070   4.176  67.930  1.00  0.00    -0.090 A  
HETATM   35  H2  UNL     1      -8.054   0.575  65.650  1.00  0.00     0.000 HD 
HETATM   36  C   UNL     1      -8.832   3.336  68.723  1.00  0.00    -0.115 A  
HETATM   37  S   UNL     1      -8.937   1.785  68.007  1.00  0.00    -0.155 SA 
HETATM   38  H1  UNL     1      -7.122   1.854  64.878  1.00  0.00     0.000 HD 
HETATM   39  N   UNL     1      -7.693   1.529  65.658  1.00  0.00    -0.065 NA 
HETATM   40  N   UNL     1      -7.556   3.567  66.784  1.00  0.00    -0.079 NA 
HETATM   41  C   UNL     1      -7.977   2.332  66.695  1.00  0.00    -0.076 A  
ENDBRANCH  24  34
ENDBRANCH  23  24
ENDBRANCH   7  20
TORSDOF 7
ENDMDL
MODEL       98
REMARK 921   NORMALIZED FREE ENERGY PREDICTED BY IDOCK:   -5.41 KCAL/MOL
REMARK 922        TOTAL FREE ENERGY PREDICTED BY IDOCK:   -9.16 KCAL/MOL
REMARK 923 INTER-LIGAND FREE ENERGY PREDICTED BY IDOCK:   -7.30 KCAL/MOL
REMARK 924 INTRA-LIGAND FREE ENERGY PREDICTED BY IDOCK:   -1.86 KCAL/MOL
REMARK 927      BINDING AFFINITY PREDICTED BY RF-SCORE:    0.00 PKD
ROOT
HETATM    1  O   UNL     1      -8.719   7.144  65.402  1.00  0.00    -0.087 OA 
HETATM    2  C   UNL     1      -9.080   7.056  66.597  1.00  0.00    -0.152 C  
HETATM    3  CA  UNL     1      -8.682   8.257  67.562  1.00  0.00    -0.129 C  
HETATM    4  OXT UNL     1      -9.724   6.122  67.170  1.00  0.00    -0.124 OA 
HETATM    5  C   UNL     1      -9.302   8.399  68.761  1.00  0.00    -0.143 C  
HETATM    6  C   UNL     1      -9.064   9.507  69.753  1.00  0.00    -0.205 C  
HETATM    7  CA  UNL     1      -6.827  11.020  66.893  1.00  0.00    -0.121 C  
HETATM    8  S   UNL     1      -7.683  10.620  69.565  1.00  0.00    -0.054 SA 
HETATM    9  N   UNL     1      -7.793   9.220  67.180  1.00  0.00    -0.098 N  
HETATM   10  O   UNL     1      -7.753   9.809  64.863  1.00  0.00    -0.116 OA 
HETATM   11  C   UNL     1      -6.943   9.986  68.057  1.00  0.00    -0.080 C  
HETATM   12  C   UNL     1      -7.462   9.871  66.032  1.00  0.00    -0.106 C  
ENDROOT
BRANCH   5  13
HETATM   13  C   UNL     1     -10.418   7.485  69.234  1.00  0.00    -0.214 C  
BRANCH  13  14
HETATM   14  N   UNL     1     -10.184   6.736  70.507  1.00  0.00    -0.191 NA 
HETATM   15  C   UNL     1     -10.547   6.405  72.843  1.00  0.00    -0.260 A  
HETATM   16  C   UNL     1      -9.383   5.653  72.928  1.00  0.00    -0.144 A  
HETATM   17  C   UNL     1     -10.941   6.931  71.612  1.00  0.00    -0.234 A  
HETATM   18  C   UNL     1      -9.101   5.924  70.563  1.00  0.00    -0.148 A  
HETATM   19  C   UNL     1      -8.667   5.390  71.771  1.00  0.00    -0.138 A  
ENDBRANCH  13  14
ENDBRANCH   5  13
BRANCH   7  20
HETATM   20  N   UNL     1      -7.656  12.291  66.937  1.00  0.00    -0.365 N  
HETATM   21  H   UNL     1      -8.590  12.284  66.525  1.00  0.00     0.000 HD 
HETATM   22  O   UNL     1      -6.047  13.648  67.926  1.00  0.00    -0.127 OA 
HETATM   23  C   UNL     1      -7.188  13.457  67.516  1.00  0.00    -0.153 C  
BRANCH  23  24
HETATM   24  C   UNL     1      -8.148  14.612  67.690  1.00  0.00    -0.173 C  
BRANCH  24  25
HETATM   25  N   UNL     1      -9.442  14.526  67.832  1.00  0.00    -0.208 NA 
HETATM   26  H   UNL     1     -10.049  15.342  67.746  1.00  0.00     0.000 HD 
BRANCH  25  27
HETATM   27  O   UNL     1      -9.949  13.252  68.110  1.00  0.00    -0.223 OA 
HETATM   28  C   UNL     1     -11.757  11.960  68.989  1.00  0.00    -0.391 C  
HETATM   29  C   UNL     1     -12.151  13.661  67.198  1.00  0.00    -0.404 C  
HETATM   30  O   UNL     1     -10.935  15.476  69.610  1.00  0.00    -0.243 OA 
HETATM   31  O   UNL     1     -12.690  14.267  70.311  1.00  0.00    -0.345 OA 
HETATM   32  C   UNL     1     -11.346  13.347  68.467  1.00  0.00    -0.289 C  
HETATM   33  C   UNL     1     -11.728  14.380  69.563  1.00  0.00    -0.313 C  
ENDBRANCH  25  27
ENDBRANCH  24  25
BRANCH  24  34
HETATM   34  C   UNL     1      -7.623  15.977  67.589  1.00  0.00    -0.146 A  
HETATM   35  H2  UNL     1      -6.213  19.727  69.049  1.00  0.00     0.000 HD 
HETATM   36  C   UNL     1      -7.590  16.737  66.433  1.00  0.00    -0.290 A  
HETATM   37  S   UNL     1      -7.008  18.310  66.777  1.00  0.00    -0.205 SA 
HETATM   38  H1  UNL     1      -6.342  18.522  70.327  1.00  0.00     0.000 HD 
HETATM   39  N   UNL     1      -6.437  18.775  69.343  1.00  0.00    -0.275 NA 
HETATM   40  N   UNL     1      -7.157  16.646  68.723  1.00  0.00    -0.182 NA 
HETATM   41  C   UNL     1      -6.849  17.883  68.431  1.00  0.00    -0.227 A  
ENDBRANCH  24  34
ENDBRANCH  23  24
ENDBRANCH   7  20
TORSDOF 7
ENDMDL
MODEL       99
REMARK 921   NORMALIZED FREE ENERGY PREDICTED BY IDOCK:   -5.40 KCAL/MOL
REMARK 922        TOTAL FREE ENERGY PREDICTED BY IDOCK:   -9.15 KCAL/MOL
REMARK 923 INTER-LIGAND FREE ENERGY PREDICTED BY IDOCK:   -7.79 KCAL/MOL
REMARK 924 INTRA-LIGAND FREE ENERGY PREDICTED BY IDOCK:   -1.36 KCAL/MOL
REMARK 927      BINDING AFFINITY PREDICTED BY RF-SCORE:    0.00 PKD
ROOT
HETATM    1  O   UNL     1      -6.918   6.783  72.414  1.00  0.00    -0.066 OA 
HETATM    2  C   UNL     1      -6.980   6.478  71.203  1.00  0.00    -0.068 C  
HETATM    3  CA  UNL     1      -8.231   7.024  70.383  1.00  0.00    -0.124 C  
HETATM    4  OXT UNL     1      -6.180   5.770  70.516  1.00  0.00    -0.028 OA 
HETATM    5  C   UNL     1      -8.207   7.021  69.026  1.00  0.00    -0.125 C  
HETATM    6  C   UNL     1      -9.291   7.547  68.123  1.00  0.00    -0.136 C  
HETATM    7  CA  UNL     1     -10.900   8.811  71.483  1.00  0.00    -0.304 C  
HETATM    8  S   UNL     1     -10.896   7.975  68.775  1.00  0.00     0.156 SA 
HETATM    9  N   UNL     1      -9.304   7.592  71.007  1.00  0.00    -0.152 N  
HETATM   10  O   UNL     1      -8.875   8.817  73.016  1.00  0.00    -0.340 OA 
HETATM   11  C   UNL     1     -10.659   7.608  70.516  1.00  0.00    -0.226 C  
HETATM   12  C   UNL     1      -9.522   8.374  72.098  1.00  0.00    -0.290 C  
ENDROOT
BRANCH   5  13
HETATM   13  C   UNL     1      -7.009   6.560  68.216  1.00  0.00    -0.080 C  
BRANCH  13  14
HETATM   14  N   UNL     1      -6.410   7.551  67.270  1.00  0.00    -0.051 NA 
HETATM   15  C   UNL     1      -5.930   9.795  66.611  1.00  0.00    -0.059 A  
HETATM   16  C   UNL     1      -5.729   9.378  65.302  1.00  0.00    -0.057 A  
HETATM   17  C   UNL     1      -6.260   8.858  67.590  1.00  0.00    -0.056 A  
HETATM   18  C   UNL     1      -6.122   7.124  66.018  1.00  0.00    -0.037 A  
HETATM   19  C   UNL     1      -5.802   8.025  65.008  1.00  0.00    -0.045 A  
ENDBRANCH  13  14
ENDBRANCH   5  13
BRANCH   7  20
HETATM   20  N   UNL     1     -10.909  10.224  70.929  1.00  0.00    -0.326 N  
HETATM   21  H   UNL     1     -10.053  10.599  70.521  1.00  0.00     0.000 HD 
HETATM   22  O   UNL     1     -13.093  10.751  71.533  1.00  0.00    -0.406 OA 
HETATM   23  C   UNL     1     -12.042  11.019  70.959  1.00  0.00    -0.301 C  
BRANCH  23  24
HETATM   24  C   UNL     1     -12.019  12.335  70.214  1.00  0.00    -0.290 C  
BRANCH  24  25
HETATM   25  N   UNL     1     -11.476  12.553  69.048  1.00  0.00    -0.284 NA 
HETATM   26  H   UNL     1     -10.543  12.213  68.815  1.00  0.00     0.000 HD 
BRANCH  25  27
HETATM   27  O   UNL     1     -12.249  13.279  68.135  1.00  0.00    -0.266 OA 
HETATM   28  C   UNL     1     -12.321  14.449  66.052  1.00  0.00    -0.337 C  
HETATM   29  C   UNL     1     -11.483  12.095  66.170  1.00  0.00    -0.429 C  
HETATM   30  O   UNL     1      -9.416  13.656  68.139  1.00  0.00    -0.205 OA 
HETATM   31  O   UNL     1      -9.510  14.635  66.122  1.00  0.00    -0.296 OA 
HETATM   32  C   UNL     1     -11.519  13.446  66.898  1.00  0.00    -0.342 C  
HETATM   33  C   UNL     1     -10.068  13.991  67.001  1.00  0.00    -0.255 C  
ENDBRANCH  25  27
ENDBRANCH  24  25
BRANCH  24  34
HETATM   34  C   UNL     1     -12.556  13.525  70.882  1.00  0.00    -0.337 A  
HETATM   35  H2  UNL     1     -12.383  17.127  73.156  1.00  0.00     0.000 HD 
HETATM   36  C   UNL     1     -13.894  13.757  71.148  1.00  0.00     0.141 A  
HETATM   37  S   UNL     1     -14.076  15.204  72.043  1.00  0.00    -0.604 SA 
HETATM   38  H1  UNL     1     -10.786  16.585  72.647  1.00  0.00     0.000 HD 
HETATM   39  N   UNL     1     -11.798  16.455  72.657  1.00  0.00    -0.531 NA 
HETATM   40  N   UNL     1     -11.699  14.516  71.366  1.00  0.00    -0.256 NA 
HETATM   41  C   UNL     1     -12.374  15.421  72.026  1.00  0.00    -0.373 A  
ENDBRANCH  24  34
ENDBRANCH  23  24
ENDBRANCH   7  20
TORSDOF 7
ENDMDL
MODEL      100
REMARK 921   NORMALIZED FREE ENERGY PREDICTED BY IDOCK:   -5.39 KCAL/MOL
REMARK 922        TOTAL FREE ENERGY PREDICTED BY IDOCK:   -9.14 KCAL/MOL
REMARK 923 INTER-LIGAND FREE ENERGY PREDICTED BY IDOCK:   -7.75 KCAL/MOL
REMARK 924 INTRA-LIGAND FREE ENERGY PREDICTED BY IDOCK:   -1.39 KCAL/MOL
REMARK 927      BINDING AFFINITY PREDICTED BY RF-SCORE:    0.00 PKD
ROOT
HETATM    1  O   UNL     1      -8.956   7.062  73.566  1.00  0.00    -0.132 OA 
HETATM    2  C   UNL     1      -8.342   6.565  72.595  1.00  0.00    -0.117 C  
HETATM    3  CA  UNL     1      -8.955   6.817  71.148  1.00  0.00    -0.147 C  
HETATM    4  OXT UNL     1      -7.284   5.863  72.595  1.00  0.00    -0.087 OA 
HETATM    5  C   UNL     1      -8.197   6.604  70.043  1.00  0.00    -0.130 C  
HETATM    6  C   UNL     1      -8.624   6.842  68.619  1.00  0.00    -0.123 C  
HETATM    7  CA  UNL     1     -11.825   8.410  70.282  1.00  0.00     0.198 C  
HETATM    8  S   UNL     1     -10.332   7.166  68.220  1.00  0.00    -0.200 SA 
HETATM    9  N   UNL     1     -10.205   7.339  70.979  1.00  0.00    -0.192 N  
HETATM   10  O   UNL     1     -10.962   8.908  72.618  1.00  0.00    -0.057 OA 
HETATM   11  C   UNL     1     -11.075   7.110  69.853  1.00  0.00    -0.235 C  
HETATM   12  C   UNL     1     -10.997   8.249  71.607  1.00  0.00    -0.264 C  
ENDROOT
BRANCH   5  13
HETATM   13  C   UNL     1      -6.742   6.172  70.102  1.00  0.00    -0.049 C  
BRANCH  13  14
HETATM   14  N   UNL     1      -6.355   4.987  69.277  1.00  0.00    -0.030 NA 
HETATM   15  C   UNL     1      -5.438   4.021  67.295  1.00  0.00    -0.017 A  
HETATM   16  C   UNL     1      -6.082   2.822  67.569  1.00  0.00    -0.028 A  
HETATM   17  C   UNL     1      -5.577   5.096  68.174  1.00  0.00    -0.016 A  
HETATM   18  C   UNL     1      -6.908   3.794  69.600  1.00  0.00    -0.041 A  
HETATM   19  C   UNL     1      -6.805   2.701  68.746  1.00  0.00    -0.037 A  
ENDBRANCH  13  14
ENDBRANCH   5  13
BRANCH   7  20
HETATM   20  N   UNL     1     -11.558   9.707  69.539  1.00  0.00    -0.444 N  
HETATM   21  H   UNL     1     -10.860   9.713  68.795  1.00  0.00     0.000 HD 
HETATM   22  O   UNL     1     -12.990  11.050  70.786  1.00  0.00    -0.286 OA 
HETATM   23  C   UNL     1     -12.230  10.879  69.838  1.00  0.00    -0.336 C  
BRANCH  23  24
HETATM   24  C   UNL     1     -12.044  12.069  68.924  1.00  0.00    -0.145 C  
BRANCH  24  25
HETATM   25  N   UNL     1     -11.999  12.043  67.621  1.00  0.00    -0.556 NA 
HETATM   26  H   UNL     1     -12.480  12.739  67.050  1.00  0.00     0.000 HD 
BRANCH  25  27
HETATM   27  O   UNL     1     -11.252  11.005  67.051  1.00  0.00    -0.308 OA 
HETATM   28  C   UNL     1      -9.977  10.246  65.178  1.00  0.00    -0.395 C  
HETATM   29  C   UNL     1      -9.415  12.399  66.321  1.00  0.00    -0.220 C  
HETATM   30  O   UNL     1     -12.465  12.932  65.322  1.00  0.00    -0.481 OA 
HETATM   31  O   UNL     1     -11.158  12.277  63.620  1.00  0.00    -0.399 OA 
HETATM   32  C   UNL     1     -10.564  11.486  65.874  1.00  0.00    -0.268 C  
HETATM   33  C   UNL     1     -11.414  12.244  64.817  1.00  0.00    -0.329 C  
ENDBRANCH  25  27
ENDBRANCH  24  25
BRANCH  24  34
HETATM   34  C   UNL     1     -11.782  13.380  69.528  1.00  0.00    -0.324 A  
HETATM   35  H2  UNL     1     -11.784  16.313  72.622  1.00  0.00     0.000 HD 
HETATM   36  C   UNL     1     -11.431  14.524  68.834  1.00  0.00    -0.300 A  
HETATM   37  S   UNL     1     -11.334  15.857  69.903  1.00  0.00    -0.360 SA 
HETATM   38  H1  UNL     1     -12.188  14.709  73.226  1.00  0.00     0.000 HD 
HETATM   39  N   UNL     1     -11.928  15.317  72.450  1.00  0.00    -0.391 NA 
HETATM   40  N   UNL     1     -11.938  13.573  70.902  1.00  0.00    -0.206 NA 
HETATM   41  C   UNL     1     -11.772  14.834  71.209  1.00  0.00    -0.303 A  
ENDBRANCH  24  34
ENDBRANCH  23  24
ENDBRANCH   7  20
TORSDOF 7
ENDMDL
MODEL      101
REMARK 921   NORMALIZED FREE ENERGY PREDICTED BY IDOCK:   -5.37 KCAL/MOL
REMARK 922        TOTAL FREE ENERGY PREDICTED BY IDOCK:   -9.11 KCAL/MOL
REMARK 923 INTER-LIGAND FREE ENERGY PREDICTED BY IDOCK:   -7.36 KCAL/MOL
REMARK 924 INTRA-LIGAND FREE ENERGY PREDICTED BY IDOCK:   -1.75 KCAL/MOL
REMARK 927      BINDING AFFINITY PREDICTED BY RF-SCORE:    0.00 PKD
ROOT
HETATM    1  O   UNL     1     -10.349   6.082  66.605  1.00  0.00    -0.205 OA 
HETATM    2  C   UNL     1     -10.365   6.193  67.851  1.00  0.00    -0.203 C  
HETATM    3  CA  UNL     1      -9.810   7.554  68.462  1.00  0.00    -0.165 C  
HETATM    4  OXT UNL     1     -10.758   5.357  68.722  1.00  0.00    -0.174 OA 
HETATM    5  C   UNL     1     -10.090   7.886  69.748  1.00  0.00    -0.199 C  
HETATM    6  C   UNL     1      -9.674   9.155  70.443  1.00  0.00    -0.221 C  
HETATM    7  CA  UNL     1      -8.415  10.208  66.868  1.00  0.00    -0.126 C  
HETATM    8  S   UNL     1      -8.481  10.255  69.701  1.00  0.00    -0.048 SA 
HETATM    9  N   UNL     1      -9.131   8.459  67.698  1.00  0.00    -0.135 N  
HETATM   10  O   UNL     1      -9.765   8.638  65.399  1.00  0.00     0.089 OA 
HETATM   11  C   UNL     1      -8.134   9.389  68.167  1.00  0.00    -0.110 C  
HETATM   12  C   UNL     1      -9.173   8.910  66.415  1.00  0.00    -0.189 C  
ENDROOT
BRANCH   5  13
HETATM   13  C   UNL     1     -10.964   7.038  70.654  1.00  0.00    -0.260 C  
BRANCH  13  14
HETATM   14  N   UNL     1     -10.356   6.575  71.939  1.00  0.00    -0.199 NA 
HETATM   15  C   UNL     1     -10.047   6.758  74.299  1.00  0.00    -0.348 A  
HETATM   16  C   UNL     1      -8.874   6.020  74.213  1.00  0.00    -0.128 A  
HETATM   17  C   UNL     1     -10.787   7.015  73.144  1.00  0.00    -0.316 A  
HETATM   18  C   UNL     1      -9.266   5.775  71.860  1.00  0.00    -0.144 A  
HETATM   19  C   UNL     1      -8.493   5.504  72.984  1.00  0.00    -0.118 A  
ENDBRANCH  13  14
ENDBRANCH   5  13
BRANCH   7  20
HETATM   20  N   UNL     1      -9.293  11.444  66.940  1.00  0.00    -0.177 N  
HETATM   21  H   UNL     1     -10.292  11.351  66.752  1.00  0.00     0.000 HD 
HETATM   22  O   UNL     1      -7.595  12.975  67.367  1.00  0.00    -0.154 OA 
HETATM   23  C   UNL     1      -8.784  12.693  67.251  1.00  0.00    -0.198 C  
BRANCH  23  24
HETATM   24  C   UNL     1      -9.753  13.828  67.491  1.00  0.00    -0.230 C  
BRANCH  24  25
HETATM   25  N   UNL     1     -10.051  14.358  68.645  1.00  0.00    -0.239 NA 
HETATM   26  H   UNL     1      -9.680  15.263  68.935  1.00  0.00     0.000 HD 
BRANCH  25  27
HETATM   27  O   UNL     1     -10.910  13.613  69.462  1.00  0.00    -0.088 OA 
HETATM   28  C   UNL     1     -12.641  13.647  71.109  1.00  0.00    -0.452 C  
HETATM   29  C   UNL     1     -12.899  14.892  68.956  1.00  0.00     0.668 C  
HETATM   30  O   UNL     1     -10.253  16.285  70.237  1.00  0.00     0.002 OA 
HETATM   31  O   UNL     1     -11.969  16.323  71.682  1.00  0.00    -0.468 OA 
HETATM   32  C   UNL     1     -11.904  14.483  70.050  1.00  0.00    -0.313 C  
HETATM   33  C   UNL     1     -11.391  15.768  70.756  1.00  0.00    -0.390 C  
ENDBRANCH  25  27
ENDBRANCH  24  25
BRANCH  24  34
HETATM   34  C   UNL     1     -10.530  14.335  66.355  1.00  0.00    -0.282 A  
HETATM   35  H2  UNL     1     -13.032  14.060  62.914  1.00  0.00     0.000 HD 
HETATM   36  C   UNL     1     -10.465  15.623  65.853  1.00  0.00    -0.344 A  
HETATM   37  S   UNL     1     -11.442  15.762  64.456  1.00  0.00    -0.172 SA 
HETATM   38  H1  UNL     1     -12.937  12.535  63.791  1.00  0.00     0.000 HD 
HETATM   39  N   UNL     1     -12.677  13.518  63.703  1.00  0.00    -0.596 NA 
HETATM   40  N   UNL     1     -11.380  13.488  65.641  1.00  0.00    -0.297 NA 
HETATM   41  C   UNL     1     -11.879  14.110  64.603  1.00  0.00    -0.431 A  
ENDBRANCH  24  34
ENDBRANCH  23  24
ENDBRANCH   7  20
TORSDOF 7
ENDMDL
MODEL      102
REMARK 921   NORMALIZED FREE ENERGY PREDICTED BY IDOCK:   -5.36 KCAL/MOL
REMARK 922        TOTAL FREE ENERGY PREDICTED BY IDOCK:   -9.10 KCAL/MOL
REMARK 923 INTER-LIGAND FREE ENERGY PREDICTED BY IDOCK:   -7.63 KCAL/MOL
REMARK 924 INTRA-LIGAND FREE ENERGY PREDICTED BY IDOCK:   -1.47 KCAL/MOL
REMARK 927      BINDING AFFINITY PREDICTED BY RF-SCORE:    0.00 PKD
ROOT
HETATM    1  O   UNL     1      -5.574  10.431  67.186  1.00  0.00    -0.041 OA 
HETATM    2  C   UNL     1      -6.793  10.153  67.225  1.00  0.00    -0.078 C  
HETATM    3  CA  UNL     1      -7.781  11.301  67.715  1.00  0.00    -0.113 C  
HETATM    4  OXT UNL     1      -7.373   9.060  66.935  1.00  0.00    -0.085 OA 
HETATM    5  C   UNL     1      -9.113  11.198  67.478  1.00  0.00    -0.146 C  
HETATM    6  C   UNL     1     -10.157  12.222  67.840  1.00  0.00    -0.200 C  
HETATM    7  CA  UNL     1      -7.052  14.420  68.840  1.00  0.00    -0.116 C  
HETATM    8  S   UNL     1      -9.760  13.590  68.914  1.00  0.00     0.208 SA 
HETATM    9  N   UNL     1      -7.317  12.449  68.290  1.00  0.00    -0.105 N  
HETATM   10  O   UNL     1      -5.205  13.273  67.529  1.00  0.00    -0.285 OA 
HETATM   11  C   UNL     1      -8.025  13.267  69.242  1.00  0.00     0.554 C  
HETATM   12  C   UNL     1      -6.239  13.267  68.152  1.00  0.00    -0.111 C  
ENDROOT
BRANCH   5  13
HETATM   13  C   UNL     1      -9.735  10.045  66.711  1.00  0.00    -0.189 C  
BRANCH  13  14
HETATM   14  N   UNL     1     -10.026  10.275  65.262  1.00  0.00    -0.310 NA 
HETATM   15  C   UNL     1      -9.409  10.179  62.958  1.00  0.00    -0.330 A  
HETATM   16  C   UNL     1     -10.368  11.135  62.651  1.00  0.00     0.197 A  
HETATM   17  C   UNL     1      -9.261   9.749  64.277  1.00  0.00    -0.232 A  
HETATM   18  C   UNL     1     -11.026  11.136  64.957  1.00  0.00    -0.104 A  
HETATM   19  C   UNL     1     -11.201  11.600  63.657  1.00  0.00    -0.497 A  
ENDBRANCH  13  14
ENDBRANCH   5  13
BRANCH   7  20
HETATM   20  N   UNL     1      -7.526  15.499  67.884  1.00  0.00    -0.127 N  
HETATM   21  H   UNL     1      -7.237  15.453  66.906  1.00  0.00     0.000 HD 
HETATM   22  O   UNL     1      -8.652  16.796  69.453  1.00  0.00    -0.052 OA 
HETATM   23  C   UNL     1      -8.339  16.542  68.293  1.00  0.00    -0.190 C  
BRANCH  23  24
HETATM   24  C   UNL     1      -8.922  17.458  67.241  1.00  0.00    -0.236 C  
BRANCH  24  25
HETATM   25  N   UNL     1      -9.971  17.219  66.505  1.00  0.00    -0.292 NA 
HETATM   26  H   UNL     1     -10.175  17.761  65.665  1.00  0.00     0.000 HD 
BRANCH  25  27
HETATM   27  O   UNL     1     -10.801  16.177  66.933  1.00  0.00    -0.282 OA 
HETATM   28  C   UNL     1     -12.283  14.409  66.312  1.00  0.00    -0.366 C  
HETATM   29  C   UNL     1      -9.977  14.542  65.353  1.00  0.00    -0.352 C  
HETATM   30  O   UNL     1     -11.289  17.355  64.375  1.00  0.00    -0.949 OA 
HETATM   31  O   UNL     1     -12.571  15.613  63.780  1.00  0.00    -0.623 OA 
HETATM   32  C   UNL     1     -11.192  15.365  65.803  1.00  0.00    -0.196 C  
HETATM   33  C   UNL     1     -11.773  16.105  64.567  1.00  0.00    -0.065 C  
ENDBRANCH  25  27
ENDBRANCH  24  25
BRANCH  24  34
HETATM   34  C   UNL     1      -8.203  18.695  66.917  1.00  0.00    -0.261 A  
HETATM   35  H2  UNL     1      -5.785  21.290  64.553  1.00  0.00     0.000 HD 
HETATM   36  C   UNL     1      -7.923  19.714  67.811  1.00  0.00    -0.302 A  
HETATM   37  S   UNL     1      -6.968  20.916  67.055  1.00  0.00    -0.301 SA 
HETATM   38  H1  UNL     1      -6.322  19.876  63.650  1.00  0.00     0.000 HD 
HETATM   39  N   UNL     1      -6.313  20.418  64.515  1.00  0.00    -0.293 NA 
HETATM   40  N   UNL     1      -7.683  18.901  65.638  1.00  0.00    -0.450 NA 
HETATM   41  C   UNL     1      -6.983  20.005  65.601  1.00  0.00    -0.309 A  
ENDBRANCH  24  34
ENDBRANCH  23  24
ENDBRANCH   7  20
TORSDOF 7
ENDMDL
MODEL      103
REMARK 921   NORMALIZED FREE ENERGY PREDICTED BY IDOCK:   -5.35 KCAL/MOL
REMARK 922        TOTAL FREE ENERGY PREDICTED BY IDOCK:   -9.08 KCAL/MOL
REMARK 923 INTER-LIGAND FREE ENERGY PREDICTED BY IDOCK:   -9.35 KCAL/MOL
REMARK 924 INTRA-LIGAND FREE ENERGY PREDICTED BY IDOCK:    0.27 KCAL/MOL
REMARK 927      BINDING AFFINITY PREDICTED BY RF-SCORE:    0.00 PKD
ROOT
HETATM    1  O   UNL     1      -6.468  14.024  67.269  1.00  0.00    -0.286 OA 
HETATM    2  C   UNL     1      -7.463  14.726  67.552  1.00  0.00    -0.198 C  
HETATM    3  CA  UNL     1      -8.896  14.109  67.237  1.00  0.00    -0.218 C  
HETATM    4  OXT UNL     1      -7.501  15.892  68.056  1.00  0.00    -0.120 OA 
HETATM    5  C   UNL     1     -10.007  14.646  67.802  1.00  0.00    -0.224 C  
HETATM    6  C   UNL     1     -11.416  14.142  67.634  1.00  0.00    -0.338 C  
HETATM    7  CA  UNL     1      -9.679  11.166  65.737  1.00  0.00    -0.225 C  
HETATM    8  S   UNL     1     -11.806  12.918  66.396  1.00  0.00    -0.402 SA 
HETATM    9  N   UNL     1      -9.041  12.981  66.481  1.00  0.00    -0.179 N  
HETATM   10  O   UNL     1      -7.310  11.338  66.634  1.00  0.00    -0.142 OA 
HETATM   11  C   UNL     1     -10.186  12.641  65.675  1.00  0.00    -0.273 C  
HETATM   12  C   UNL     1      -8.361  11.819  66.288  1.00  0.00     0.024 C  
ENDROOT
BRANCH   5  13
HETATM   13  C   UNL     1      -9.964  15.805  68.783  1.00  0.00    -0.214 C  
BRANCH  13  14
HETATM   14  N   UNL     1     -10.022  17.182  68.204  1.00  0.00    -0.282 NA 
HETATM   15  C   UNL     1     -10.220  19.549  68.440  1.00  0.00    -0.536 A  
HETATM   16  C   UNL     1     -10.605  19.660  67.111  1.00  0.00    -0.611 A  
HETATM   17  C   UNL     1      -9.918  18.294  68.969  1.00  0.00    -0.271 A  
HETATM   18  C   UNL     1     -10.304  17.293  66.884  1.00  0.00    -0.310 A  
HETATM   19  C   UNL     1     -10.624  18.523  66.319  1.00  0.00    -0.370 A  
ENDBRANCH  13  14
ENDBRANCH   5  13
BRANCH   7  20
HETATM   20  N   UNL     1     -10.334  10.191  66.698  1.00  0.00    -0.223 N  
HETATM   21  H   UNL     1     -10.999   9.509  66.331  1.00  0.00     0.000 HD 
HETATM   22  O   UNL     1      -9.391  11.035  68.649  1.00  0.00    -0.183 OA 
HETATM   23  C   UNL     1     -10.060  10.196  68.055  1.00  0.00    -0.157 C  
BRANCH  23  24
HETATM   24  C   UNL     1     -10.604   9.070  68.905  1.00  0.00    -0.180 C  
BRANCH  24  25
HETATM   25  N   UNL     1     -11.253   9.195  70.029  1.00  0.00    -0.383 NA 
HETATM   26  H   UNL     1     -11.170  10.029  70.610  1.00  0.00     0.000 HD 
BRANCH  25  27
HETATM   27  O   UNL     1     -12.071   8.118  70.391  1.00  0.00     0.042 OA 
HETATM   28  C   UNL     1     -12.871   6.709  72.147  1.00  0.00    -0.078 C  
HETATM   29  C   UNL     1     -13.057   9.198  72.318  1.00  0.00    -0.509 C  
HETATM   30  O   UNL     1      -9.842   8.768  72.058  1.00  0.00    -0.300 OA 
HETATM   31  O   UNL     1     -10.691   7.537  73.730  1.00  0.00    -0.315 OA 
HETATM   32  C   UNL     1     -12.172   8.042  71.831  1.00  0.00    -0.319 C  
HETATM   33  C   UNL     1     -10.843   8.064  72.635  1.00  0.00    -0.368 C  
ENDBRANCH  25  27
ENDBRANCH  24  25
BRANCH  24  34
HETATM   34  C   UNL     1     -10.301   7.690  68.512  1.00  0.00    -0.198 A  
HETATM   35  H2  UNL     1     -10.672   4.124  66.205  1.00  0.00     0.000 HD 
HETATM   36  C   UNL     1      -9.571   6.787  69.266  1.00  0.00    -0.144 A  
HETATM   37  S   UNL     1      -9.551   5.257  68.498  1.00  0.00    -0.143 SA 
HETATM   38  H1  UNL     1     -11.506   5.487  65.463  1.00  0.00     0.000 HD 
HETATM   39  N   UNL     1     -10.933   5.111  66.218  1.00  0.00    -0.133 NA 
HETATM   40  N   UNL     1     -10.806   7.161  67.323  1.00  0.00    -0.322 NA 
HETATM   41  C   UNL     1     -10.516   5.889  67.228  1.00  0.00    -0.262 A  
ENDBRANCH  24  34
ENDBRANCH  23  24
ENDBRANCH   7  20
TORSDOF 7
ENDMDL
MODEL      104
REMARK 921   NORMALIZED FREE ENERGY PREDICTED BY IDOCK:   -5.34 KCAL/MOL
REMARK 922        TOTAL FREE ENERGY PREDICTED BY IDOCK:   -9.06 KCAL/MOL
REMARK 923 INTER-LIGAND FREE ENERGY PREDICTED BY IDOCK:   -7.35 KCAL/MOL
REMARK 924 INTRA-LIGAND FREE ENERGY PREDICTED BY IDOCK:   -1.72 KCAL/MOL
REMARK 927      BINDING AFFINITY PREDICTED BY RF-SCORE:    0.00 PKD
ROOT
HETATM    1  O   UNL     1      -7.574   6.620  72.284  1.00  0.00    -0.093 OA 
HETATM    2  C   UNL     1      -7.617   6.020  71.187  1.00  0.00    -0.100 C  
HETATM    3  CA  UNL     1      -8.554   6.642  70.060  1.00  0.00    -0.140 C  
HETATM    4  OXT UNL     1      -7.019   4.957  70.835  1.00  0.00    -0.038 OA 
HETATM    5  C   UNL     1      -8.408   6.257  68.767  1.00  0.00    -0.120 C  
HETATM    6  C   UNL     1      -9.187   6.790  67.594  1.00  0.00    -0.118 C  
HETATM    7  CA  UNL     1     -10.619   9.331  70.233  1.00  0.00    -0.235 C  
HETATM    8  S   UNL     1     -10.629   7.810  67.842  1.00  0.00    -0.108 SA 
HETATM    9  N   UNL     1      -9.448   7.636  70.338  1.00  0.00    -0.164 N  
HETATM   10  O   UNL     1      -8.843   9.201  72.043  1.00  0.00    -0.331 OA 
HETATM   11  C   UNL     1     -10.679   7.890  69.634  1.00  0.00    -0.218 C  
HETATM   12  C   UNL     1      -9.510   8.718  71.160  1.00  0.00    -0.240 C  
ENDROOT
BRANCH   5  13
HETATM   13  C   UNL     1      -7.346   5.275  68.306  1.00  0.00    -0.072 C  
BRANCH  13  14
HETATM   14  N   UNL     1      -7.826   3.998  67.695  1.00  0.00    -0.089 NA 
HETATM   15  C   UNL     1      -8.155   2.568  65.812  1.00  0.00    -0.084 A  
HETATM   16  C   UNL     1      -9.133   1.864  66.504  1.00  0.00    -0.054 A  
HETATM   17  C   UNL     1      -7.499   3.630  66.434  1.00  0.00    -0.077 A  
HETATM   18  C   UNL     1      -8.709   3.258  68.408  1.00  0.00    -0.104 A  
HETATM   19  C   UNL     1      -9.394   2.198  67.823  1.00  0.00    -0.197 A  
ENDBRANCH  13  14
ENDBRANCH   5  13
BRANCH   7  20
HETATM   20  N   UNL     1     -10.136  10.480  69.366  1.00  0.00    -0.290 N  
HETATM   21  H   UNL     1      -9.134  10.662  69.302  1.00  0.00     0.000 HD 
HETATM   22  O   UNL     1     -12.233  11.272  68.747  1.00  0.00    -0.532 OA 
HETATM   23  C   UNL     1     -11.009  11.289  68.660  1.00  0.00    -0.218 C  
BRANCH  23  24
HETATM   24  C   UNL     1     -10.436  12.280  67.673  1.00  0.00    -0.214 C  
BRANCH  24  25
HETATM   25  N   UNL     1      -9.230  12.776  67.688  1.00  0.00    -0.184 NA 
HETATM   26  H   UNL     1      -8.459  12.334  67.187  1.00  0.00     0.000 HD 
BRANCH  25  27
HETATM   27  O   UNL     1      -9.054  13.950  68.431  1.00  0.00    -0.192 OA 
HETATM   28  C   UNL     1      -7.554  15.328  69.679  1.00  0.00    -0.176 C  
HETATM   29  C   UNL     1      -7.000  14.621  67.345  1.00  0.00    -0.123 C  
HETATM   30  O   UNL     1      -7.268  11.764  68.879  1.00  0.00    -0.108 OA 
HETATM   31  O   UNL     1      -5.824  13.118  69.934  1.00  0.00    -0.113 OA 
HETATM   32  C   UNL     1      -7.646  14.176  68.664  1.00  0.00    -0.126 C  
HETATM   33  C   UNL     1      -6.825  12.991  69.241  1.00  0.00    -0.019 C  
ENDBRANCH  25  27
ENDBRANCH  24  25
BRANCH  24  34
HETATM   34  C   UNL     1     -11.325  12.840  66.650  1.00  0.00    -0.316 A  
HETATM   35  H2  UNL     1     -13.272  13.029  62.862  1.00  0.00     0.000 HD 
HETATM   36  C   UNL     1     -11.875  14.110  66.677  1.00  0.00    -0.424 A  
HETATM   37  S   UNL     1     -12.754  14.403  65.238  1.00  0.00    -0.142 SA 
HETATM   38  H1  UNL     1     -12.478  11.479  63.125  1.00  0.00     0.000 HD 
HETATM   39  N   UNL     1     -12.724  12.411  63.461  1.00  0.00    -0.768 NA 
HETATM   40  N   UNL     1     -11.636  12.110  65.501  1.00  0.00    -0.360 NA 
HETATM   41  C   UNL     1     -12.341  12.837  64.673  1.00  0.00    -0.459 A  
ENDBRANCH  24  34
ENDBRANCH  23  24
ENDBRANCH   7  20
TORSDOF 7
ENDMDL
MODEL      105
REMARK 921   NORMALIZED FREE ENERGY PREDICTED BY IDOCK:   -5.34 KCAL/MOL
REMARK 922        TOTAL FREE ENERGY PREDICTED BY IDOCK:   -9.06 KCAL/MOL
REMARK 923 INTER-LIGAND FREE ENERGY PREDICTED BY IDOCK:   -7.60 KCAL/MOL
REMARK 924 INTRA-LIGAND FREE ENERGY PREDICTED BY IDOCK:   -1.46 KCAL/MOL
REMARK 927      BINDING AFFINITY PREDICTED BY RF-SCORE:    0.00 PKD
ROOT
HETATM    1  O   UNL     1      -7.209   7.509  71.578  1.00  0.00    -0.068 OA 
HETATM    2  C   UNL     1      -7.338   6.701  70.631  1.00  0.00    -0.075 C  
HETATM    3  CA  UNL     1      -8.380   7.086  69.491  1.00  0.00    -0.133 C  
HETATM    4  OXT UNL     1      -6.755   5.588  70.446  1.00  0.00    -0.044 OA 
HETATM    5  C   UNL     1      -8.341   6.449  68.293  1.00  0.00    -0.116 C  
HETATM    6  C   UNL     1      -9.228   6.737  67.110  1.00  0.00    -0.134 C  
HETATM    7  CA  UNL     1     -10.466   9.758  69.305  1.00  0.00    -0.219 C  
HETATM    8  S   UNL     1     -10.660   7.789  67.277  1.00  0.00    -0.262 SA 
HETATM    9  N   UNL     1      -9.262   8.116  69.643  1.00  0.00    -0.155 N  
HETATM   10  O   UNL     1      -8.537   9.990  70.939  1.00  0.00     0.131 OA 
HETATM   11  C   UNL     1     -10.555   8.227  69.014  1.00  0.00    -0.150 C  
HETATM   12  C   UNL     1      -9.270   9.342  70.233  1.00  0.00    -0.237 C  
ENDROOT
BRANCH   5  13
HETATM   13  C   UNL     1      -7.308   5.393  67.945  1.00  0.00    -0.073 C  
BRANCH  13  14
HETATM   14  N   UNL     1      -7.753   3.967  68.002  1.00  0.00    -0.066 NA 
HETATM   15  C   UNL     1      -7.760   1.736  67.152  1.00  0.00    -0.061 A  
HETATM   16  C   UNL     1      -8.941   1.470  67.832  1.00  0.00    -0.163 A  
HETATM   17  C   UNL     1      -7.170   2.995  67.262  1.00  0.00    -0.058 A  
HETATM   18  C   UNL     1      -8.851   3.686  68.743  1.00  0.00    -0.112 A  
HETATM   19  C   UNL     1      -9.479   2.448  68.655  1.00  0.00    -0.194 A  
ENDBRANCH  13  14
ENDBRANCH   5  13
BRANCH   7  20
HETATM   20  N   UNL     1     -10.079  10.709  68.187  1.00  0.00    -0.155 N  
HETATM   21  H   UNL     1      -9.090  10.885  68.009  1.00  0.00     0.000 HD 
HETATM   22  O   UNL     1     -12.237  11.334  67.585  1.00  0.00    -0.423 OA 
HETATM   23  C   UNL     1     -11.024  11.346  67.401  1.00  0.00    -0.273 C  
BRANCH  23  24
HETATM   24  C   UNL     1     -10.552  12.119  66.190  1.00  0.00    -0.255 C  
BRANCH  24  25
HETATM   25  N   UNL     1     -10.674  13.403  65.997  1.00  0.00    -0.276 NA 
HETATM   26  H   UNL     1     -11.445  13.796  65.457  1.00  0.00     0.000 HD 
BRANCH  25  27
HETATM   27  O   UNL     1      -9.687  14.210  66.575  1.00  0.00    -0.275 OA 
HETATM   28  C   UNL     1      -8.948  16.427  67.074  1.00  0.00    -0.232 C  
HETATM   29  C   UNL     1     -11.218  15.647  67.775  1.00  0.00    -0.297 C  
HETATM   30  O   UNL     1     -11.354  15.327  64.539  1.00  0.00    -0.366 OA 
HETATM   31  O   UNL     1     -10.732  17.402  65.123  1.00  0.00    -0.684 OA 
HETATM   32  C   UNL     1     -10.160  15.573  66.666  1.00  0.00    -0.267 C  
HETATM   33  C   UNL     1     -10.751  16.204  65.376  1.00  0.00    -0.358 C  
ENDBRANCH  25  27
ENDBRANCH  24  25
BRANCH  24  34
HETATM   34  C   UNL     1      -9.993  11.371  65.059  1.00  0.00    -0.266 A  
HETATM   35  H2  UNL     1      -7.686   8.333  63.157  1.00  0.00     0.000 HD 
HETATM   36  C   UNL     1     -10.004  11.791  63.740  1.00  0.00    -0.355 A  
HETATM   37  S   UNL     1      -9.147  10.680  62.760  1.00  0.00    -0.331 SA 
HETATM   38  H1  UNL     1      -7.864   8.048  64.885  1.00  0.00     0.000 HD 
HETATM   39  N   UNL     1      -8.063   8.615  64.062  1.00  0.00    -0.159 NA 
HETATM   40  N   UNL     1      -9.331  10.159  65.265  1.00  0.00    -0.203 NA 
HETATM   41  C   UNL     1      -8.812   9.726  64.146  1.00  0.00    -0.231 A  
ENDBRANCH  24  34
ENDBRANCH  23  24
ENDBRANCH   7  20
TORSDOF 7
ENDMDL
MODEL      106
REMARK 921   NORMALIZED FREE ENERGY PREDICTED BY IDOCK:   -5.33 KCAL/MOL
REMARK 922        TOTAL FREE ENERGY PREDICTED BY IDOCK:   -9.05 KCAL/MOL
REMARK 923 INTER-LIGAND FREE ENERGY PREDICTED BY IDOCK:   -7.44 KCAL/MOL
REMARK 924 INTRA-LIGAND FREE ENERGY PREDICTED BY IDOCK:   -1.61 KCAL/MOL
REMARK 927      BINDING AFFINITY PREDICTED BY RF-SCORE:    0.00 PKD
ROOT
HETATM    1  O   UNL     1      -7.156   6.951  71.168  1.00  0.00    -0.071 OA 
HETATM    2  C   UNL     1      -7.345   6.388  70.067  1.00  0.00    -0.086 C  
HETATM    3  CA  UNL     1      -8.274   7.146  69.019  1.00  0.00    -0.125 C  
HETATM    4  OXT UNL     1      -6.903   5.271  69.655  1.00  0.00    -0.052 OA 
HETATM    5  C   UNL     1      -8.263   6.779  67.713  1.00  0.00    -0.120 C  
HETATM    6  C   UNL     1      -9.049   7.430  66.606  1.00  0.00    -0.154 C  
HETATM    7  CA  UNL     1      -9.986  10.055  69.382  1.00  0.00    -0.223 C  
HETATM    8  S   UNL     1     -10.339   8.607  66.972  1.00  0.00    -0.282 SA 
HETATM    9  N   UNL     1      -9.022   8.230  69.376  1.00  0.00    -0.146 N  
HETATM   10  O   UNL     1      -8.120   9.669  71.061  1.00  0.00    -0.287 OA 
HETATM   11  C   UNL     1     -10.259   8.647  68.764  1.00  0.00    -0.207 C  
HETATM   12  C   UNL     1      -8.898   9.291  70.218  1.00  0.00    -0.224 C  
ENDROOT
BRANCH   5  13
HETATM   13  C   UNL     1      -7.359   5.690  67.161  1.00  0.00    -0.080 C  
BRANCH  13  14
HETATM   14  N   UNL     1      -8.029   4.478  66.597  1.00  0.00    -0.102 NA 
HETATM   15  C   UNL     1      -9.086   2.354  66.858  1.00  0.00    -0.129 A  
HETATM   16  C   UNL     1      -8.825   2.049  65.529  1.00  0.00    -0.121 A  
HETATM   17  C   UNL     1      -8.689   3.587  67.374  1.00  0.00    -0.114 A  
HETATM   18  C   UNL     1      -7.856   4.227  65.277  1.00  0.00    -0.086 A  
HETATM   19  C   UNL     1      -8.225   3.005  64.725  1.00  0.00    -0.086 A  
ENDBRANCH  13  14
ENDBRANCH   5  13
BRANCH   7  20
HETATM   20  N   UNL     1      -9.428  11.160  68.504  1.00  0.00    -0.188 N  
HETATM   21  H   UNL     1      -8.451  11.113  68.214  1.00  0.00     0.000 HD 
HETATM   22  O   UNL     1     -11.341  12.482  68.460  1.00  0.00    -0.251 OA 
HETATM   23  C   UNL     1     -10.201  12.229  68.084  1.00  0.00    -0.212 C  
BRANCH  23  24
HETATM   24  C   UNL     1      -9.624  13.176  67.057  1.00  0.00    -0.241 C  
BRANCH  24  25
HETATM   25  N   UNL     1      -8.506  13.840  67.160  1.00  0.00    -0.298 NA 
HETATM   26  H   UNL     1      -8.074  14.297  66.357  1.00  0.00     0.000 HD 
BRANCH  25  27
HETATM   27  O   UNL     1      -7.934  13.890  68.437  1.00  0.00    -0.133 OA 
HETATM   28  C   UNL     1      -6.983  15.249  70.156  1.00  0.00     0.028 C  
HETATM   29  C   UNL     1      -9.242  15.769  69.217  1.00  0.00    -0.266 C  
HETATM   30  O   UNL     1      -7.340  15.986  66.585  1.00  0.00    -0.196 OA 
HETATM   31  O   UNL     1      -6.573  17.282  68.248  1.00  0.00    -0.163 OA 
HETATM   32  C   UNL     1      -7.833  15.264  68.875  1.00  0.00    -0.165 C  
HETATM   33  C   UNL     1      -7.170  16.272  67.897  1.00  0.00    -0.132 C  
ENDBRANCH  25  27
ENDBRANCH  24  25
BRANCH  24  34
HETATM   34  C   UNL     1     -10.421  13.483  65.865  1.00  0.00    -0.292 A  
HETATM   35  H2  UNL     1     -12.581  15.968  63.157  1.00  0.00     0.000 HD 
HETATM   36  C   UNL     1     -11.047  12.548  65.059  1.00  0.00    -0.299 A  
HETATM   37  S   UNL     1     -11.966  13.333  63.848  1.00  0.00    -0.468 SA 
HETATM   38  H1  UNL     1     -11.647  16.906  64.319  1.00  0.00     0.000 HD 
HETATM   39  N   UNL     1     -11.936  16.001  63.947  1.00  0.00    -0.814 NA 
HETATM   40  N   UNL     1     -10.656  14.807  65.488  1.00  0.00    -0.333 NA 
HETATM   41  C   UNL     1     -11.482  14.854  64.475  1.00  0.00    -0.325 A  
ENDBRANCH  24  34
ENDBRANCH  23  24
ENDBRANCH   7  20
TORSDOF 7
ENDMDL
MODEL      107
REMARK 921   NORMALIZED FREE ENERGY PREDICTED BY IDOCK:   -5.31 KCAL/MOL
REMARK 922        TOTAL FREE ENERGY PREDICTED BY IDOCK:   -9.02 KCAL/MOL
REMARK 923 INTER-LIGAND FREE ENERGY PREDICTED BY IDOCK:   -8.01 KCAL/MOL
REMARK 924 INTRA-LIGAND FREE ENERGY PREDICTED BY IDOCK:   -1.01 KCAL/MOL
REMARK 927      BINDING AFFINITY PREDICTED BY RF-SCORE:    0.00 PKD
ROOT
HETATM    1  O   UNL     1     -13.549  11.209  72.300  1.00  0.00    -0.244 OA 
HETATM    2  C   UNL     1     -13.102  10.185  71.736  1.00  0.00    -0.463 C  
HETATM    3  CA  UNL     1     -12.226  10.408  70.426  1.00  0.00    -0.303 C  
HETATM    4  OXT UNL     1     -13.256   8.966  72.056  1.00  0.00    -0.351 OA 
HETATM    5  C   UNL     1     -11.446   9.403  69.952  1.00  0.00    -0.054 C  
HETATM    6  C   UNL     1     -10.533   9.483  68.757  1.00  0.00    -0.219 C  
HETATM    7  CA  UNL     1     -11.493  13.297  68.801  1.00  0.00    -0.306 C  
HETATM    8  S   UNL     1     -10.614  10.868  67.636  1.00  0.00    -0.243 SA 
HETATM    9  N   UNL     1     -12.159  11.622  69.805  1.00  0.00    -0.303 N  
HETATM   10  O   UNL     1     -12.302  13.564  71.193  1.00  0.00    -0.354 OA 
HETATM   11  C   UNL     1     -11.909  11.846  68.403  1.00  0.00    -0.289 C  
HETATM   12  C   UNL     1     -12.157  12.930  70.176  1.00  0.00    -0.302 C  
ENDROOT
BRANCH   5  13
HETATM   13  C   UNL     1     -11.314   8.056  70.641  1.00  0.00    -0.252 C  
BRANCH  13  14
HETATM   14  N   UNL     1     -10.174   7.893  71.593  1.00  0.00    -0.188 NA 
HETATM   15  C   UNL     1      -9.310   7.551  73.792  1.00  0.00    -0.331 A  
HETATM   16  C   UNL     1      -8.082   8.067  73.402  1.00  0.00    -0.247 A  
HETATM   17  C   UNL     1     -10.347   7.459  72.864  1.00  0.00    -0.279 A  
HETATM   18  C   UNL     1      -8.952   8.307  71.180  1.00  0.00    -0.158 A  
HETATM   19  C   UNL     1      -7.894   8.426  72.076  1.00  0.00    -0.171 A  
ENDBRANCH  13  14
ENDBRANCH   5  13
BRANCH   7  20
HETATM   20  N   UNL     1     -10.020  13.651  68.901  1.00  0.00    -0.422 N  
HETATM   21  H   UNL     1      -9.546  13.540  69.797  1.00  0.00     0.000 HD 
HETATM   22  O   UNL     1      -9.766  14.426  66.722  1.00  0.00    -0.251 OA 
HETATM   23  C   UNL     1      -9.300  14.119  67.815  1.00  0.00    -0.200 C  
BRANCH  23  24
HETATM   24  C   UNL     1      -7.801  14.260  67.952  1.00  0.00    -0.152 C  
BRANCH  24  25
HETATM   25  N   UNL     1      -6.957  13.306  68.227  1.00  0.00    -0.094 NA 
HETATM   26  H   UNL     1      -6.916  12.872  69.150  1.00  0.00     0.000 HD 
BRANCH  25  27
HETATM   27  O   UNL     1      -6.110  12.910  67.185  1.00  0.00    -0.304 OA 
HETATM   28  C   UNL     1      -5.137  11.099  65.969  1.00  0.00    -0.126 C  
HETATM   29  C   UNL     1      -7.616  11.259  66.260  1.00  0.00    -0.032 C  
HETATM   30  O   UNL     1      -6.575  11.089  69.339  1.00  0.00    -0.078 OA 
HETATM   31  O   UNL     1      -5.772   9.388  68.117  1.00  0.00    -0.038 OA 
HETATM   32  C   UNL     1      -6.261  11.493  66.942  1.00  0.00    -0.143 C  
HETATM   33  C   UNL     1      -6.155  10.549  68.171  1.00  0.00    -0.043 C  
ENDBRANCH  25  27
ENDBRANCH  24  25
BRANCH  24  34
HETATM   34  C   UNL     1      -7.216  15.604  67.877  1.00  0.00    -0.137 A  
HETATM   35  H2  UNL     1      -5.925  19.379  69.378  1.00  0.00     0.000 HD 
HETATM   36  C   UNL     1      -6.968  16.303  66.708  1.00  0.00    -0.130 A  
HETATM   37  S   UNL     1      -6.394  17.874  67.072  1.00  0.00    -0.171 SA 
HETATM   38  H1  UNL     1      -6.303  18.244  70.670  1.00  0.00     0.000 HD 
HETATM   39  N   UNL     1      -6.228  18.451  69.674  1.00  0.00    -0.253 NA 
HETATM   40  N   UNL     1      -6.916  16.315  69.040  1.00  0.00    -0.175 NA 
HETATM   41  C   UNL     1      -6.520  17.526  68.747  1.00  0.00    -0.207 A  
ENDBRANCH  24  34
ENDBRANCH  23  24
ENDBRANCH   7  20
TORSDOF 7
ENDMDL
MODEL      108
REMARK 921   NORMALIZED FREE ENERGY PREDICTED BY IDOCK:   -5.28 KCAL/MOL
REMARK 922        TOTAL FREE ENERGY PREDICTED BY IDOCK:   -8.98 KCAL/MOL
REMARK 923 INTER-LIGAND FREE ENERGY PREDICTED BY IDOCK:   -8.82 KCAL/MOL
REMARK 924 INTRA-LIGAND FREE ENERGY PREDICTED BY IDOCK:   -0.17 KCAL/MOL
REMARK 927      BINDING AFFINITY PREDICTED BY RF-SCORE:    0.00 PKD
ROOT
HETATM    1  O   UNL     1     -13.177  15.641  71.010  1.00  0.00    -0.508 OA 
HETATM    2  C   UNL     1     -13.133  14.394  71.100  1.00  0.00    -0.352 C  
HETATM    3  CA  UNL     1     -12.475  13.606  69.884  1.00  0.00    -0.167 C  
HETATM    4  OXT UNL     1     -13.555  13.646  72.035  1.00  0.00    -0.421 OA 
HETATM    5  C   UNL     1     -12.093  12.313  70.040  1.00  0.00    -0.346 C  
HETATM    6  C   UNL     1     -11.419  11.459  68.998  1.00  0.00    -0.300 C  
HETATM    7  CA  UNL     1     -11.278  14.811  66.944  1.00  0.00    -0.347 C  
HETATM    8  S   UNL     1     -11.314  12.000  67.301  1.00  0.00    -0.336 SA 
HETATM    9  N   UNL     1     -12.188  14.222  68.700  1.00  0.00    -0.245 N  
HETATM   10  O   UNL     1     -11.550  16.525  68.797  1.00  0.00    -0.251 OA 
HETATM   11  C   UNL     1     -12.138  13.591  67.405  1.00  0.00    -0.318 C  
HETATM   12  C   UNL     1     -11.764  15.449  68.293  1.00  0.00    -0.297 C  
ENDROOT
BRANCH   5  13
HETATM   13  C   UNL     1     -12.216  11.562  71.354  1.00  0.00     0.019 C  
BRANCH  13  14
HETATM   14  N   UNL     1     -12.311  10.072  71.274  1.00  0.00    -0.366 NA 
HETATM   15  C   UNL     1     -13.576   8.047  71.299  1.00  0.00    -0.196 A  
HETATM   16  C   UNL     1     -12.431   7.324  71.603  1.00  0.00    -0.394 A  
HETATM   17  C   UNL     1     -13.493   9.429  71.124  1.00  0.00    -0.191 A  
HETATM   18  C   UNL     1     -11.175   9.362  71.475  1.00  0.00    -0.386 A  
HETATM   19  C   UNL     1     -11.214   7.985  71.667  1.00  0.00    -0.301 A  
ENDBRANCH  13  14
ENDBRANCH   5  13
BRANCH   7  20
HETATM   20  N   UNL     1      -9.771  14.664  66.837  1.00  0.00    -0.234 N  
HETATM   21  H   UNL     1      -9.344  14.633  65.911  1.00  0.00     0.000 HD 
HETATM   22  O   UNL     1      -9.342  14.459  69.114  1.00  0.00    -0.086 OA 
HETATM   23  C   UNL     1      -8.958  14.570  67.953  1.00  0.00    -0.187 C  
BRANCH  23  24
HETATM   24  C   UNL     1      -7.460  14.623  67.760  1.00  0.00    -0.166 C  
BRANCH  24  25
HETATM   25  N   UNL     1      -6.607  13.686  68.068  1.00  0.00    -0.118 NA 
HETATM   26  H   UNL     1      -6.411  13.432  69.037  1.00  0.00     0.000 HD 
BRANCH  25  27
HETATM   27  O   UNL     1      -5.977  13.049  66.993  1.00  0.00    -0.267 OA 
HETATM   28  C   UNL     1      -5.464  10.983  65.907  1.00  0.00    -0.140 C  
HETATM   29  C   UNL     1      -7.828  11.588  66.455  1.00  0.00    -0.071 C  
HETATM   30  O   UNL     1      -6.430  11.564  69.394  1.00  0.00    -0.088 OA 
HETATM   31  O   UNL     1      -6.067   9.634  68.307  1.00  0.00    -0.050 OA 
HETATM   32  C   UNL     1      -6.375  11.660  66.945  1.00  0.00    -0.142 C  
HETATM   33  C   UNL     1      -6.256  10.843  68.261  1.00  0.00    -0.049 C  
ENDBRANCH  25  27
ENDBRANCH  24  25
BRANCH  24  34
HETATM   34  C   UNL     1      -6.862  15.874  67.282  1.00  0.00    -0.197 A  
HETATM   35  H2  UNL     1      -6.634  19.447  64.967  1.00  0.00     0.000 HD 
HETATM   36  C   UNL     1      -5.551  16.266  67.493  1.00  0.00    -0.148 A  
HETATM   37  S   UNL     1      -5.233  17.731  66.668  1.00  0.00    -0.171 SA 
HETATM   38  H1  UNL     1      -8.234  18.715  64.904  1.00  0.00     0.000 HD 
HETATM   39  N   UNL     1      -7.276  18.707  65.253  1.00  0.00    -0.432 NA 
HETATM   40  N   UNL     1      -7.600  16.760  66.494  1.00  0.00    -0.273 NA 
HETATM   41  C   UNL     1      -6.844  17.744  66.081  1.00  0.00    -0.294 A  
ENDBRANCH  24  34
ENDBRANCH  23  24
ENDBRANCH   7  20
TORSDOF 7
ENDMDL
MODEL      109
REMARK 921   NORMALIZED FREE ENERGY PREDICTED BY IDOCK:   -5.27 KCAL/MOL
REMARK 922        TOTAL FREE ENERGY PREDICTED BY IDOCK:   -8.96 KCAL/MOL
REMARK 923 INTER-LIGAND FREE ENERGY PREDICTED BY IDOCK:   -7.33 KCAL/MOL
REMARK 924 INTRA-LIGAND FREE ENERGY PREDICTED BY IDOCK:   -1.64 KCAL/MOL
REMARK 927      BINDING AFFINITY PREDICTED BY RF-SCORE:    0.00 PKD
ROOT
HETATM    1  O   UNL     1      -6.938   6.526  66.237  1.00  0.00    -0.062 OA 
HETATM    2  C   UNL     1      -6.988   6.612  67.484  1.00  0.00    -0.082 C  
HETATM    3  CA  UNL     1      -7.023   8.077  68.105  1.00  0.00    -0.077 C  
HETATM    4  OXT UNL     1      -7.005   5.682  68.349  1.00  0.00    -0.061 OA 
HETATM    5  C   UNL     1      -7.403   8.259  69.395  1.00  0.00    -0.074 C  
HETATM    6  C   UNL     1      -7.527   9.583  70.102  1.00  0.00    -0.135 C  
HETATM    7  CA  UNL     1      -6.824  11.079  66.532  1.00  0.00    -0.132 C  
HETATM    8  S   UNL     1      -6.883  11.075  69.365  1.00  0.00    -0.126 SA 
HETATM    9  N   UNL     1      -6.771   9.184  67.347  1.00  0.00    -0.068 N  
HETATM   10  O   UNL     1      -7.441   9.109  65.053  1.00  0.00    -0.101 OA 
HETATM   11  C   UNL     1      -6.229  10.433  67.822  1.00  0.00    -0.056 C  
HETATM   12  C   UNL     1      -7.000   9.589  66.069  1.00  0.00    -0.091 C  
ENDROOT
BRANCH   5  13
HETATM   13  C   UNL     1      -7.856   7.124  70.297  1.00  0.00    -0.104 C  
BRANCH  13  14
HETATM   14  N   UNL     1      -9.158   7.306  71.009  1.00  0.00    -0.153 NA 
HETATM   15  C   UNL     1     -11.438   8.013  71.064  1.00  0.00    -0.300 A  
HETATM   16  C   UNL     1     -11.396   8.075  72.451  1.00  0.00    -0.443 A  
HETATM   17  C   UNL     1     -10.305   7.611  70.357  1.00  0.00    -0.214 A  
HETATM   18  C   UNL     1      -9.138   7.272  72.363  1.00  0.00    -0.131 A  
HETATM   19  C   UNL     1     -10.241   7.677  73.107  1.00  0.00    -0.401 A  
ENDBRANCH  13  14
ENDBRANCH   5  13
BRANCH   7  20
HETATM   20  N   UNL     1      -8.125  11.857  66.618  1.00  0.00    -0.345 N  
HETATM   21  H   UNL     1      -8.994  11.395  66.352  1.00  0.00     0.000 HD 
HETATM   22  O   UNL     1      -7.198  13.889  67.270  1.00  0.00    -0.139 OA 
HETATM   23  C   UNL     1      -8.169  13.172  67.047  1.00  0.00    -0.051 C  
BRANCH  23  24
HETATM   24  C   UNL     1      -9.521  13.806  67.289  1.00  0.00    -0.236 C  
BRANCH  24  25
HETATM   25  N   UNL     1      -9.961  14.280  68.422  1.00  0.00    -0.235 NA 
HETATM   26  H   UNL     1      -9.696  15.206  68.758  1.00  0.00     0.000 HD 
BRANCH  25  27
HETATM   27  O   UNL     1     -10.816  13.444  69.149  1.00  0.00    -0.211 OA 
HETATM   28  C   UNL     1     -12.471  13.271  70.863  1.00  0.00    -0.424 C  
HETATM   29  C   UNL     1     -12.765  14.863  68.957  1.00  0.00     0.404 C  
HETATM   30  O   UNL     1     -10.005  15.924  70.315  1.00  0.00    -0.069 OA 
HETATM   31  O   UNL     1     -11.654  15.788  71.831  1.00  0.00    -0.408 OA 
HETATM   32  C   UNL     1     -11.743  14.242  69.919  1.00  0.00    -0.311 C  
HETATM   33  C   UNL     1     -11.143  15.372  70.799  1.00  0.00    -0.336 C  
ENDBRANCH  25  27
ENDBRANCH  24  25
BRANCH  24  34
HETATM   34  C   UNL     1     -10.495  13.811  66.193  1.00  0.00    -0.297 A  
HETATM   35  H2  UNL     1     -12.532  12.259  62.785  1.00  0.00     0.000 HD 
HETATM   36  C   UNL     1     -11.201  14.918  65.756  1.00  0.00    -0.334 A  
HETATM   37  S   UNL     1     -12.141  14.515  64.384  1.00  0.00    -0.414 SA 
HETATM   38  H1  UNL     1     -11.543  11.038  63.582  1.00  0.00     0.000 HD 
HETATM   39  N   UNL     1     -11.897  11.994  63.539  1.00  0.00    -0.488 NA 
HETATM   40  N   UNL     1     -10.737  12.653  65.451  1.00  0.00    -0.274 NA 
HETATM   41  C   UNL     1     -11.545  12.908  64.455  1.00  0.00    -0.350 A  
ENDBRANCH  24  34
ENDBRANCH  23  24
ENDBRANCH   7  20
TORSDOF 7
ENDMDL
MODEL      110
REMARK 921   NORMALIZED FREE ENERGY PREDICTED BY IDOCK:   -5.26 KCAL/MOL
REMARK 922        TOTAL FREE ENERGY PREDICTED BY IDOCK:   -8.95 KCAL/MOL
REMARK 923 INTER-LIGAND FREE ENERGY PREDICTED BY IDOCK:   -7.41 KCAL/MOL
REMARK 924 INTRA-LIGAND FREE ENERGY PREDICTED BY IDOCK:   -1.54 KCAL/MOL
REMARK 927      BINDING AFFINITY PREDICTED BY RF-SCORE:    0.00 PKD
ROOT
HETATM    1  O   UNL     1     -11.234  17.837  69.412  1.00  0.00     0.904 OA 
HETATM    2  C   UNL     1     -10.381  18.291  68.617  1.00  0.00    -0.276 C  
HETATM    3  CA  UNL     1      -9.232  17.296  68.145  1.00  0.00    -0.267 C  
HETATM    4  OXT UNL     1     -10.288  19.460  68.128  1.00  0.00    -0.408 OA 
HETATM    5  C   UNL     1      -8.479  17.596  67.057  1.00  0.00    -0.252 C  
HETATM    6  C   UNL     1      -7.394  16.734  66.468  1.00  0.00    -0.271 C  
HETATM    7  CA  UNL     1      -8.641  14.094  69.106  1.00  0.00     0.221 C  
HETATM    8  S   UNL     1      -6.776  15.313  67.353  1.00  0.00    -0.036 SA 
HETATM    9  N   UNL     1      -9.037  16.088  68.749  1.00  0.00    -0.210 N  
HETATM   10  O   UNL     1     -10.972  14.970  69.600  1.00  0.00    -0.259 OA 
HETATM   11  C   UNL     1      -7.788  15.374  68.835  1.00  0.00    -0.177 C  
HETATM   12  C   UNL     1      -9.809  15.122  69.316  1.00  0.00    -0.230 C  
ENDROOT
BRANCH   5  13
HETATM   13  C   UNL     1      -8.700  18.835  66.207  1.00  0.00    -0.233 C  
BRANCH  13  14
HETATM   14  N   UNL     1      -7.593  19.839  66.175  1.00  0.00    -0.307 NA 
HETATM   15  C   UNL     1      -5.652  20.790  65.161  1.00  0.00    -0.255 A  
HETATM   16  C   UNL     1      -5.294  21.373  66.369  1.00  0.00    -0.299 A  
HETATM   17  C   UNL     1      -6.821  20.032  65.080  1.00  0.00    -0.258 A  
HETATM   18  C   UNL     1      -7.301  20.483  67.331  1.00  0.00    -0.326 A  
HETATM   19  C   UNL     1      -6.140  21.238  67.458  1.00  0.00    -0.435 A  
ENDBRANCH  13  14
ENDBRANCH   5  13
BRANCH   7  20
HETATM   20  N   UNL     1      -8.882  13.106  67.980  1.00  0.00    -0.184 N  
HETATM   21  H   UNL     1      -8.380  13.228  67.100  1.00  0.00     0.000 HD 
HETATM   22  O   UNL     1     -10.524  11.852  69.048  1.00  0.00    -0.172 OA 
HETATM   23  C   UNL     1      -9.760  12.044  68.107  1.00  0.00    -0.199 C  
BRANCH  23  24
HETATM   24  C   UNL     1      -9.793  11.000  67.013  1.00  0.00    -0.182 C  
BRANCH  24  25
HETATM   25  N   UNL     1      -9.358   9.774  67.101  1.00  0.00    -0.141 NA 
HETATM   26  H   UNL     1      -8.366   9.560  67.206  1.00  0.00     0.000 HD 
BRANCH  25  27
HETATM   27  O   UNL     1     -10.331   8.769  67.044  1.00  0.00    -0.261 OA 
HETATM   28  C   UNL     1     -10.792   6.427  66.932  1.00  0.00    -0.428 C  
HETATM   29  C   UNL     1      -9.324   7.358  68.730  1.00  0.00    -0.144 C  
HETATM   30  O   UNL     1      -7.718   8.207  66.030  1.00  0.00    -0.086 OA 
HETATM   31  O   UNL     1      -8.145   6.004  66.061  1.00  0.00    -0.105 OA 
HETATM   32  C   UNL     1      -9.715   7.478  67.251  1.00  0.00    -0.167 C  
HETATM   33  C   UNL     1      -8.473   7.139  66.382  1.00  0.00    -0.130 C  
ENDBRANCH  25  27
ENDBRANCH  24  25
BRANCH  24  34
HETATM   34  C   UNL     1     -10.254  11.401  65.680  1.00  0.00    -0.251 A  
HETATM   35  H2  UNL     1     -12.528  13.644  62.856  1.00  0.00     0.000 HD 
HETATM   36  C   UNL     1     -10.031  10.695  64.511  1.00  0.00    -0.345 A  
HETATM   37  S   UNL     1     -10.837  11.448  63.203  1.00  0.00     0.050 SA 
HETATM   38  H1  UNL     1     -12.609  14.335  64.474  1.00  0.00     0.000 HD 
HETATM   39  N   UNL     1     -12.254  13.620  63.839  1.00  0.00    -0.641 NA 
HETATM   40  N   UNL     1     -11.036  12.546  65.512  1.00  0.00    -0.291 NA 
HETATM   41  C   UNL     1     -11.435  12.650  64.271  1.00  0.00    -0.363 A  
ENDBRANCH  24  34
ENDBRANCH  23  24
ENDBRANCH   7  20
TORSDOF 7
ENDMDL
MODEL      111
REMARK 921   NORMALIZED FREE ENERGY PREDICTED BY IDOCK:   -5.23 KCAL/MOL
REMARK 922        TOTAL FREE ENERGY PREDICTED BY IDOCK:   -8.91 KCAL/MOL
REMARK 923 INTER-LIGAND FREE ENERGY PREDICTED BY IDOCK:   -7.70 KCAL/MOL
REMARK 924 INTRA-LIGAND FREE ENERGY PREDICTED BY IDOCK:   -1.21 KCAL/MOL
REMARK 927      BINDING AFFINITY PREDICTED BY RF-SCORE:    0.00 PKD
ROOT
HETATM    1  O   UNL     1      -9.930   3.768  67.660  1.00  0.00    -0.056 OA 
HETATM    2  C   UNL     1      -9.099   4.044  68.554  1.00  0.00    -0.137 C  
HETATM    3  CA  UNL     1      -8.626   5.560  68.657  1.00  0.00    -0.103 C  
HETATM    4  OXT UNL     1      -8.556   3.272  69.404  1.00  0.00    -0.059 OA 
HETATM    5  C   UNL     1      -7.998   6.000  69.777  1.00  0.00    -0.106 C  
HETATM    6  C   UNL     1      -7.538   7.411  70.034  1.00  0.00    -0.089 C  
HETATM    7  CA  UNL     1      -9.433   8.197  66.678  1.00  0.00    -0.213 C  
HETATM    8  S   UNL     1      -7.514   8.618  68.721  1.00  0.00    -0.093 SA 
HETATM    9  N   UNL     1      -8.917   6.471  67.683  1.00  0.00    -0.115 N  
HETATM   10  O   UNL     1     -10.992   6.199  66.524  1.00  0.00    -0.242 OA 
HETATM   11  C   UNL     1      -8.140   7.639  67.353  1.00  0.00    -0.119 C  
HETATM   12  C   UNL     1      -9.949   6.723  66.833  1.00  0.00    -0.191 C  
ENDROOT
BRANCH   5  13
HETATM   13  C   UNL     1      -7.754   5.125  70.993  1.00  0.00    -0.095 C  
BRANCH  13  14
HETATM   14  N   UNL     1      -8.664   5.322  72.162  1.00  0.00    -0.129 NA 
HETATM   15  C   UNL     1     -10.845   5.538  73.109  1.00  0.00    -0.328 A  
HETATM   16  C   UNL     1     -10.308   6.157  74.230  1.00  0.00    -0.291 A  
HETATM   17  C   UNL     1      -9.999   5.113  72.085  1.00  0.00    -0.187 A  
HETATM   18  C   UNL     1      -8.125   5.838  73.293  1.00  0.00    -0.113 A  
HETATM   19  C   UNL     1      -8.932   6.286  74.333  1.00  0.00    -0.159 A  
ENDBRANCH  13  14
ENDBRANCH   5  13
BRANCH   7  20
HETATM   20  N   UNL     1     -10.273   9.227  67.412  1.00  0.00    -0.226 N  
HETATM   21  H   UNL     1     -11.044   8.906  67.999  1.00  0.00     0.000 HD 
HETATM   22  O   UNL     1      -9.230  11.117  66.545  1.00  0.00    -0.170 OA 
HETATM   23  C   UNL     1     -10.029  10.585  67.310  1.00  0.00    -0.186 C  
BRANCH  23  24
HETATM   24  C   UNL     1     -10.785  11.524  68.223  1.00  0.00    -0.211 C  
BRANCH  24  25
HETATM   25  N   UNL     1     -10.906  12.814  68.077  1.00  0.00    -0.225 NA 
HETATM   26  H   UNL     1     -11.675  13.228  67.549  1.00  0.00     0.000 HD 
BRANCH  25  27
HETATM   27  O   UNL     1      -9.919  13.599  68.685  1.00  0.00    -0.224 OA 
HETATM   28  C   UNL     1      -9.122  15.798  69.171  1.00  0.00    -0.262 C  
HETATM   29  C   UNL     1     -11.452  15.119  69.775  1.00  0.00    -0.321 C  
HETATM   30  O   UNL     1     -11.441  14.727  66.545  1.00  0.00    -0.352 OA 
HETATM   31  O   UNL     1     -10.771  16.791  67.113  1.00  0.00    -0.287 OA 
HETATM   32  C   UNL     1     -10.344  14.980  68.722  1.00  0.00    -0.240 C  
HETATM   33  C   UNL     1     -10.847  15.601  67.390  1.00  0.00    -0.315 C  
ENDBRANCH  25  27
ENDBRANCH  24  25
BRANCH  24  34
HETATM   34  C   UNL     1     -11.363  10.982  69.458  1.00  0.00    -0.287 A  
HETATM   35  H2  UNL     1     -13.736  11.036  72.999  1.00  0.00     0.000 HD 
HETATM   36  C   UNL     1     -10.940   9.831  70.099  1.00  0.00    -0.291 A  
HETATM   37  S   UNL     1     -11.801   9.622  71.564  1.00  0.00    -0.396 SA 
HETATM   38  H1  UNL     1     -14.078  12.407  71.948  1.00  0.00     0.000 HD 
HETATM   39  N   UNL     1     -13.564  11.546  72.132  1.00  0.00    -0.192 NA 
HETATM   40  N   UNL     1     -12.384  11.663  70.124  1.00  0.00    -0.252 NA 
HETATM   41  C   UNL     1     -12.666  11.071  71.256  1.00  0.00    -0.432 A  
ENDBRANCH  24  34
ENDBRANCH  23  24
ENDBRANCH   7  20
TORSDOF 7
ENDMDL
MODEL      112
REMARK 921   NORMALIZED FREE ENERGY PREDICTED BY IDOCK:   -5.22 KCAL/MOL
REMARK 922        TOTAL FREE ENERGY PREDICTED BY IDOCK:   -8.90 KCAL/MOL
REMARK 923 INTER-LIGAND FREE ENERGY PREDICTED BY IDOCK:   -7.53 KCAL/MOL
REMARK 924 INTRA-LIGAND FREE ENERGY PREDICTED BY IDOCK:   -1.37 KCAL/MOL
REMARK 927      BINDING AFFINITY PREDICTED BY RF-SCORE:    0.00 PKD
ROOT
HETATM    1  O   UNL     1      -9.962   6.392  66.346  1.00  0.00    -0.134 OA 
HETATM    2  C   UNL     1     -10.125   6.588  67.571  1.00  0.00    -0.155 C  
HETATM    3  CA  UNL     1      -9.453   7.892  68.189  1.00  0.00    -0.147 C  
HETATM    4  OXT UNL     1     -10.752   5.877  68.417  1.00  0.00    -0.242 OA 
HETATM    5  C   UNL     1      -9.846   8.346  69.406  1.00  0.00    -0.185 C  
HETATM    6  C   UNL     1      -9.336   9.585  70.093  1.00  0.00    -0.247 C  
HETATM    7  CA  UNL     1      -7.473  10.202  66.684  1.00  0.00    -0.106 C  
HETATM    8  S   UNL     1      -7.903  10.449  69.474  1.00  0.00    -0.127 SA 
HETATM    9  N   UNL     1      -8.550   8.635  67.486  1.00  0.00    -0.134 N  
HETATM   10  O   UNL     1      -8.842   8.749  65.115  1.00  0.00    -0.186 OA 
HETATM   11  C   UNL     1      -7.493   9.440  68.047  1.00  0.00    -0.080 C  
HETATM   12  C   UNL     1      -8.354   9.000  66.191  1.00  0.00    -0.121 C  
ENDROOT
BRANCH   5  13
HETATM   13  C   UNL     1     -10.951   7.697  70.220  1.00  0.00    -0.252 C  
BRANCH  13  14
HETATM   14  N   UNL     1     -10.558   7.084  71.526  1.00  0.00    -0.212 NA 
HETATM   15  C   UNL     1     -10.339   7.169  73.901  1.00  0.00    -0.339 A  
HETATM   16  C   UNL     1      -9.400   6.147  73.862  1.00  0.00    -0.141 A  
HETATM   17  C   UNL     1     -10.920   7.618  72.716  1.00  0.00    -0.377 A  
HETATM   18  C   UNL     1      -9.715   6.023  71.489  1.00  0.00    -0.163 A  
HETATM   19  C   UNL     1      -9.104   5.552  72.646  1.00  0.00    -0.140 A  
ENDBRANCH  13  14
ENDBRANCH   5  13
BRANCH   7  20
HETATM   20  N   UNL     1      -8.153  11.554  66.574  1.00  0.00    -0.278 N  
HETATM   21  H   UNL     1      -9.122  11.594  66.258  1.00  0.00     0.000 HD 
HETATM   22  O   UNL     1      -6.309  12.849  67.151  1.00  0.00    -0.249 OA 
HETATM   23  C   UNL     1      -7.503  12.735  66.889  1.00  0.00     0.214 C  
BRANCH  23  24
HETATM   24  C   UNL     1      -8.310  14.012  66.939  1.00  0.00    -0.017 C  
BRANCH  24  25
HETATM   25  N   UNL     1      -7.838  15.227  66.902  1.00  0.00    -0.279 NA 
HETATM   26  H   UNL     1      -8.090  15.880  66.160  1.00  0.00     0.000 HD 
BRANCH  25  27
HETATM   27  O   UNL     1      -6.967  15.582  67.938  1.00  0.00    -0.115 OA 
HETATM   28  C   UNL     1      -6.092  17.330  69.312  1.00  0.00    -0.229 C  
HETATM   29  C   UNL     1      -8.558  16.955  69.135  1.00  0.00    -0.058 C  
HETATM   30  O   UNL     1      -7.740  17.584  66.049  1.00  0.00    -0.440 OA 
HETATM   31  O   UNL     1      -7.023  19.205  67.425  1.00  0.00    -0.207 OA 
HETATM   32  C   UNL     1      -7.234  16.939  68.359  1.00  0.00    -0.195 C  
HETATM   33  C   UNL     1      -7.298  18.025  67.251  1.00  0.00    -0.198 C  
ENDBRANCH  25  27
ENDBRANCH  24  25
BRANCH  24  34
HETATM   34  C   UNL     1      -9.758  13.914  67.157  1.00  0.00    -0.244 A  
HETATM   35  H2  UNL     1     -13.876  13.981  66.057  1.00  0.00     0.000 HD 
HETATM   36  C   UNL     1     -10.381  13.909  68.393  1.00  0.00    -0.249 A  
HETATM   37  S   UNL     1     -12.081  13.900  68.196  1.00  0.00    -0.176 SA 
HETATM   38  H1  UNL     1     -12.813  13.963  64.653  1.00  0.00     0.000 HD 
HETATM   39  N   UNL     1     -12.934  13.956  65.666  1.00  0.00    -0.619 NA 
HETATM   40  N   UNL     1     -10.639  13.879  66.075  1.00  0.00    -0.288 NA 
HETATM   41  C   UNL     1     -11.878  13.912  66.492  1.00  0.00    -0.414 A  
ENDBRANCH  24  34
ENDBRANCH  23  24
ENDBRANCH   7  20
TORSDOF 7
ENDMDL
MODEL      113
REMARK 921   NORMALIZED FREE ENERGY PREDICTED BY IDOCK:   -5.21 KCAL/MOL
REMARK 922        TOTAL FREE ENERGY PREDICTED BY IDOCK:   -8.88 KCAL/MOL
REMARK 923 INTER-LIGAND FREE ENERGY PREDICTED BY IDOCK:   -7.31 KCAL/MOL
REMARK 924 INTRA-LIGAND FREE ENERGY PREDICTED BY IDOCK:   -1.57 KCAL/MOL
REMARK 927      BINDING AFFINITY PREDICTED BY RF-SCORE:    0.00 PKD
ROOT
HETATM    1  O   UNL     1      -7.603   6.533  71.896  1.00  0.00    -0.092 OA 
HETATM    2  C   UNL     1      -7.634   5.972  70.778  1.00  0.00    -0.093 C  
HETATM    3  CA  UNL     1      -8.591   6.608  69.677  1.00  0.00    -0.133 C  
HETATM    4  OXT UNL     1      -7.007   4.939  70.385  1.00  0.00    -0.042 OA 
HETATM    5  C   UNL     1      -8.440   6.274  68.371  1.00  0.00    -0.115 C  
HETATM    6  C   UNL     1      -9.237   6.828  67.219  1.00  0.00    -0.133 C  
HETATM    7  CA  UNL     1     -10.730   9.230  69.953  1.00  0.00    -0.234 C  
HETATM    8  S   UNL     1     -10.707   7.798  67.508  1.00  0.00    -0.133 SA 
HETATM    9  N   UNL     1      -9.512   7.565  69.994  1.00  0.00    -0.161 N  
HETATM   10  O   UNL     1      -8.944   9.084  71.752  1.00  0.00    -0.343 OA 
HETATM   11  C   UNL     1     -10.753   7.811  69.303  1.00  0.00    -0.147 C  
HETATM   12  C   UNL     1      -9.601   8.615  70.854  1.00  0.00    -0.203 C  
ENDROOT
BRANCH   5  13
HETATM   13  C   UNL     1      -7.353   5.340  67.871  1.00  0.00    -0.076 C  
BRANCH  13  14
HETATM   14  N   UNL     1      -6.477   5.849  66.771  1.00  0.00    -0.048 NA 
HETATM   15  C   UNL     1      -5.229   7.592  65.721  1.00  0.00    -0.025 A  
HETATM   16  C   UNL     1      -5.267   6.906  64.514  1.00  0.00    -0.027 A  
HETATM   17  C   UNL     1      -5.833   7.037  66.849  1.00  0.00    -0.026 A  
HETATM   18  C   UNL     1      -6.435   5.131  65.624  1.00  0.00    -0.036 A  
HETATM   19  C   UNL     1      -5.855   5.651  64.472  1.00  0.00    -0.021 A  
ENDBRANCH  13  14
ENDBRANCH   5  13
BRANCH   7  20
HETATM   20  N   UNL     1     -10.282  10.423  69.128  1.00  0.00    -0.210 N  
HETATM   21  H   UNL     1      -9.292  10.666  69.109  1.00  0.00     0.000 HD 
HETATM   22  O   UNL     1     -12.397  11.100  68.434  1.00  0.00    -0.556 OA 
HETATM   23  C   UNL     1     -11.174  11.192  68.400  1.00  0.00    -0.262 C  
BRANCH  23  24
HETATM   24  C   UNL     1     -10.622  12.235  67.455  1.00  0.00    -0.222 C  
BRANCH  24  25
HETATM   25  N   UNL     1      -9.957  13.306  67.789  1.00  0.00    -0.218 NA 
HETATM   26  H   UNL     1      -9.288  13.745  67.156  1.00  0.00     0.000 HD 
BRANCH  25  27
HETATM   27  O   UNL     1     -10.214  13.818  69.066  1.00  0.00    -0.158 OA 
HETATM   28  C   UNL     1     -10.810  15.721  70.382  1.00  0.00    -0.345 C  
HETATM   29  C   UNL     1     -12.231  15.003  68.453  1.00  0.00    -0.009 C  
HETATM   30  O   UNL     1      -9.381  15.619  67.009  1.00  0.00    -0.214 OA 
HETATM   31  O   UNL     1     -10.071  17.376  68.223  1.00  0.00    -0.298 OA 
HETATM   32  C   UNL     1     -10.788  15.140  68.958  1.00  0.00    -0.242 C  
HETATM   33  C   UNL     1     -10.044  16.163  68.057  1.00  0.00    -0.242 C  
ENDBRANCH  25  27
ENDBRANCH  24  25
BRANCH  24  34
HETATM   34  C   UNL     1     -10.936  12.119  66.027  1.00  0.00    -0.293 A  
HETATM   35  H2  UNL     1     -10.226  11.077  61.955  1.00  0.00     0.000 HD 
HETATM   36  C   UNL     1     -11.982  12.758  65.384  1.00  0.00    -0.436 A  
HETATM   37  S   UNL     1     -11.920  12.446  63.703  1.00  0.00    -0.566 SA 
HETATM   38  H1  UNL     1      -9.031  10.371  63.039  1.00  0.00     0.000 HD 
HETATM   39  N   UNL     1      -9.869  10.936  62.900  1.00  0.00    -0.309 NA 
HETATM   40  N   UNL     1     -10.121  11.367  65.178  1.00  0.00    -0.257 NA 
HETATM   41  C   UNL     1     -10.511  11.496  63.936  1.00  0.00    -0.385 A  
ENDBRANCH  24  34
ENDBRANCH  23  24
ENDBRANCH   7  20
TORSDOF 7
ENDMDL
MODEL      114
REMARK 921   NORMALIZED FREE ENERGY PREDICTED BY IDOCK:   -5.16 KCAL/MOL
REMARK 922        TOTAL FREE ENERGY PREDICTED BY IDOCK:   -8.81 KCAL/MOL
REMARK 923 INTER-LIGAND FREE ENERGY PREDICTED BY IDOCK:   -8.03 KCAL/MOL
REMARK 924 INTRA-LIGAND FREE ENERGY PREDICTED BY IDOCK:   -0.78 KCAL/MOL
REMARK 927      BINDING AFFINITY PREDICTED BY RF-SCORE:    0.00 PKD
ROOT
HETATM    1  O   UNL     1     -11.111  17.025  65.366  1.00  0.00    -0.182 OA 
HETATM    2  C   UNL     1     -10.056  17.380  65.936  1.00  0.00    -0.205 C  
HETATM    3  CA  UNL     1      -9.639  16.579  67.247  1.00  0.00    -0.242 C  
HETATM    4  OXT UNL     1      -9.254  18.315  65.624  1.00  0.00    -0.295 OA 
HETATM    5  C   UNL     1      -8.373  16.674  67.727  1.00  0.00    -0.184 C  
HETATM    6  C   UNL     1      -7.825  15.941  68.923  1.00  0.00    -0.198 C  
HETATM    7  CA  UNL     1     -11.295  14.089  68.855  1.00  0.00    -0.280 C  
HETATM    8  S   UNL     1      -8.911  15.067  70.036  1.00  0.00     0.663 SA 
HETATM    9  N   UNL     1     -10.496  15.711  67.860  1.00  0.00    -0.260 N  
HETATM   10  O   UNL     1     -12.023  14.516  66.461  1.00  0.00    -0.397 OA 
HETATM   11  C   UNL     1     -10.502  15.372  69.261  1.00  0.00    -0.251 C  
HETATM   12  C   UNL     1     -11.462  14.831  67.482  1.00  0.00    -0.354 C  
ENDROOT
BRANCH   5  13
HETATM   13  C   UNL     1      -7.284  17.483  67.047  1.00  0.00    -0.181 C  
BRANCH  13  14
HETATM   14  N   UNL     1      -6.881  18.763  67.707  1.00  0.00    -0.213 NA 
HETATM   15  C   UNL     1      -5.997  20.979  67.622  1.00  0.00    -0.387 A  
HETATM   16  C   UNL     1      -5.705  20.926  68.979  1.00  0.00    -0.375 A  
HETATM   17  C   UNL     1      -6.602  19.885  67.003  1.00  0.00    -0.202 A  
HETATM   18  C   UNL     1      -6.688  18.740  69.047  1.00  0.00    -0.283 A  
HETATM   19  C   UNL     1      -6.077  19.803  69.703  1.00  0.00    -0.353 A  
ENDBRANCH  13  14
ENDBRANCH   5  13
BRANCH   7  20
HETATM   20  N   UNL     1     -10.567  12.761  68.756  1.00  0.00    -0.357 N  
HETATM   21  H   UNL     1      -9.573  12.725  68.985  1.00  0.00     0.000 HD 
HETATM   22  O   UNL     1     -12.354  11.517  67.938  1.00  0.00    -0.390 OA 
HETATM   23  C   UNL     1     -11.207  11.597  68.366  1.00  0.00    -0.249 C  
BRANCH  23  24
HETATM   24  C   UNL     1     -10.458  10.289  68.483  1.00  0.00    -0.192 C  
BRANCH  24  25
HETATM   25  N   UNL     1     -10.042   9.546  67.496  1.00  0.00    -0.190 NA 
HETATM   26  H   UNL     1     -10.687   9.017  66.910  1.00  0.00     0.000 HD 
BRANCH  25  27
HETATM   27  O   UNL     1      -8.658   9.516  67.287  1.00  0.00    -0.127 OA 
HETATM   28  C   UNL     1      -6.784   8.305  66.433  1.00  0.00    -0.062 C  
HETATM   29  C   UNL     1      -8.773   8.768  64.990  1.00  0.00    -0.183 C  
HETATM   30  O   UNL     1     -10.078   7.039  67.419  1.00  0.00    -0.163 OA 
HETATM   31  O   UNL     1      -8.342   5.957  66.495  1.00  0.00    -0.109 OA 
HETATM   32  C   UNL     1      -8.318   8.416  66.413  1.00  0.00    -0.116 C  
HETATM   33  C   UNL     1      -8.883   7.018  66.782  1.00  0.00    -0.126 C  
ENDBRANCH  25  27
ENDBRANCH  24  25
BRANCH  24  34
HETATM   34  C   UNL     1     -10.255   9.718  69.819  1.00  0.00    -0.242 A  
HETATM   35  H2  UNL     1      -8.016   8.082  73.057  1.00  0.00     0.000 HD 
HETATM   36  C   UNL     1     -11.258   9.243  70.646  1.00  0.00    -0.276 A  
HETATM   37  S   UNL     1     -10.581   8.557  72.060  1.00  0.00    -0.354 SA 
HETATM   38  H1  UNL     1      -6.979   8.796  71.825  1.00  0.00     0.000 HD 
HETATM   39  N   UNL     1      -7.913   8.576  72.170  1.00  0.00    -0.263 NA 
HETATM   40  N   UNL     1      -8.967   9.557  70.336  1.00  0.00    -0.251 NA 
HETATM   41  C   UNL     1      -9.010   8.925  71.480  1.00  0.00    -0.205 A  
ENDBRANCH  24  34
ENDBRANCH  23  24
ENDBRANCH   7  20
TORSDOF 7
ENDMDL
MODEL      115
REMARK 921   NORMALIZED FREE ENERGY PREDICTED BY IDOCK:   -5.14 KCAL/MOL
REMARK 922        TOTAL FREE ENERGY PREDICTED BY IDOCK:   -8.78 KCAL/MOL
REMARK 923 INTER-LIGAND FREE ENERGY PREDICTED BY IDOCK:   -7.30 KCAL/MOL
REMARK 924 INTRA-LIGAND FREE ENERGY PREDICTED BY IDOCK:   -1.48 KCAL/MOL
REMARK 927      BINDING AFFINITY PREDICTED BY RF-SCORE:    0.00 PKD
ROOT
HETATM    1  O   UNL     1      -9.548   3.117  67.801  1.00  0.00    -0.198 OA 
HETATM    2  C   UNL     1      -8.883   3.407  68.820  1.00  0.00    -0.113 C  
HETATM    3  CA  UNL     1      -8.128   4.809  68.815  1.00  0.00    -0.083 C  
HETATM    4  OXT UNL     1      -8.706   2.728  69.879  1.00  0.00    -0.058 OA 
HETATM    5  C   UNL     1      -7.669   5.337  69.978  1.00  0.00    -0.076 C  
HETATM    6  C   UNL     1      -6.982   6.668  70.133  1.00  0.00    -0.063 C  
HETATM    7  CA  UNL     1      -7.923   7.124  66.341  1.00  0.00    -0.112 C  
HETATM    8  S   UNL     1      -6.428   7.582  68.705  1.00  0.00    -0.045 SA 
HETATM    9  N   UNL     1      -8.009   5.555  67.679  1.00  0.00    -0.101 N  
HETATM   10  O   UNL     1      -9.805   5.437  66.103  1.00  0.00    -0.160 OA 
HETATM   11  C   UNL     1      -6.949   6.486  67.382  1.00  0.00    -0.078 C  
HETATM   12  C   UNL     1      -8.762   5.818  66.577  1.00  0.00    -0.123 C  
ENDROOT
BRANCH   5  13
HETATM   13  C   UNL     1      -7.876   4.678  71.330  1.00  0.00    -0.087 C  
BRANCH  13  14
HETATM   14  N   UNL     1      -8.865   5.320  72.250  1.00  0.00    -0.129 NA 
HETATM   15  C   UNL     1     -10.764   6.710  72.648  1.00  0.00    -0.265 A  
HETATM   16  C   UNL     1     -10.381   6.873  73.973  1.00  0.00    -0.355 A  
HETATM   17  C   UNL     1      -9.995   5.913  71.800  1.00  0.00    -0.166 A  
HETATM   18  C   UNL     1      -8.537   5.396  73.563  1.00  0.00    -0.115 A  
HETATM   19  C   UNL     1      -9.269   6.189  74.440  1.00  0.00    -0.168 A  
ENDBRANCH  13  14
ENDBRANCH   5  13
BRANCH   7  20
HETATM   20  N   UNL     1      -8.658   8.404  66.693  1.00  0.00    -0.117 N  
HETATM   21  H   UNL     1      -9.216   8.433  67.546  1.00  0.00     0.000 HD 
HETATM   22  O   UNL     1      -8.079   9.600  64.783  1.00  0.00    -0.125 OA 
HETATM   23  C   UNL     1      -8.596   9.533  65.894  1.00  0.00    -0.132 C  
BRANCH  23  24
HETATM   24  C   UNL     1      -9.196  10.819  66.416  1.00  0.00    -0.170 C  
BRANCH  24  25
HETATM   25  N   UNL     1     -10.440  11.192  66.306  1.00  0.00    -0.253 NA 
HETATM   26  H   UNL     1     -10.972  11.542  67.104  1.00  0.00     0.000 HD 
BRANCH  25  27
HETATM   27  O   UNL     1     -11.005  11.086  65.030  1.00  0.00    -0.184 OA 
HETATM   28  C   UNL     1     -12.358  12.105  63.344  1.00  0.00    -0.648 C  
HETATM   29  C   UNL     1     -10.387  13.309  64.303  1.00  0.00    -0.315 C  
HETATM   30  O   UNL     1     -12.238  12.825  66.935  1.00  0.00    -0.454 OA 
HETATM   31  O   UNL     1     -13.397  13.843  65.305  1.00  0.00    -0.732 OA 
HETATM   32  C   UNL     1     -11.551  12.363  64.628  1.00  0.00    -0.343 C  
HETATM   33  C   UNL     1     -12.501  13.074  65.630  1.00  0.00    -0.390 C  
ENDBRANCH  25  27
ENDBRANCH  24  25
BRANCH  24  34
HETATM   34  C   UNL     1      -8.300  11.814  67.017  1.00  0.00    -0.172 A  
HETATM   35  H2  UNL     1      -7.235  15.579  68.708  1.00  0.00     0.000 HD 
HETATM   36  C   UNL     1      -6.919  11.731  67.045  1.00  0.00    -0.135 A  
HETATM   37  S   UNL     1      -6.257  13.151  67.733  1.00  0.00    -0.156 SA 
HETATM   38  H1  UNL     1      -8.979  15.385  68.564  1.00  0.00     0.000 HD 
HETATM   39  N   UNL     1      -8.039  15.010  68.442  1.00  0.00    -0.135 NA 
HETATM   40  N   UNL     1      -8.811  12.989  67.570  1.00  0.00    -0.184 NA 
HETATM   41  C   UNL     1      -7.838  13.782  67.938  1.00  0.00    -0.159 A  
ENDBRANCH  24  34
ENDBRANCH  23  24
ENDBRANCH   7  20
TORSDOF 7
ENDMDL
MODEL      116
REMARK 921   NORMALIZED FREE ENERGY PREDICTED BY IDOCK:   -5.14 KCAL/MOL
REMARK 922        TOTAL FREE ENERGY PREDICTED BY IDOCK:   -8.78 KCAL/MOL
REMARK 923 INTER-LIGAND FREE ENERGY PREDICTED BY IDOCK:   -7.36 KCAL/MOL
REMARK 924 INTRA-LIGAND FREE ENERGY PREDICTED BY IDOCK:   -1.42 KCAL/MOL
REMARK 927      BINDING AFFINITY PREDICTED BY RF-SCORE:    0.00 PKD
ROOT
HETATM    1  O   UNL     1     -10.040   7.674  73.547  1.00  0.00    -0.325 OA 
HETATM    2  C   UNL     1      -9.190   7.025  72.898  1.00  0.00    -0.139 C  
HETATM    3  CA  UNL     1      -9.267   7.120  71.311  1.00  0.00    -0.151 C  
HETATM    4  OXT UNL     1      -8.258   6.276  73.328  1.00  0.00    -0.115 OA 
HETATM    5  C   UNL     1      -8.210   6.729  70.555  1.00  0.00    -0.117 C  
HETATM    6  C   UNL     1      -8.121   6.804  69.054  1.00  0.00    -0.117 C  
HETATM    7  CA  UNL     1     -11.535   8.733  69.367  1.00  0.00     0.472 C  
HETATM    8  S   UNL     1      -9.566   7.161  68.070  1.00  0.00    -0.135 SA 
HETATM    9  N   UNL     1     -10.339   7.679  70.677  1.00  0.00    -0.204 N  
HETATM   10  O   UNL     1     -11.446   9.482  71.792  1.00  0.00    -0.384 OA 
HETATM   11  C   UNL     1     -10.807   7.352  69.353  1.00  0.00    -0.171 C  
HETATM   12  C   UNL     1     -11.206   8.702  70.902  1.00  0.00    -0.267 C  
ENDROOT
BRANCH   5  13
HETATM   13  C   UNL     1      -6.901   6.235  71.147  1.00  0.00    -0.067 C  
BRANCH  13  14
HETATM   14  N   UNL     1      -6.433   4.882  70.716  1.00  0.00    -0.029 NA 
HETATM   15  C   UNL     1      -5.145   3.463  69.293  1.00  0.00    -0.011 A  
HETATM   16  C   UNL     1      -5.948   2.381  69.627  1.00  0.00    -0.023 A  
HETATM   17  C   UNL     1      -5.397   4.711  69.862  1.00  0.00    -0.007 A  
HETATM   18  C   UNL     1      -7.161   3.813  71.119  1.00  0.00    -0.033 A  
HETATM   19  C   UNL     1      -6.951   2.553  70.568  1.00  0.00    -0.033 A  
ENDBRANCH  13  14
ENDBRANCH   5  13
BRANCH   7  20
HETATM   20  N   UNL     1     -10.922   9.908  68.627  1.00  0.00    -0.374 N  
HETATM   21  H   UNL     1     -10.015   9.787  68.176  1.00  0.00     0.000 HD 
HETATM   22  O   UNL     1     -12.571  11.464  69.146  1.00  0.00    -0.255 OA 
HETATM   23  C   UNL     1     -11.552  11.138  68.545  1.00  0.00    -0.314 C  
BRANCH  23  24
HETATM   24  C   UNL     1     -10.966  12.188  67.629  1.00  0.00    -0.243 C  
BRANCH  24  25
HETATM   25  N   UNL     1     -10.538  13.368  67.981  1.00  0.00    -0.237 NA 
HETATM   26  H   UNL     1     -10.774  13.781  68.884  1.00  0.00     0.000 HD 
BRANCH  25  27
HETATM   27  O   UNL     1      -9.735  14.036  67.048  1.00  0.00    -0.241 OA 
HETATM   28  C   UNL     1      -8.839  16.122  66.302  1.00  0.00    -0.371 C  
HETATM   29  C   UNL     1      -8.537  15.373  68.670  1.00  0.00    -0.179 C  
HETATM   30  O   UNL     1     -11.778  15.508  68.403  1.00  0.00    -0.365 OA 
HETATM   31  O   UNL     1     -10.833  17.448  67.789  1.00  0.00    -0.361 OA 
HETATM   32  C   UNL     1      -9.509  15.397  67.482  1.00  0.00    -0.205 C  
HETATM   33  C   UNL     1     -10.758  16.229  67.881  1.00  0.00    -0.329 C  
ENDBRANCH  25  27
ENDBRANCH  24  25
BRANCH  24  34
HETATM   34  C   UNL     1     -10.962  11.931  66.185  1.00  0.00    -0.308 A  
HETATM   35  H2  UNL     1      -9.538  10.261  62.531  1.00  0.00     0.000 HD 
HETATM   36  C   UNL     1     -11.706  12.625  65.247  1.00  0.00    -0.378 A  
HETATM   37  S   UNL     1     -11.318  12.086  63.670  1.00  0.00    -0.459 SA 
HETATM   38  H1  UNL     1      -8.765   9.537  63.938  1.00  0.00     0.000 HD 
HETATM   39  N   UNL     1      -9.436  10.196  63.544  1.00  0.00    -0.289 NA 
HETATM   40  N   UNL     1     -10.120  10.960  65.638  1.00  0.00    -0.250 NA 
HETATM   41  C   UNL     1     -10.188  10.978  64.332  1.00  0.00    -0.346 A  
ENDBRANCH  24  34
ENDBRANCH  23  24
ENDBRANCH   7  20
TORSDOF 7
ENDMDL
MODEL      117
REMARK 921   NORMALIZED FREE ENERGY PREDICTED BY IDOCK:   -5.08 KCAL/MOL
REMARK 922        TOTAL FREE ENERGY PREDICTED BY IDOCK:   -8.69 KCAL/MOL
REMARK 923 INTER-LIGAND FREE ENERGY PREDICTED BY IDOCK:   -7.37 KCAL/MOL
REMARK 924 INTRA-LIGAND FREE ENERGY PREDICTED BY IDOCK:   -1.32 KCAL/MOL
REMARK 927      BINDING AFFINITY PREDICTED BY RF-SCORE:    0.00 PKD
ROOT
HETATM    1  O   UNL     1     -10.494   8.055  73.067  1.00  0.00    -0.342 OA 
HETATM    2  C   UNL     1      -9.608   7.462  72.413  1.00  0.00    -0.153 C  
HETATM    3  CA  UNL     1      -9.450   7.865  70.881  1.00  0.00    -0.156 C  
HETATM    4  OXT UNL     1      -8.805   6.555  72.796  1.00  0.00    -0.125 OA 
HETATM    5  C   UNL     1      -8.326   7.522  70.202  1.00  0.00    -0.134 C  
HETATM    6  C   UNL     1      -8.017   7.873  68.770  1.00  0.00    -0.124 C  
HETATM    7  CA  UNL     1     -11.292  10.037  69.034  1.00  0.00    -0.084 C  
HETATM    8  S   UNL     1      -9.277   8.553  67.704  1.00  0.00    -0.134 SA 
HETATM    9  N   UNL     1     -10.376   8.638  70.243  1.00  0.00    -0.193 N  
HETATM   10  O   UNL     1     -11.499  10.296  71.551  1.00  0.00    -0.215 OA 
HETATM   11  C   UNL     1     -10.672   8.618  68.832  1.00  0.00    -0.082 C  
HETATM   12  C   UNL     1     -11.191   9.680  70.559  1.00  0.00    -0.297 C  
ENDROOT
BRANCH   5  13
HETATM   13  C   UNL     1      -7.155   6.797  70.841  1.00  0.00    -0.068 C  
BRANCH  13  14
HETATM   14  N   UNL     1      -6.853   5.423  70.334  1.00  0.00    -0.050 NA 
HETATM   15  C   UNL     1      -7.463   3.147  69.950  1.00  0.00    -0.044 A  
HETATM   16  C   UNL     1      -6.124   2.797  69.837  1.00  0.00    -0.024 A  
HETATM   17  C   UNL     1      -7.810   4.478  70.187  1.00  0.00    -0.060 A  
HETATM   18  C   UNL     1      -5.552   5.106  70.130  1.00  0.00    -0.015 A  
HETATM   19  C   UNL     1      -5.161   3.791  69.903  1.00  0.00    -0.004 A  
ENDBRANCH  13  14
ENDBRANCH   5  13
BRANCH   7  20
HETATM   20  N   UNL     1     -10.496  11.264  68.631  1.00  0.00    -0.196 N  
HETATM   21  H   UNL     1      -9.616  11.138  68.130  1.00  0.00     0.000 HD 
HETATM   22  O   UNL     1     -11.882  12.844  69.628  1.00  0.00    -0.311 OA 
HETATM   23  C   UNL     1     -10.923  12.548  68.922  1.00  0.00    -0.227 C  
BRANCH  23  24
HETATM   24  C   UNL     1     -10.172  13.713  68.316  1.00  0.00    -0.243 C  
BRANCH  24  25
HETATM   25  N   UNL     1     -10.609  14.513  67.384  1.00  0.00    -0.268 NA 
HETATM   26  H   UNL     1     -10.247  15.460  67.273  1.00  0.00     0.000 HD 
BRANCH  25  27
HETATM   27  O   UNL     1     -11.604  13.997  66.544  1.00  0.00    -0.341 OA 
HETATM   28  C   UNL     1     -12.629  14.043  64.387  1.00  0.00    -0.204 C  
HETATM   29  C   UNL     1     -10.165  13.683  64.625  1.00  0.00    -0.338 C  
HETATM   30  O   UNL     1     -10.567  16.605  66.001  1.00  0.00    -0.305 OA 
HETATM   31  O   UNL     1     -11.437  16.556  63.933  1.00  0.00    -1.145 OA 
HETATM   32  C   UNL     1     -11.377  14.440  65.187  1.00  0.00    -0.359 C  
HETATM   33  C   UNL     1     -11.156  15.961  64.966  1.00  0.00    -0.360 C  
ENDBRANCH  25  27
ENDBRANCH  24  25
BRANCH  24  34
HETATM   34  C   UNL     1      -8.777  13.927  68.716  1.00  0.00     0.006 A  
HETATM   35  H2  UNL     1      -5.369  16.200  69.895  1.00  0.00     0.000 HD 
HETATM   36  C   UNL     1      -7.762  12.992  68.608  1.00  0.00    -0.069 A  
HETATM   37  S   UNL     1      -6.269  13.686  69.075  1.00  0.00    -0.103 SA 
HETATM   38  H1  UNL     1      -6.853  17.147  69.954  1.00  0.00     0.000 HD 
HETATM   39  N   UNL     1      -6.380  16.262  69.773  1.00  0.00    -0.202 NA 
HETATM   40  N   UNL     1      -8.359  15.169  69.197  1.00  0.00    -0.211 NA 
HETATM   41  C   UNL     1      -7.063  15.176  69.379  1.00  0.00    -0.189 A  
ENDBRANCH  24  34
ENDBRANCH  23  24
ENDBRANCH   7  20
TORSDOF 7
ENDMDL
MODEL      118
REMARK 921   NORMALIZED FREE ENERGY PREDICTED BY IDOCK:   -5.05 KCAL/MOL
REMARK 922        TOTAL FREE ENERGY PREDICTED BY IDOCK:   -8.66 KCAL/MOL
REMARK 923 INTER-LIGAND FREE ENERGY PREDICTED BY IDOCK:   -7.65 KCAL/MOL
REMARK 924 INTRA-LIGAND FREE ENERGY PREDICTED BY IDOCK:   -1.02 KCAL/MOL
REMARK 927      BINDING AFFINITY PREDICTED BY RF-SCORE:    0.00 PKD
ROOT
HETATM    1  O   UNL     1     -11.060  16.939  65.403  1.00  0.00    -0.151 OA 
HETATM    2  C   UNL     1     -10.000  17.297  65.962  1.00  0.00    -0.233 C  
HETATM    3  CA  UNL     1      -9.574  16.509  67.277  1.00  0.00    -0.242 C  
HETATM    4  OXT UNL     1      -9.199  18.227  65.633  1.00  0.00    -0.295 OA 
HETATM    5  C   UNL     1      -8.305  16.606  67.747  1.00  0.00    -0.184 C  
HETATM    6  C   UNL     1      -7.748  15.885  68.946  1.00  0.00    -0.194 C  
HETATM    7  CA  UNL     1     -11.222  14.040  68.924  1.00  0.00    -0.272 C  
HETATM    8  S   UNL     1      -8.828  15.025  70.076  1.00  0.00     0.680 SA 
HETATM    9  N   UNL     1     -10.428  15.649  67.906  1.00  0.00    -0.260 N  
HETATM   10  O   UNL     1     -11.968  14.443  66.531  1.00  0.00    -0.404 OA 
HETATM   11  C   UNL     1     -10.424  15.324  69.310  1.00  0.00    -0.258 C  
HETATM   12  C   UNL     1     -11.399  14.768  67.544  1.00  0.00    -0.344 C  
ENDROOT
BRANCH   5  13
HETATM   13  C   UNL     1      -7.219  17.407  67.050  1.00  0.00    -0.182 C  
BRANCH  13  14
HETATM   14  N   UNL     1      -6.754  18.653  67.733  1.00  0.00    -0.211 NA 
HETATM   15  C   UNL     1      -6.543  21.028  67.847  1.00  0.00    -0.333 A  
HETATM   16  C   UNL     1      -5.491  20.902  68.744  1.00  0.00    -0.391 A  
HETATM   17  C   UNL     1      -7.175  19.884  67.360  1.00  0.00    -0.244 A  
HETATM   18  C   UNL     1      -5.794  18.524  68.680  1.00  0.00    -0.192 A  
HETATM   19  C   UNL     1      -5.129  19.638  69.183  1.00  0.00    -0.196 A  
ENDBRANCH  13  14
ENDBRANCH   5  13
BRANCH   7  20
HETATM   20  N   UNL     1     -10.498  12.709  68.833  1.00  0.00    -0.415 N  
HETATM   21  H   UNL     1      -9.501  12.675  69.049  1.00  0.00     0.000 HD 
HETATM   22  O   UNL     1     -12.297  11.457  68.056  1.00  0.00    -0.444 OA 
HETATM   23  C   UNL     1     -11.144  11.541  68.468  1.00  0.00    -0.236 C  
BRANCH  23  24
HETATM   24  C   UNL     1     -10.396  10.233  68.592  1.00  0.00    -0.184 C  
BRANCH  24  25
HETATM   25  N   UNL     1     -10.535   9.350  69.541  1.00  0.00    -0.210 NA 
HETATM   26  H   UNL     1     -10.767   9.618  70.498  1.00  0.00     0.000 HD 
BRANCH  25  27
HETATM   27  O   UNL     1     -10.349   8.013  69.171  1.00  0.00    -0.214 OA 
HETATM   28  C   UNL     1      -9.647   5.828  69.836  1.00  0.00    -0.201 C  
HETATM   29  C   UNL     1     -11.380   7.068  71.144  1.00  0.00    -0.319 C  
HETATM   30  O   UNL     1      -8.816   9.061  71.345  1.00  0.00    -0.242 OA 
HETATM   31  O   UNL     1      -8.284   6.987  72.014  1.00  0.00    -0.101 OA 
HETATM   32  C   UNL     1     -10.078   7.213  70.345  1.00  0.00    -0.191 C  
HETATM   33  C   UNL     1      -8.964   7.716  71.303  1.00  0.00    -0.133 C  
ENDBRANCH  25  27
ENDBRANCH  24  25
BRANCH  24  34
HETATM   34  C   UNL     1      -9.327   9.946  67.629  1.00  0.00    -0.140 A  
HETATM   35  H2  UNL     1      -7.675   8.940  63.830  1.00  0.00     0.000 HD 
HETATM   36  C   UNL     1      -8.006   9.693  67.953  1.00  0.00    -0.098 A  
HETATM   37  S   UNL     1      -7.120   9.292  66.545  1.00  0.00    -0.085 SA 
HETATM   38  H1  UNL     1      -9.386   9.340  63.725  1.00  0.00     0.000 HD 
HETATM   39  N   UNL     1      -8.540   9.233  64.284  1.00  0.00    -0.194 NA 
HETATM   40  N   UNL     1      -9.607   9.849  66.264  1.00  0.00    -0.194 NA 
HETATM   41  C   UNL     1      -8.543   9.471  65.605  1.00  0.00    -0.138 A  
ENDBRANCH  24  34
ENDBRANCH  23  24
ENDBRANCH   7  20
TORSDOF 7
ENDMDL
MODEL      119
REMARK 921   NORMALIZED FREE ENERGY PREDICTED BY IDOCK:   -5.05 KCAL/MOL
REMARK 922        TOTAL FREE ENERGY PREDICTED BY IDOCK:   -8.66 KCAL/MOL
REMARK 923 INTER-LIGAND FREE ENERGY PREDICTED BY IDOCK:   -7.51 KCAL/MOL
REMARK 924 INTRA-LIGAND FREE ENERGY PREDICTED BY IDOCK:   -1.15 KCAL/MOL
REMARK 927      BINDING AFFINITY PREDICTED BY RF-SCORE:    0.00 PKD
ROOT
HETATM    1  O   UNL     1     -11.014  19.113  67.584  1.00  0.00    -0.419 OA 
HETATM    2  C   UNL     1      -9.830  19.254  67.962  1.00  0.00    -0.365 C  
HETATM    3  CA  UNL     1      -9.070  17.948  68.459  1.00  0.00    -0.285 C  
HETATM    4  OXT UNL     1      -9.132  20.314  68.019  1.00  0.00    -0.245 OA 
HETATM    5  C   UNL     1      -7.717  17.950  68.569  1.00  0.00    -0.299 C  
HETATM    6  C   UNL     1      -6.862  16.780  68.980  1.00  0.00    -0.218 C  
HETATM    7  CA  UNL     1     -10.246  14.782  68.802  1.00  0.00    -0.239 C  
HETATM    8  S   UNL     1      -7.599  15.307  69.666  1.00  0.00    -0.103 SA 
HETATM    9  N   UNL     1      -9.732  16.777  68.693  1.00  0.00    -0.249 N  
HETATM   10  O   UNL     1     -11.630  16.306  67.316  1.00  0.00     0.189 OA 
HETATM   11  C   UNL     1      -9.338  15.750  69.624  1.00  0.00    -0.176 C  
HETATM   12  C   UNL     1     -10.788  16.107  68.157  1.00  0.00    -0.329 C  
ENDROOT
BRANCH   5  13
HETATM   13  C   UNL     1      -6.853  19.140  68.191  1.00  0.00    -0.248 C  
BRANCH  13  14
HETATM   14  N   UNL     1      -6.350  19.190  66.784  1.00  0.00    -0.186 NA 
HETATM   15  C   UNL     1      -6.499  19.959  64.529  1.00  0.00    -0.153 A  
HETATM   16  C   UNL     1      -5.704  18.903  64.105  1.00  0.00    -0.207 A  
HETATM   17  C   UNL     1      -6.802  20.094  65.884  1.00  0.00    -0.263 A  
HETATM   18  C   UNL     1      -5.496  18.214  66.392  1.00  0.00    -0.159 A  
HETATM   19  C   UNL     1      -5.177  18.036  65.050  1.00  0.00    -0.043 A  
ENDBRANCH  13  14
ENDBRANCH   5  13
BRANCH   7  20
HETATM   20  N   UNL     1      -9.612  13.825  67.809  1.00  0.00    -0.213 N  
HETATM   21  H   UNL     1      -8.993  14.200  67.090  1.00  0.00     0.000 HD 
HETATM   22  O   UNL     1     -10.662  11.892  68.565  1.00  0.00    -0.208 OA 
HETATM   23  C   UNL     1      -9.845  12.461  67.847  1.00  0.00    -0.202 C  
BRANCH  23  24
HETATM   24  C   UNL     1      -9.024  11.564  66.949  1.00  0.00    -0.179 C  
BRANCH  24  25
HETATM   25  N   UNL     1      -7.946  10.912  67.286  1.00  0.00    -0.120 NA 
HETATM   26  H   UNL     1      -7.743   9.981  66.921  1.00  0.00     0.000 HD 
BRANCH  25  27
HETATM   27  O   UNL     1      -7.084  11.563  68.176  1.00  0.00    -0.070 OA 
HETATM   28  C   UNL     1      -5.911  11.478  70.256  1.00  0.00    -0.158 C  
HETATM   29  C   UNL     1      -5.648   9.655  68.563  1.00  0.00    -0.039 C  
HETATM   30  O   UNL     1      -8.839   9.548  69.193  1.00  0.00    -0.135 OA 
HETATM   31  O   UNL     1      -7.635   9.406  71.081  1.00  0.00    -0.306 OA 
HETATM   32  C   UNL     1      -6.643  10.638  69.196  1.00  0.00    -0.061 C  
HETATM   33  C   UNL     1      -7.740   9.823  69.934  1.00  0.00    -0.157 C  
ENDBRANCH  25  27
ENDBRANCH  24  25
BRANCH  24  34
HETATM   34  C   UNL     1      -9.384  11.479  65.530  1.00  0.00    -0.185 A  
HETATM   35  H2  UNL     1     -11.872  11.986  62.105  1.00  0.00     0.000 HD 
HETATM   36  C   UNL     1      -8.712  10.732  64.578  1.00  0.00    -0.089 A  
HETATM   37  S   UNL     1      -9.528  10.818  63.077  1.00  0.00    -0.377 SA 
HETATM   38  H1  UNL     1     -12.481  12.864  63.506  1.00  0.00     0.000 HD 
HETATM   39  N   UNL     1     -11.774  12.262  63.083  1.00  0.00    -0.316 NA 
HETATM   40  N   UNL     1     -10.518  12.133  65.044  1.00  0.00    -0.280 NA 
HETATM   41  C   UNL     1     -10.718  11.828  63.787  1.00  0.00    -0.419 A  
ENDBRANCH  24  34
ENDBRANCH  23  24
ENDBRANCH   7  20
TORSDOF 7
ENDMDL
MODEL      120
REMARK 921   NORMALIZED FREE ENERGY PREDICTED BY IDOCK:   -5.03 KCAL/MOL
REMARK 922        TOTAL FREE ENERGY PREDICTED BY IDOCK:   -8.62 KCAL/MOL
REMARK 923 INTER-LIGAND FREE ENERGY PREDICTED BY IDOCK:   -7.01 KCAL/MOL
REMARK 924 INTRA-LIGAND FREE ENERGY PREDICTED BY IDOCK:   -1.61 KCAL/MOL
REMARK 927      BINDING AFFINITY PREDICTED BY RF-SCORE:    0.00 PKD
ROOT
HETATM    1  O   UNL     1     -12.318  11.417  70.714  1.00  0.00    -0.365 OA 
HETATM    2  C   UNL     1     -11.851  11.463  69.555  1.00  0.00    -0.357 C  
HETATM    3  CA  UNL     1     -10.607  10.521  69.239  1.00  0.00    -0.236 C  
HETATM    4  OXT UNL     1     -12.223  12.175  68.571  1.00  0.00    -0.293 OA 
HETATM    5  C   UNL     1     -10.257  10.266  67.953  1.00  0.00    -0.217 C  
HETATM    6  C   UNL     1      -9.139   9.363  67.504  1.00  0.00    -0.124 C  
HETATM    7  CA  UNL     1      -8.892   8.464  71.326  1.00  0.00    -0.167 C  
HETATM    8  S   UNL     1      -7.940   8.744  68.672  1.00  0.00    -0.108 SA 
HETATM    9  N   UNL     1      -9.928   9.873  70.231  1.00  0.00    -0.247 N  
HETATM   10  O   UNL     1     -11.190   9.175  72.139  1.00  0.00    -0.326 OA 
HETATM   11  C   UNL     1      -8.542   9.480  70.194  1.00  0.00    -0.224 C  
HETATM   12  C   UNL     1     -10.226   9.288  71.422  1.00  0.00    -0.301 C  
ENDROOT
BRANCH   5  13
HETATM   13  C   UNL     1     -11.027  10.802  66.759  1.00  0.00    -0.148 C  
BRANCH  13  14
HETATM   14  N   UNL     1     -10.545  12.088  66.167  1.00  0.00    -0.254 NA 
HETATM   15  C   UNL     1      -9.406  14.179  66.336  1.00  0.00    -0.254 A  
HETATM   16  C   UNL     1     -10.077  14.647  65.214  1.00  0.00    -0.393 A  
HETATM   17  C   UNL     1      -9.646  12.883  66.793  1.00  0.00    -0.246 A  
HETATM   18  C   UNL     1     -11.131  12.503  65.018  1.00  0.00    -0.299 A  
HETATM   19  C   UNL     1     -10.929  13.791  64.534  1.00  0.00    -0.399 A  
ENDBRANCH  13  14
ENDBRANCH   5  13
BRANCH   7  20
HETATM   20  N   UNL     1      -9.094   7.000  70.979  1.00  0.00    -0.151 N  
HETATM   21  H   UNL     1     -10.007   6.694  70.642  1.00  0.00     0.000 HD 
HETATM   22  O   UNL     1      -6.982   6.263  71.618  1.00  0.00    -0.072 OA 
HETATM   23  C   UNL     1      -8.079   6.066  71.105  1.00  0.00    -0.121 C  
BRANCH  23  24
HETATM   24  C   UNL     1      -8.307   4.677  70.554  1.00  0.00    -0.090 C  
BRANCH  24  25
HETATM   25  N   UNL     1      -8.529   4.366  69.308  1.00  0.00    -0.077 NA 
HETATM   26  H   UNL     1      -7.924   3.723  68.796  1.00  0.00     0.000 HD 
BRANCH  25  27
HETATM   27  O   UNL     1      -9.646   4.964  68.713  1.00  0.00    -0.136 OA 
HETATM   28  C   UNL     1     -10.603   5.902  66.735  1.00  0.00    -0.368 C  
HETATM   29  C   UNL     1      -9.615   3.605  66.712  1.00  0.00    -0.176 C  
HETATM   30  O   UNL     1      -7.067   5.437  67.574  1.00  0.00    -0.064 OA 
HETATM   31  O   UNL     1      -8.005   6.192  65.681  1.00  0.00    -0.102 OA 
HETATM   32  C   UNL     1      -9.465   5.023  67.280  1.00  0.00    -0.136 C  
HETATM   33  C   UNL     1      -8.131   5.626  66.759  1.00  0.00    -0.102 C  
ENDBRANCH  25  27
ENDBRANCH  24  25
BRANCH  24  34
HETATM   34  C   UNL     1      -8.397   3.558  71.499  1.00  0.00    -0.072 A  
HETATM   35  H2  UNL     1      -9.911   1.404  74.852  1.00  0.00     0.000 HD 
HETATM   36  C   UNL     1      -7.462   2.547  71.632  1.00  0.00    -0.040 A  
HETATM   37  S   UNL     1      -7.891   1.512  72.926  1.00  0.00    -0.040 SA 
HETATM   38  H1  UNL     1     -10.932   2.774  74.426  1.00  0.00     0.000 HD 
HETATM   39  N   UNL     1     -10.108   2.201  74.246  1.00  0.00    -0.105 NA 
HETATM   40  N   UNL     1      -9.456   3.477  72.406  1.00  0.00    -0.118 NA 
HETATM   41  C   UNL     1      -9.278   2.476  73.229  1.00  0.00    -0.084 A  
ENDBRANCH  24  34
ENDBRANCH  23  24
ENDBRANCH   7  20
TORSDOF 7
ENDMDL
MODEL      121
REMARK 921   NORMALIZED FREE ENERGY PREDICTED BY IDOCK:   -5.01 KCAL/MOL
REMARK 922        TOTAL FREE ENERGY PREDICTED BY IDOCK:   -8.60 KCAL/MOL
REMARK 923 INTER-LIGAND FREE ENERGY PREDICTED BY IDOCK:   -7.35 KCAL/MOL
REMARK 924 INTRA-LIGAND FREE ENERGY PREDICTED BY IDOCK:   -1.26 KCAL/MOL
REMARK 927      BINDING AFFINITY PREDICTED BY RF-SCORE:    0.00 PKD
ROOT
HETATM    1  O   UNL     1      -8.716   5.260  66.221  1.00  0.00    -0.117 OA 
HETATM    2  C   UNL     1      -9.157   5.164  67.388  1.00  0.00    -0.113 C  
HETATM    3  CA  UNL     1      -8.876   6.386  68.369  1.00  0.00    -0.119 C  
HETATM    4  OXT UNL     1      -9.801   4.208  67.922  1.00  0.00    -0.132 OA 
HETATM    5  C   UNL     1      -9.584   6.509  69.520  1.00  0.00    -0.152 C  
HETATM    6  C   UNL     1      -9.461   7.631  70.517  1.00  0.00    -0.164 C  
HETATM    7  CA  UNL     1      -7.090   9.218  67.809  1.00  0.00    -0.082 C  
HETATM    8  S   UNL     1      -8.115   8.798  70.418  1.00  0.00    -0.131 SA 
HETATM    9  N   UNL     1      -8.001   7.381  68.043  1.00  0.00    -0.118 N  
HETATM   10  O   UNL     1      -7.822   7.960  65.729  1.00  0.00    -0.093 OA 
HETATM   11  C   UNL     1      -7.247   8.186  68.971  1.00  0.00    -0.074 C  
HETATM   12  C   UNL     1      -7.617   8.039  66.916  1.00  0.00    -0.095 C  
ENDROOT
BRANCH   5  13
HETATM   13  C   UNL     1     -10.693   5.552  69.921  1.00  0.00    -0.288 C  
BRANCH  13  14
HETATM   14  N   UNL     1     -10.538   4.850  71.232  1.00  0.00    -0.092 NA 
HETATM   15  C   UNL     1      -9.996   2.917  72.524  1.00  0.00    -0.229 A  
HETATM   16  C   UNL     1     -10.711   3.424  73.601  1.00  0.00    -0.302 A  
HETATM   17  C   UNL     1      -9.909   3.656  71.344  1.00  0.00    -0.149 A  
HETATM   18  C   UNL     1     -11.155   5.393  72.308  1.00  0.00    -0.196 A  
HETATM   19  C   UNL     1     -11.276   4.686  73.499  1.00  0.00    -0.400 A  
ENDBRANCH  13  14
ENDBRANCH   5  13
BRANCH   7  20
HETATM   20  N   UNL     1      -7.971  10.454  67.785  1.00  0.00    -0.102 N  
HETATM   21  H   UNL     1      -8.604  10.624  68.566  1.00  0.00     0.000 HD 
HETATM   22  O   UNL     1      -7.336  11.215  65.680  1.00  0.00     0.065 OA 
HETATM   23  C   UNL     1      -7.943  11.358  66.737  1.00  0.00    -0.160 C  
BRANCH  23  24
HETATM   24  C   UNL     1      -8.705  12.656  66.884  1.00  0.00    -0.175 C  
BRANCH  24  25
HETATM   25  N   UNL     1      -9.977  12.835  66.658  1.00  0.00    -0.239 NA 
HETATM   26  H   UNL     1     -10.598  13.237  67.360  1.00  0.00     0.000 HD 
BRANCH  25  27
HETATM   27  O   UNL     1     -10.440  12.444  65.396  1.00  0.00    -0.264 OA 
HETATM   28  C   UNL     1     -12.072  12.745  63.677  1.00  0.00    -0.624 C  
HETATM   29  C   UNL     1     -10.757  14.687  64.547  1.00  0.00    -0.156 C  
HETATM   30  O   UNL     1     -12.284  13.642  67.223  1.00  0.00    -0.366 OA 
HETATM   31  O   UNL     1     -13.738  14.023  65.557  1.00  0.00    -0.415 OA 
HETATM   32  C   UNL     1     -11.448  13.373  64.935  1.00  0.00    -0.325 C  
HETATM   33  C   UNL     1     -12.612  13.696  65.911  1.00  0.00    -0.425 C  
ENDBRANCH  25  27
ENDBRANCH  24  25
BRANCH  24  34
HETATM   34  C   UNL     1      -7.954  13.873  67.209  1.00  0.00    -0.129 A  
HETATM   35  H2  UNL     1      -7.062  18.041  67.116  1.00  0.00     0.000 HD 
HETATM   36  C   UNL     1      -6.695  13.906  67.783  1.00  0.00    -0.176 A  
HETATM   37  S   UNL     1      -6.135  15.520  67.884  1.00  0.00    -0.154 SA 
HETATM   38  H1  UNL     1      -8.653  17.687  66.450  1.00  0.00     0.000 HD 
HETATM   39  N   UNL     1      -7.788  17.363  66.883  1.00  0.00    -0.211 NA 
HETATM   40  N   UNL     1      -8.466  15.132  66.887  1.00  0.00    -0.234 NA 
HETATM   41  C   UNL     1      -7.589  16.065  67.154  1.00  0.00    -0.211 A  
ENDBRANCH  24  34
ENDBRANCH  23  24
ENDBRANCH   7  20
TORSDOF 7
ENDMDL
MODEL      122
REMARK 921   NORMALIZED FREE ENERGY PREDICTED BY IDOCK:   -5.01 KCAL/MOL
REMARK 922        TOTAL FREE ENERGY PREDICTED BY IDOCK:   -8.59 KCAL/MOL
REMARK 923 INTER-LIGAND FREE ENERGY PREDICTED BY IDOCK:   -7.42 KCAL/MOL
REMARK 924 INTRA-LIGAND FREE ENERGY PREDICTED BY IDOCK:   -1.17 KCAL/MOL
REMARK 927      BINDING AFFINITY PREDICTED BY RF-SCORE:    0.00 PKD
ROOT
HETATM    1  O   UNL     1     -10.802  19.838  67.908  1.00  0.00    -0.327 OA 
HETATM    2  C   UNL     1      -9.569  20.010  68.031  1.00  0.00    -0.342 C  
HETATM    3  CA  UNL     1      -8.690  18.724  68.361  1.00  0.00    -0.337 C  
HETATM    4  OXT UNL     1      -8.900  21.086  67.941  1.00  0.00     0.128 OA 
HETATM    5  C   UNL     1      -7.345  18.759  68.186  1.00  0.00    -0.281 C  
HETATM    6  C   UNL     1      -6.395  17.612  68.411  1.00  0.00    -0.187 C  
HETATM    7  CA  UNL     1      -9.693  15.534  68.943  1.00  0.00    -0.223 C  
HETATM    8  S   UNL     1      -6.937  16.126  69.237  1.00  0.00    -0.211 SA 
HETATM    9  N   UNL     1      -9.261  17.540  68.728  1.00  0.00    -0.261 N  
HETATM   10  O   UNL     1     -11.392  17.016  67.776  1.00  0.00    -0.082 OA 
HETATM   11  C   UNL     1      -8.657  16.528  69.557  1.00  0.00     0.270 C  
HETATM   12  C   UNL     1     -10.388  16.842  68.424  1.00  0.00    -0.338 C  
ENDROOT
BRANCH   5  13
HETATM   13  C   UNL     1      -6.607  19.967  67.636  1.00  0.00    -0.228 C  
BRANCH  13  14
HETATM   14  N   UNL     1      -6.150  19.889  66.214  1.00  0.00    -0.171 NA 
HETATM   15  C   UNL     1      -6.286  20.563  63.928  1.00  0.00    -0.280 A  
HETATM   16  C   UNL     1      -5.634  19.401  63.537  1.00  0.00    -0.354 A  
HETATM   17  C   UNL     1      -6.524  20.797  65.283  1.00  0.00    -0.212 A  
HETATM   18  C   UNL     1      -5.431  18.801  65.849  1.00  0.00    -0.160 A  
HETATM   19  C   UNL     1      -5.181  18.523  64.509  1.00  0.00    -0.157 A  
ENDBRANCH  13  14
ENDBRANCH   5  13
BRANCH   7  20
HETATM   20  N   UNL     1      -9.256  14.587  67.841  1.00  0.00    -0.191 N  
HETATM   21  H   UNL     1      -8.555  14.902  67.169  1.00  0.00     0.000 HD 
HETATM   22  O   UNL     1     -10.712  12.849  68.363  1.00  0.00    -0.240 OA 
HETATM   23  C   UNL     1      -9.776  13.310  67.716  1.00  0.00    -0.217 C  
BRANCH  23  24
HETATM   24  C   UNL     1      -9.146  12.369  66.714  1.00  0.00    -0.212 C  
BRANCH  24  25
HETATM   25  N   UNL     1      -9.550  12.158  65.493  1.00  0.00    -0.390 NA 
HETATM   26  H   UNL     1      -8.939  12.310  64.689  1.00  0.00     0.000 HD 
BRANCH  25  27
HETATM   27  O   UNL     1     -10.868  11.712  65.347  1.00  0.00    -0.284 OA 
HETATM   28  C   UNL     1     -12.993  12.041  64.306  1.00  0.00    -0.095 C  
HETATM   29  C   UNL     1     -10.911  11.858  62.933  1.00  0.00     0.128 C  
HETATM   30  O   UNL     1     -10.279  14.453  64.791  1.00  0.00    -0.404 OA 
HETATM   31  O   UNL     1     -12.230  14.687  63.708  1.00  0.00    -0.581 OA 
HETATM   32  C   UNL     1     -11.499  12.399  64.243  1.00  0.00    -0.363 C  
HETATM   33  C   UNL     1     -11.401  13.949  64.225  1.00  0.00    -0.294 C  
ENDBRANCH  25  27
ENDBRANCH  24  25
BRANCH  24  34
HETATM   34  C   UNL     1      -8.037  11.517  67.158  1.00  0.00    -0.159 A  
HETATM   35  H2  UNL     1      -4.673  10.430  69.540  1.00  0.00     0.000 HD 
HETATM   36  C   UNL     1      -7.541  10.426  66.466  1.00  0.00    -0.118 A  
HETATM   37  S   UNL     1      -6.175   9.787  67.275  1.00  0.00    -0.068 SA 
HETATM   38  H1  UNL     1      -5.537  11.814  70.203  1.00  0.00     0.000 HD 
HETATM   39  N   UNL     1      -5.447  11.093  69.487  1.00  0.00    -0.044 NA 
HETATM   40  N   UNL     1      -7.344  11.808  68.335  1.00  0.00    -0.087 NA 
HETATM   41  C   UNL     1      -6.326  10.999  68.478  1.00  0.00    -0.049 A  
ENDBRANCH  24  34
ENDBRANCH  23  24
ENDBRANCH   7  20
TORSDOF 7
ENDMDL
MODEL      123
REMARK 921   NORMALIZED FREE ENERGY PREDICTED BY IDOCK:   -4.99 KCAL/MOL
REMARK 922        TOTAL FREE ENERGY PREDICTED BY IDOCK:   -8.57 KCAL/MOL
REMARK 923 INTER-LIGAND FREE ENERGY PREDICTED BY IDOCK:   -7.35 KCAL/MOL
REMARK 924 INTRA-LIGAND FREE ENERGY PREDICTED BY IDOCK:   -1.22 KCAL/MOL
REMARK 927      BINDING AFFINITY PREDICTED BY RF-SCORE:    0.00 PKD
ROOT
HETATM    1  O   UNL     1     -11.212  17.206  70.004  1.00  0.00     0.272 OA 
HETATM    2  C   UNL     1     -10.337  17.762  69.304  1.00  0.00    -0.065 C  
HETATM    3  CA  UNL     1      -9.262  16.818  68.607  1.00  0.00    -0.257 C  
HETATM    4  OXT UNL     1     -10.170  18.999  69.070  1.00  0.00    -0.353 OA 
HETATM    5  C   UNL     1      -8.499  17.293  67.590  1.00  0.00    -0.212 C  
HETATM    6  C   UNL     1      -7.479  16.507  66.809  1.00  0.00    -0.246 C  
HETATM    7  CA  UNL     1      -8.879  13.454  68.857  1.00  0.00     0.257 C  
HETATM    8  S   UNL     1      -6.951  14.894  67.360  1.00  0.00    -0.030 SA 
HETATM    9  N   UNL     1      -9.143  15.499  68.938  1.00  0.00    -0.202 N  
HETATM   10  O   UNL     1     -11.142  14.352  69.577  1.00  0.00    -0.251 OA 
HETATM   11  C   UNL     1      -7.944  14.705  68.843  1.00  0.00    -0.149 C  
HETATM   12  C   UNL     1      -9.974  14.487  69.306  1.00  0.00    -0.038 C  
ENDROOT
BRANCH   5  13
HETATM   13  C   UNL     1      -8.643  18.695  67.025  1.00  0.00    -0.276 C  
BRANCH  13  14
HETATM   14  N   UNL     1      -7.395  19.510  66.912  1.00  0.00    -0.217 NA 
HETATM   15  C   UNL     1      -5.766  20.992  67.833  1.00  0.00    -0.375 A  
HETATM   16  C   UNL     1      -5.374  21.371  66.557  1.00  0.00    -0.317 A  
HETATM   17  C   UNL     1      -6.776  20.043  67.991  1.00  0.00    -0.279 A  
HETATM   18  C   UNL     1      -6.953  19.803  65.665  1.00  0.00    -0.306 A  
HETATM   19  C   UNL     1      -5.957  20.752  65.462  1.00  0.00    -0.270 A  
ENDBRANCH  13  14
ENDBRANCH   5  13
BRANCH   7  20
HETATM   20  N   UNL     1      -9.195  12.744  67.554  1.00  0.00    -0.183 N  
HETATM   21  H   UNL     1      -9.936  13.114  66.958  1.00  0.00     0.000 HD 
HETATM   22  O   UNL     1      -7.698  10.983  67.818  1.00  0.00    -0.104 OA 
HETATM   23  C   UNL     1      -8.512  11.611  67.147  1.00  0.00    -0.162 C  
BRANCH  23  24
HETATM   24  C   UNL     1      -8.757  11.084  65.751  1.00  0.00    -0.174 C  
BRANCH  24  25
HETATM   25  N   UNL     1      -9.547  11.606  64.856  1.00  0.00    -0.370 NA 
HETATM   26  H   UNL     1      -9.864  11.078  64.042  1.00  0.00     0.000 HD 
BRANCH  25  27
HETATM   27  O   UNL     1      -9.936  12.933  65.074  1.00  0.00    -0.237 OA 
HETATM   28  C   UNL     1     -11.675  14.564  64.925  1.00  0.00    -0.402 C  
HETATM   29  C   UNL     1     -12.050  12.399  66.120  1.00  0.00    -0.295 C  
HETATM   30  O   UNL     1     -11.334  11.401  63.107  1.00  0.00    -0.176 OA 
HETATM   31  O   UNL     1     -13.010  12.893  63.090  1.00  0.00    -0.415 OA 
HETATM   32  C   UNL     1     -11.367  13.057  64.914  1.00  0.00    -0.303 C  
HETATM   33  C   UNL     1     -11.987  12.473  63.615  1.00  0.00    -0.537 C  
ENDBRANCH  25  27
ENDBRANCH  24  25
BRANCH  24  34
HETATM   34  C   UNL     1      -8.144   9.807  65.370  1.00  0.00    -0.127 A  
HETATM   35  H2  UNL     1      -5.556   7.231  63.170  1.00  0.00     0.000 HD 
HETATM   36  C   UNL     1      -8.607   8.556  65.740  1.00  0.00    -0.168 A  
HETATM   37  S   UNL     1      -7.674   7.335  64.987  1.00  0.00    -0.121 SA 
HETATM   38  H1  UNL     1      -5.182   8.932  62.907  1.00  0.00     0.000 HD 
HETATM   39  N   UNL     1      -5.745   8.215  63.364  1.00  0.00    -0.065 NA 
HETATM   40  N   UNL     1      -7.036   9.775  64.520  1.00  0.00    -0.122 NA 
HETATM   41  C   UNL     1      -6.728   8.541  64.217  1.00  0.00    -0.071 A  
ENDBRANCH  24  34
ENDBRANCH  23  24
ENDBRANCH   7  20
TORSDOF 7
ENDMDL
MODEL      124
REMARK 921   NORMALIZED FREE ENERGY PREDICTED BY IDOCK:   -4.92 KCAL/MOL
REMARK 922        TOTAL FREE ENERGY PREDICTED BY IDOCK:   -8.48 KCAL/MOL
REMARK 923 INTER-LIGAND FREE ENERGY PREDICTED BY IDOCK:   -6.75 KCAL/MOL
REMARK 924 INTRA-LIGAND FREE ENERGY PREDICTED BY IDOCK:   -1.73 KCAL/MOL
REMARK 927      BINDING AFFINITY PREDICTED BY RF-SCORE:    0.00 PKD
ROOT
HETATM    1  O   UNL     1      -7.594   5.938  73.999  1.00  0.00    -0.092 OA 
HETATM    2  C   UNL     1      -8.150   5.102  73.253  1.00  0.00    -0.111 C  
HETATM    3  CA  UNL     1      -9.276   5.647  72.270  1.00  0.00    -0.145 C  
HETATM    4  OXT UNL     1      -7.953   3.850  73.171  1.00  0.00    -0.084 OA 
HETATM    5  C   UNL     1      -9.687   4.890  71.221  1.00  0.00    -0.241 C  
HETATM    6  C   UNL     1     -10.704   5.292  70.186  1.00  0.00    -0.147 C  
HETATM    7  CA  UNL     1     -10.535   8.787  71.983  1.00  0.00    -0.344 C  
HETATM    8  S   UNL     1     -11.716   6.743  70.415  1.00  0.00    -0.321 SA 
HETATM    9  N   UNL     1      -9.784   6.909  72.390  1.00  0.00    -0.154 N  
HETATM   10  O   UNL     1      -8.298   8.612  73.171  1.00  0.00    -0.405 OA 
HETATM   11  C   UNL     1     -11.104   7.333  71.996  1.00  0.00    -0.244 C  
HETATM   12  C   UNL     1      -9.321   8.139  72.739  1.00  0.00    -0.274 C  
ENDROOT
BRANCH   5  13
HETATM   13  C   UNL     1      -9.089   3.535  70.889  1.00  0.00    -0.112 C  
BRANCH  13  14
HETATM   14  N   UNL     1      -8.550   3.354  69.506  1.00  0.00    -0.061 NA 
HETATM   15  C   UNL     1      -8.448   2.178  67.431  1.00  0.00    -0.099 A  
HETATM   16  C   UNL     1      -7.214   2.751  67.155  1.00  0.00    -0.053 A  
HETATM   17  C   UNL     1      -9.111   2.504  68.614  1.00  0.00    -0.146 A  
HETATM   18  C   UNL     1      -7.393   3.990  69.199  1.00  0.00    -0.054 A  
HETATM   19  C   UNL     1      -6.693   3.685  68.037  1.00  0.00    -0.046 A  
ENDBRANCH  13  14
ENDBRANCH   5  13
BRANCH   7  20
HETATM   20  N   UNL     1     -10.166   9.433  70.660  1.00  0.00    -0.267 N  
HETATM   21  H   UNL     1      -9.239   9.262  70.270  1.00  0.00     0.000 HD 
HETATM   22  O   UNL     1     -12.133  10.642  70.375  1.00  0.00    -0.285 OA 
HETATM   23  C   UNL     1     -11.046  10.245  69.966  1.00  0.00    -0.311 C  
BRANCH  23  24
HETATM   24  C   UNL     1     -10.671  10.686  68.569  1.00  0.00    -0.217 C  
BRANCH  24  25
HETATM   25  N   UNL     1     -10.170   9.933  67.630  1.00  0.00    -0.194 NA 
HETATM   26  H   UNL     1     -10.637   9.084  67.312  1.00  0.00     0.000 HD 
BRANCH  25  27
HETATM   27  O   UNL     1      -8.954  10.359  67.082  1.00  0.00    -0.139 OA 
HETATM   28  C   UNL     1      -7.417  10.216  65.258  1.00  0.00    -0.145 C  
HETATM   29  C   UNL     1      -9.821  10.784  64.864  1.00  0.00    -0.350 C  
HETATM   30  O   UNL     1     -10.029   7.845  66.247  1.00  0.00    -0.166 OA 
HETATM   31  O   UNL     1      -8.657   7.810  64.472  1.00  0.00     0.034 OA 
HETATM   32  C   UNL     1      -8.861   9.931  65.704  1.00  0.00    -0.158 C  
HETATM   33  C   UNL     1      -9.143   8.432  65.408  1.00  0.00     0.010 C  
ENDBRANCH  25  27
ENDBRANCH  24  25
BRANCH  24  34
HETATM   34  C   UNL     1     -10.768  12.112  68.237  1.00  0.00    -0.223 A  
HETATM   35  H2  UNL     1     -10.154  16.292  68.800  1.00  0.00     0.000 HD 
HETATM   36  C   UNL     1     -11.599  12.653  67.272  1.00  0.00    -0.364 A  
HETATM   37  S   UNL     1     -11.489  14.360  67.289  1.00  0.00    -0.375 SA 
HETATM   38  H1  UNL     1      -9.185  15.323  69.907  1.00  0.00     0.000 HD 
HETATM   39  N   UNL     1      -9.858  15.377  69.142  1.00  0.00    -0.231 NA 
HETATM   40  N   UNL     1     -10.035  13.060  68.953  1.00  0.00     0.011 NA 
HETATM   41  C   UNL     1     -10.359  14.269  68.576  1.00  0.00    -0.244 A  
ENDBRANCH  24  34
ENDBRANCH  23  24
ENDBRANCH   7  20
TORSDOF 7
ENDMDL
MODEL      125
REMARK 921   NORMALIZED FREE ENERGY PREDICTED BY IDOCK:   -4.88 KCAL/MOL
REMARK 922        TOTAL FREE ENERGY PREDICTED BY IDOCK:   -8.41 KCAL/MOL
REMARK 923 INTER-LIGAND FREE ENERGY PREDICTED BY IDOCK:   -7.33 KCAL/MOL
REMARK 924 INTRA-LIGAND FREE ENERGY PREDICTED BY IDOCK:   -1.08 KCAL/MOL
REMARK 927      BINDING AFFINITY PREDICTED BY RF-SCORE:    0.00 PKD
ROOT
HETATM    1  O   UNL     1     -13.539  11.200  72.292  1.00  0.00    -0.244 OA 
HETATM    2  C   UNL     1     -13.160  10.161  71.706  1.00  0.00    -0.463 C  
HETATM    3  CA  UNL     1     -12.324  10.351  70.366  1.00  0.00    -0.286 C  
HETATM    4  OXT UNL     1     -13.359   8.947  72.025  1.00  0.00    -0.361 OA 
HETATM    5  C   UNL     1     -11.608   9.315  69.859  1.00  0.00     0.076 C  
HETATM    6  C   UNL     1     -10.737   9.361  68.631  1.00  0.00    -0.160 C  
HETATM    7  CA  UNL     1     -11.516  13.215  68.731  1.00  0.00    -0.307 C  
HETATM    8  S   UNL     1     -10.794  10.756  67.521  1.00  0.00    -0.303 SA 
HETATM    9  N   UNL     1     -12.222  11.565  69.750  1.00  0.00    -0.272 N  
HETATM   10  O   UNL     1     -12.224  13.502  71.152  1.00  0.00    -0.330 OA 
HETATM   11  C   UNL     1     -12.014  11.787  68.341  1.00  0.00    -0.183 C  
HETATM   12  C   UNL     1     -12.146  12.870  70.127  1.00  0.00    -0.302 C  
ENDROOT
BRANCH   5  13
HETATM   13  C   UNL     1     -11.514   7.959  70.535  1.00  0.00    -0.195 C  
BRANCH  13  14
HETATM   14  N   UNL     1     -10.497   7.814  71.620  1.00  0.00    -0.200 NA 
HETATM   15  C   UNL     1      -9.904   7.449  73.904  1.00  0.00    -0.275 A  
HETATM   16  C   UNL     1      -8.658   8.021  73.682  1.00  0.00    -0.322 A  
HETATM   17  C   UNL     1     -10.811   7.342  72.850  1.00  0.00    -0.337 A  
HETATM   18  C   UNL     1      -9.251   8.285  71.374  1.00  0.00    -0.169 A  
HETATM   19  C   UNL     1      -8.320   8.420  72.399  1.00  0.00    -0.219 A  
ENDBRANCH  13  14
ENDBRANCH   5  13
BRANCH   7  20
HETATM   20  N   UNL     1     -10.026  13.500  68.778  1.00  0.00    -0.406 N  
HETATM   21  H   UNL     1      -9.528  13.374  69.659  1.00  0.00     0.000 HD 
HETATM   22  O   UNL     1      -9.809  14.242  66.584  1.00  0.00    -0.262 OA 
HETATM   23  C   UNL     1      -9.322  13.924  67.664  1.00  0.00    -0.205 C  
BRANCH  23  24
HETATM   24  C   UNL     1      -7.814  13.995  67.749  1.00  0.00    -0.171 C  
BRANCH  24  25
HETATM   25  N   UNL     1      -7.080  15.062  67.596  1.00  0.00    -0.168 NA 
HETATM   26  H   UNL     1      -6.966  15.512  66.687  1.00  0.00     0.000 HD 
BRANCH  25  27
HETATM   27  O   UNL     1      -6.459  15.555  68.749  1.00  0.00    -0.103 OA 
HETATM   28  C   UNL     1      -5.922  17.468  70.076  1.00  0.00    -0.188 C  
HETATM   29  C   UNL     1      -8.287  16.993  69.415  1.00  0.00     0.289 C  
HETATM   30  O   UNL     1      -6.821  17.317  66.528  1.00  0.00    -0.206 OA 
HETATM   31  O   UNL     1      -6.437  19.099  67.836  1.00  0.00    -0.221 OA 
HETATM   32  C   UNL     1      -6.825  16.939  68.950  1.00  0.00    -0.209 C  
HETATM   33  C   UNL     1      -6.656  17.898  67.739  1.00  0.00    -0.189 C  
ENDBRANCH  25  27
ENDBRANCH  24  25
BRANCH  24  34
HETATM   34  C   UNL     1      -7.064  12.745  67.914  1.00  0.00    -0.118 A  
HETATM   35  H2  UNL     1      -5.050   9.212  66.634  1.00  0.00     0.000 HD 
HETATM   36  C   UNL     1      -6.896  12.066  69.109  1.00  0.00    -0.090 A  
HETATM   37  S   UNL     1      -6.059  10.597  68.840  1.00  0.00    -0.040 SA 
HETATM   38  H1  UNL     1      -5.389  10.307  65.296  1.00  0.00     0.000 HD 
HETATM   39  N   UNL     1      -5.433  10.095  66.293  1.00  0.00    -0.048 NA 
HETATM   40  N   UNL     1      -6.499  12.103  66.810  1.00  0.00    -0.075 NA 
HETATM   41  C   UNL     1      -5.985  10.953  67.163  1.00  0.00    -0.066 A  
ENDBRANCH  24  34
ENDBRANCH  23  24
ENDBRANCH   7  20
TORSDOF 7
ENDMDL
MODEL      126
REMARK 921   NORMALIZED FREE ENERGY PREDICTED BY IDOCK:   -4.87 KCAL/MOL
REMARK 922        TOTAL FREE ENERGY PREDICTED BY IDOCK:   -8.40 KCAL/MOL
REMARK 923 INTER-LIGAND FREE ENERGY PREDICTED BY IDOCK:   -7.49 KCAL/MOL
REMARK 924 INTRA-LIGAND FREE ENERGY PREDICTED BY IDOCK:   -0.92 KCAL/MOL
REMARK 927      BINDING AFFINITY PREDICTED BY RF-SCORE:    0.00 PKD
ROOT
HETATM    1  O   UNL     1     -11.889  14.266  63.613  1.00  0.00    -0.180 OA 
HETATM    2  C   UNL     1     -11.608  15.174  64.426  1.00  0.00    -0.271 C  
HETATM    3  CA  UNL     1     -11.383  14.742  65.941  1.00  0.00    -0.331 C  
HETATM    4  OXT UNL     1     -11.484  16.421  64.219  1.00  0.00    -0.876 OA 
HETATM    5  C   UNL     1     -10.765  15.588  66.804  1.00  0.00    -0.305 C  
HETATM    6  C   UNL     1     -10.442  15.299  68.247  1.00  0.00    -0.244 C  
HETATM    7  CA  UNL     1     -11.703  11.678  67.367  1.00  0.00    -0.201 C  
HETATM    8  S   UNL     1     -11.129  13.871  69.067  1.00  0.00    -0.262 SA 
HETATM    9  N   UNL     1     -11.709  13.494  66.388  1.00  0.00    -0.351 N  
HETATM   10  O   UNL     1     -11.474  11.687  64.839  1.00  0.00    -0.244 OA 
HETATM   11  C   UNL     1     -12.088  13.146  67.734  1.00  0.00    -0.215 C  
HETATM   12  C   UNL     1     -11.695  12.226  65.896  1.00  0.00    -0.389 C  
ENDROOT
BRANCH   5  13
HETATM   13  C   UNL     1     -10.216  16.942  66.392  1.00  0.00    -0.321 C  
BRANCH  13  14
HETATM   14  N   UNL     1      -8.747  17.159  66.569  1.00  0.00    -0.245 NA 
HETATM   15  C   UNL     1      -6.625  17.902  65.766  1.00  0.00    -0.264 A  
HETATM   16  C   UNL     1      -5.981  17.117  66.713  1.00  0.00    -0.235 A  
HETATM   17  C   UNL     1      -8.019  17.920  65.718  1.00  0.00     0.124 A  
HETATM   18  C   UNL     1      -8.129  16.466  67.555  1.00  0.00    -0.148 A  
HETATM   19  C   UNL     1      -6.741  16.411  67.632  1.00  0.00    -0.161 A  
ENDBRANCH  13  14
ENDBRANCH   5  13
BRANCH   7  20
HETATM   20  N   UNL     1     -10.369  11.118  67.826  1.00  0.00    -0.181 N  
HETATM   21  H   UNL     1      -9.696  11.747  68.266  1.00  0.00     0.000 HD 
HETATM   22  O   UNL     1     -10.685   8.950  67.044  1.00  0.00    -0.248 OA 
HETATM   23  C   UNL     1     -10.036   9.784  67.669  1.00  0.00    -0.174 C  
BRANCH  23  24
HETATM   24  C   UNL     1      -8.774   9.274  68.327  1.00  0.00    -0.129 C  
BRANCH  24  25
HETATM   25  N   UNL     1      -7.586   9.804  68.237  1.00  0.00    -0.081 NA 
HETATM   26  H   UNL     1      -6.746   9.293  68.507  1.00  0.00     0.000 HD 
BRANCH  25  27
HETATM   27  O   UNL     1      -7.532  11.115  67.750  1.00  0.00    -0.090 OA 
HETATM   28  C   UNL     1      -6.389  13.213  67.762  1.00  0.00    -0.156 C  
HETATM   29  C   UNL     1      -5.165  11.092  67.253  1.00  0.00    -0.048 C  
HETATM   30  O   UNL     1      -6.287  10.531  70.256  1.00  0.00    -0.112 OA 
HETATM   31  O   UNL     1      -5.133  12.454  70.168  1.00  0.00    -0.080 OA 
HETATM   32  C   UNL     1      -6.270  11.720  68.112  1.00  0.00    -0.050 C  
HETATM   33  C   UNL     1      -5.846  11.633  69.604  1.00  0.00    -0.091 C  
ENDBRANCH  25  27
ENDBRANCH  24  25
BRANCH  24  34
HETATM   34  C   UNL     1      -8.834   8.003  69.059  1.00  0.00    -0.145 A  
HETATM   35  H2  UNL     1      -9.967   5.379  72.222  1.00  0.00     0.000 HD 
HETATM   36  C   UNL     1      -8.032   6.902  68.814  1.00  0.00    -0.120 A  
HETATM   37  S   UNL     1      -8.346   5.677  69.967  1.00  0.00    -0.123 SA 
HETATM   38  H1  UNL     1     -10.860   6.897  72.265  1.00  0.00     0.000 HD 
HETATM   39  N   UNL     1     -10.166   6.296  71.820  1.00  0.00    -0.194 NA 
HETATM   40  N   UNL     1      -9.706   7.844  70.138  1.00  0.00    -0.179 NA 
HETATM   41  C   UNL     1      -9.512   6.687  70.716  1.00  0.00    -0.168 A  
ENDBRANCH  24  34
ENDBRANCH  23  24
ENDBRANCH   7  20
TORSDOF 7
ENDMDL
MODEL      127
REMARK 921   NORMALIZED FREE ENERGY PREDICTED BY IDOCK:   -4.87 KCAL/MOL
REMARK 922        TOTAL FREE ENERGY PREDICTED BY IDOCK:   -8.40 KCAL/MOL
REMARK 923 INTER-LIGAND FREE ENERGY PREDICTED BY IDOCK:   -8.26 KCAL/MOL
REMARK 924 INTRA-LIGAND FREE ENERGY PREDICTED BY IDOCK:   -0.14 KCAL/MOL
REMARK 927      BINDING AFFINITY PREDICTED BY RF-SCORE:    0.00 PKD
ROOT
HETATM    1  O   UNL     1      -5.338   8.206  68.807  1.00  0.00    -0.029 OA 
HETATM    2  C   UNL     1      -6.077   7.493  68.092  1.00  0.00    -0.036 C  
HETATM    3  CA  UNL     1      -7.613   7.409  68.500  1.00  0.00    -0.114 C  
HETATM    4  OXT UNL     1      -5.773   6.801  67.071  1.00  0.00    -0.013 OA 
HETATM    5  C   UNL     1      -8.526   6.940  67.612  1.00  0.00    -0.122 C  
HETATM    6  C   UNL     1     -10.012   6.847  67.840  1.00  0.00    -0.147 C  
HETATM    7  CA  UNL     1      -9.202   8.783  71.167  1.00  0.00    -0.237 C  
HETATM    8  S   UNL     1     -10.704   7.084  69.467  1.00  0.00    -0.238 SA 
HETATM    9  N   UNL     1      -8.066   7.888  69.696  1.00  0.00    -0.115 N  
HETATM   10  O   UNL     1      -6.946   9.799  70.597  1.00  0.00    -0.155 OA 
HETATM   11  C   UNL     1      -9.218   7.412  70.419  1.00  0.00    -0.158 C  
HETATM   12  C   UNL     1      -7.776   8.925  70.526  1.00  0.00    -0.104 C  
ENDROOT
BRANCH   5  13
HETATM   13  C   UNL     1      -8.172   6.521  66.197  1.00  0.00    -0.123 C  
BRANCH  13  14
HETATM   14  N   UNL     1      -8.346   5.076  65.855  1.00  0.00    -0.114 NA 
HETATM   15  C   UNL     1      -9.442   3.319  64.668  1.00  0.00    -0.149 A  
HETATM   16  C   UNL     1      -8.978   2.392  65.591  1.00  0.00    -0.121 A  
HETATM   17  C   UNL     1      -9.102   4.664  64.810  1.00  0.00    -0.149 A  
HETATM   18  C   UNL     1      -7.812   4.166  66.705  1.00  0.00    -0.097 A  
HETATM   19  C   UNL     1      -8.135   2.817  66.606  1.00  0.00    -0.082 A  
ENDBRANCH  13  14
ENDBRANCH   5  13
BRANCH   7  20
HETATM   20  N   UNL     1     -10.177   9.870  70.754  1.00  0.00    -0.355 N  
HETATM   21  H   UNL     1     -10.951  10.101  71.377  1.00  0.00     0.000 HD 
HETATM   22  O   UNL     1      -9.256  10.299  68.661  1.00  0.00    -0.145 OA 
HETATM   23  C   UNL     1     -10.051  10.559  69.560  1.00  0.00    -0.178 C  
BRANCH  23  24
HETATM   24  C   UNL     1     -10.946  11.753  69.318  1.00  0.00    -0.175 C  
BRANCH  24  25
HETATM   25  N   UNL     1     -11.770  12.287  70.175  1.00  0.00    -0.529 NA 
HETATM   26  H   UNL     1     -12.054  11.800  71.026  1.00  0.00     0.000 HD 
BRANCH  25  27
HETATM   27  O   UNL     1     -12.243  13.567  69.862  1.00  0.00    -0.322 OA 
HETATM   28  C   UNL     1     -13.268  15.576  70.651  1.00  0.00    -0.293 C  
HETATM   29  C   UNL     1     -11.202  14.679  71.741  1.00  0.00     0.411 C  
HETATM   30  O   UNL     1     -13.310  12.235  72.155  1.00  0.00    -0.526 OA 
HETATM   31  O   UNL     1     -14.148  14.167  72.928  1.00  0.00    -0.546 OA 
HETATM   32  C   UNL     1     -12.532  14.294  71.077  1.00  0.00    -0.362 C  
HETATM   33  C   UNL     1     -13.423  13.584  72.132  1.00  0.00    -0.537 C  
ENDBRANCH  25  27
ENDBRANCH  24  25
BRANCH  24  34
HETATM   34  C   UNL     1     -10.995  12.327  67.969  1.00  0.00    -0.225 A  
HETATM   35  H2  UNL     1     -12.490  12.852  64.012  1.00  0.00     0.000 HD 
HETATM   36  C   UNL     1      -9.995  13.086  67.386  1.00  0.00    -0.228 A  
HETATM   37  S   UNL     1     -10.403  13.456  65.766  1.00  0.00    -0.297 SA 
HETATM   38  H1  UNL     1     -13.590  11.915  65.019  1.00  0.00     0.000 HD 
HETATM   39  N   UNL     1     -12.719  12.435  64.915  1.00  0.00    -0.684 NA 
HETATM   40  N   UNL     1     -12.083  12.078  67.130  1.00  0.00    -0.532 NA 
HETATM   41  C   UNL     1     -11.868  12.581  65.941  1.00  0.00    -0.430 A  
ENDBRANCH  24  34
ENDBRANCH  23  24
ENDBRANCH   7  20
TORSDOF 7
ENDMDL
MODEL      128
REMARK 921   NORMALIZED FREE ENERGY PREDICTED BY IDOCK:   -4.84 KCAL/MOL
REMARK 922        TOTAL FREE ENERGY PREDICTED BY IDOCK:   -8.36 KCAL/MOL
REMARK 923 INTER-LIGAND FREE ENERGY PREDICTED BY IDOCK:   -6.66 KCAL/MOL
REMARK 924 INTRA-LIGAND FREE ENERGY PREDICTED BY IDOCK:   -1.70 KCAL/MOL
REMARK 927      BINDING AFFINITY PREDICTED BY RF-SCORE:    0.00 PKD
ROOT
HETATM    1  O   UNL     1      -6.022   5.075  70.213  1.00  0.00    -0.016 OA 
HETATM    2  C   UNL     1      -7.119   4.512  70.005  1.00  0.00    -0.049 C  
HETATM    3  CA  UNL     1      -8.424   5.421  70.079  1.00  0.00    -0.111 C  
HETATM    4  OXT UNL     1      -7.353   3.290  69.747  1.00  0.00    -0.044 OA 
HETATM    5  C   UNL     1      -9.593   4.975  69.554  1.00  0.00    -0.237 C  
HETATM    6  C   UNL     1     -10.890   5.739  69.509  1.00  0.00    -0.340 C  
HETATM    7  CA  UNL     1      -8.704   8.707  70.885  1.00  0.00    -0.181 C  
HETATM    8  S   UNL     1     -11.093   7.249  70.439  1.00  0.00    -0.268 SA 
HETATM    9  N   UNL     1      -8.385   6.691  70.576  1.00  0.00    -0.128 N  
HETATM   10  O   UNL     1      -6.376   7.939  70.222  1.00  0.00    -0.036 OA 
HETATM   11  C   UNL     1      -9.477   7.389  71.208  1.00  0.00    -0.154 C  
HETATM   12  C   UNL     1      -7.510   7.733  70.579  1.00  0.00    -0.074 C  
ENDROOT
BRANCH   5  13
HETATM   13  C   UNL     1      -9.729   3.644  68.836  1.00  0.00     0.012 C  
BRANCH  13  14
HETATM   14  N   UNL     1      -9.517   3.650  67.355  1.00  0.00    -0.203 NA 
HETATM   15  C   UNL     1      -9.975   4.507  65.175  1.00  0.00    -0.149 A  
HETATM   16  C   UNL     1      -9.484   3.341  64.602  1.00  0.00    -0.149 A  
HETATM   17  C   UNL     1      -9.971   4.649  66.563  1.00  0.00    -0.242 A  
HETATM   18  C   UNL     1      -8.949   2.552  66.802  1.00  0.00    -0.131 A  
HETATM   19  C   UNL     1      -8.943   2.364  65.424  1.00  0.00    -0.127 A  
ENDBRANCH  13  14
ENDBRANCH   5  13
BRANCH   7  20
HETATM   20  N   UNL     1      -9.132   9.552  69.699  1.00  0.00    -0.181 N  
HETATM   21  H   UNL     1      -9.987   9.305  69.201  1.00  0.00     0.000 HD 
HETATM   22  O   UNL     1      -7.294  10.977  69.686  1.00  0.00    -0.114 OA 
HETATM   23  C   UNL     1      -8.400  10.646  69.271  1.00  0.00    -0.103 C  
BRANCH  23  24
HETATM   24  C   UNL     1      -8.998  11.543  68.211  1.00  0.00    -0.177 C  
BRANCH  24  25
HETATM   25  N   UNL     1      -9.428  12.762  68.383  1.00  0.00    -0.327 NA 
HETATM   26  H   UNL     1      -8.907  13.571  68.044  1.00  0.00     0.000 HD 
BRANCH  25  27
HETATM   27  O   UNL     1     -10.646  12.897  69.060  1.00  0.00    -0.167 OA 
HETATM   28  C   UNL     1     -12.301  14.382  69.934  1.00  0.00    -0.365 C  
HETATM   29  C   UNL     1     -11.593  14.521  67.539  1.00  0.00    -0.403 C  
HETATM   30  O   UNL     1      -8.800  15.079  69.111  1.00  0.00    -0.201 OA 
HETATM   31  O   UNL     1     -10.414  16.472  69.809  1.00  0.00    -0.283 OA 
HETATM   32  C   UNL     1     -11.107  14.264  68.972  1.00  0.00    -0.259 C  
HETATM   33  C   UNL     1     -10.097  15.379  69.358  1.00  0.00    -0.269 C  
ENDBRANCH  25  27
ENDBRANCH  24  25
BRANCH  24  34
HETATM   34  C   UNL     1      -9.229  10.986  66.874  1.00  0.00    -0.155 A  
HETATM   35  H2  UNL     1      -8.668   8.271  63.636  1.00  0.00     0.000 HD 
HETATM   36  C   UNL     1      -9.913  11.620  65.851  1.00  0.00    -0.231 A  
HETATM   37  S   UNL     1      -9.851  10.675  64.426  1.00  0.00    -0.353 SA 
HETATM   38  H1  UNL     1      -7.905   7.704  65.118  1.00  0.00     0.000 HD 
HETATM   39  N   UNL     1      -8.459   8.405  64.625  1.00  0.00    -0.123 NA 
HETATM   40  N   UNL     1      -8.694   9.746  66.518  1.00  0.00    -0.127 NA 
HETATM   41  C   UNL     1      -8.918   9.497  65.254  1.00  0.00    -0.200 A  
ENDBRANCH  24  34
ENDBRANCH  23  24
ENDBRANCH   7  20
TORSDOF 7
ENDMDL
MODEL      129
REMARK 921   NORMALIZED FREE ENERGY PREDICTED BY IDOCK:   -4.84 KCAL/MOL
REMARK 922        TOTAL FREE ENERGY PREDICTED BY IDOCK:   -8.35 KCAL/MOL
REMARK 923 INTER-LIGAND FREE ENERGY PREDICTED BY IDOCK:   -6.89 KCAL/MOL
REMARK 924 INTRA-LIGAND FREE ENERGY PREDICTED BY IDOCK:   -1.46 KCAL/MOL
REMARK 927      BINDING AFFINITY PREDICTED BY RF-SCORE:    0.00 PKD
ROOT
HETATM    1  O   UNL     1      -5.414  11.207  67.540  1.00  0.00    -0.040 OA 
HETATM    2  C   UNL     1      -6.483  11.700  67.119  1.00  0.00    -0.137 C  
HETATM    3  CA  UNL     1      -7.756  10.746  67.088  1.00  0.00    -0.120 C  
HETATM    4  OXT UNL     1      -6.706  12.876  66.691  1.00  0.00     0.314 OA 
HETATM    5  C   UNL     1      -9.000  11.275  66.964  1.00  0.00    -0.154 C  
HETATM    6  C   UNL     1     -10.293  10.504  66.966  1.00  0.00    -0.237 C  
HETATM    7  CA  UNL     1      -7.984   7.450  67.870  1.00  0.00    -0.119 C  
HETATM    8  S   UNL     1     -10.295   8.724  66.838  1.00  0.00    -0.244 SA 
HETATM    9  N   UNL     1      -7.648   9.399  67.280  1.00  0.00    -0.091 N  
HETATM   10  O   UNL     1      -5.930   8.645  68.764  1.00  0.00    -0.043 OA 
HETATM   11  C   UNL     1      -8.534   8.392  66.752  1.00  0.00    -0.114 C  
HETATM   12  C   UNL     1      -6.884   8.559  68.029  1.00  0.00    -0.070 C  
ENDROOT
BRANCH   5  13
HETATM   13  C   UNL     1      -9.265  12.769  66.897  1.00  0.00    -0.229 C  
BRANCH  13  14
HETATM   14  N   UNL     1      -9.970  13.383  68.064  1.00  0.00    -0.232 NA 
HETATM   15  C   UNL     1     -11.728  13.403  69.678  1.00  0.00    -0.375 A  
HETATM   16  C   UNL     1     -11.528  14.760  69.895  1.00  0.00    -0.322 A  
HETATM   17  C   UNL     1     -10.925  12.724  68.762  1.00  0.00    -0.250 A  
HETATM   18  C   UNL     1      -9.705  14.682  68.340  1.00  0.00    -0.217 A  
HETATM   19  C   UNL     1     -10.490  15.400  69.236  1.00  0.00    -0.251 A  
ENDBRANCH  13  14
ENDBRANCH   5  13
BRANCH   7  20
HETATM   20  N   UNL     1      -8.811   7.215  69.121  1.00  0.00    -0.136 N  
HETATM   21  H   UNL     1      -8.754   7.890  69.884  1.00  0.00     0.000 HD 
HETATM   22  O   UNL     1      -9.704   5.162  68.491  1.00  0.00    -0.133 OA 
HETATM   23  C   UNL     1      -9.639   6.115  69.262  1.00  0.00    -0.133 C  
BRANCH  23  24
HETATM   24  C   UNL     1     -10.570   6.060  70.452  1.00  0.00    -0.268 C  
BRANCH  24  25
HETATM   25  N   UNL     1     -11.741   6.626  70.543  1.00  0.00    -0.391 NA 
HETATM   26  H   UNL     1     -12.582   6.093  70.763  1.00  0.00     0.000 HD 
BRANCH  25  27
HETATM   27  O   UNL     1     -11.777   8.008  70.322  1.00  0.00    -0.096 OA 
HETATM   28  C   UNL     1     -12.486  10.148  71.113  1.00  0.00    -0.490 C  
HETATM   29  C   UNL     1     -11.129   8.632  72.567  1.00  0.00    -0.234 C  
HETATM   30  O   UNL     1     -13.779   6.834  71.990  1.00  0.00    -0.180 OA 
HETATM   31  O   UNL     1     -14.329   8.851  72.805  1.00  0.00    -0.600 OA 
HETATM   32  C   UNL     1     -12.242   8.683  71.512  1.00  0.00    -0.318 C  
HETATM   33  C   UNL     1     -13.556   8.159  72.154  1.00  0.00    -0.224 C  
ENDBRANCH  25  27
ENDBRANCH  24  25
BRANCH  24  34
HETATM   34  C   UNL     1     -10.099   5.405  71.677  1.00  0.00    -0.203 A  
HETATM   35  H2  UNL     1      -7.209   3.906  74.428  1.00  0.00     0.000 HD 
HETATM   36  C   UNL     1     -10.887   4.666  72.541  1.00  0.00    -0.107 A  
HETATM   37  S   UNL     1      -9.924   3.981  73.779  1.00  0.00    -0.138 SA 
HETATM   38  H1  UNL     1      -6.481   4.926  73.190  1.00  0.00     0.000 HD 
HETATM   39  N   UNL     1      -7.310   4.498  73.603  1.00  0.00    -0.079 NA 
HETATM   40  N   UNL     1      -8.748   5.442  72.029  1.00  0.00    -0.130 NA 
HETATM   41  C   UNL     1      -8.530   4.700  73.083  1.00  0.00    -0.103 A  
ENDBRANCH  24  34
ENDBRANCH  23  24
ENDBRANCH   7  20
TORSDOF 7
ENDMDL
MODEL      130
REMARK 921   NORMALIZED FREE ENERGY PREDICTED BY IDOCK:   -4.82 KCAL/MOL
REMARK 922        TOTAL FREE ENERGY PREDICTED BY IDOCK:   -8.34 KCAL/MOL
REMARK 923 INTER-LIGAND FREE ENERGY PREDICTED BY IDOCK:   -6.97 KCAL/MOL
REMARK 924 INTRA-LIGAND FREE ENERGY PREDICTED BY IDOCK:   -1.36 KCAL/MOL
REMARK 927      BINDING AFFINITY PREDICTED BY RF-SCORE:    0.00 PKD
ROOT
HETATM    1  O   UNL     1      -7.218  12.913  67.421  1.00  0.00    -0.151 OA 
HETATM    2  C   UNL     1      -8.328  12.570  66.957  1.00  0.00    -0.144 C  
HETATM    3  CA  UNL     1      -8.674  11.017  66.985  1.00  0.00    -0.141 C  
HETATM    4  OXT UNL     1      -9.237  13.294  66.446  1.00  0.00    -0.218 OA 
HETATM    5  C   UNL     1      -9.955  10.603  66.814  1.00  0.00    -0.254 C  
HETATM    6  C   UNL     1     -10.437   9.177  66.862  1.00  0.00    -0.217 C  
HETATM    7  CA  UNL     1      -6.749   8.409  67.997  1.00  0.00    -0.065 C  
HETATM    8  S   UNL     1      -9.277   7.821  66.860  1.00  0.00    -0.161 SA 
HETATM    9  N   UNL     1      -7.727  10.076  67.273  1.00  0.00    -0.095 N  
HETATM   10  O   UNL     1      -6.011  10.695  68.819  1.00  0.00    -0.041 OA 
HETATM   11  C   UNL     1      -7.719   8.711  66.811  1.00  0.00    -0.093 C  
HETATM   12  C   UNL     1      -6.641   9.973  68.085  1.00  0.00    -0.055 C  
ENDROOT
BRANCH   5  13
HETATM   13  C   UNL     1     -11.122  11.559  66.640  1.00  0.00    -0.295 C  
BRANCH  13  14
HETATM   14  N   UNL     1     -11.678  12.180  67.881  1.00  0.00    -0.426 NA 
HETATM   15  C   UNL     1     -12.180  14.085  69.229  1.00  0.00    -0.319 A  
HETATM   16  C   UNL     1     -12.263  13.278  70.356  1.00  0.00    -0.404 A  
HETATM   17  C   UNL     1     -11.898  13.511  67.989  1.00  0.00    -0.365 A  
HETATM   18  C   UNL     1     -11.851  11.375  68.957  1.00  0.00    -0.348 A  
HETATM   19  C   UNL     1     -12.121  11.907  70.214  1.00  0.00    -0.409 A  
ENDBRANCH  13  14
ENDBRANCH   5  13
BRANCH   7  20
HETATM   20  N   UNL     1      -7.289   7.755  69.255  1.00  0.00    -0.085 N  
HETATM   21  H   UNL     1      -7.905   8.292  69.865  1.00  0.00     0.000 HD 
HETATM   22  O   UNL     1      -6.148   5.739  69.040  1.00  0.00    -0.022 OA 
HETATM   23  C   UNL     1      -6.973   6.452  69.602  1.00  0.00    -0.071 C  
BRANCH  23  24
HETATM   24  C   UNL     1      -7.706   5.817  70.762  1.00  0.00    -0.093 C  
BRANCH  24  25
HETATM   25  N   UNL     1      -8.985   5.899  71.006  1.00  0.00    -0.142 NA 
HETATM   26  H   UNL     1      -9.651   5.228  70.623  1.00  0.00     0.000 HD 
BRANCH  25  27
HETATM   27  O   UNL     1      -9.390   6.960  71.825  1.00  0.00    -0.147 OA 
HETATM   28  C   UNL     1     -11.211   8.137  72.828  1.00  0.00    -0.407 C  
HETATM   29  C   UNL     1     -10.954   5.669  73.142  1.00  0.00    -0.326 C  
HETATM   30  O   UNL     1     -11.241   5.921  69.910  1.00  0.00    -0.378 OA 
HETATM   31  O   UNL     1     -12.945   6.939  70.957  1.00  0.00    -0.305 OA 
HETATM   32  C   UNL     1     -10.793   6.824  72.145  1.00  0.00    -0.227 C  
HETATM   33  C   UNL     1     -11.770   6.594  70.959  1.00  0.00    -0.360 C  
ENDBRANCH  25  27
ENDBRANCH  24  25
BRANCH  24  34
HETATM   34  C   UNL     1      -6.921   5.124  71.788  1.00  0.00    -0.065 A  
HETATM   35  H2  UNL     1      -6.195   2.270  74.871  1.00  0.00     0.000 HD 
HETATM   36  C   UNL     1      -5.711   5.560  72.299  1.00  0.00    -0.018 A  
HETATM   37  S   UNL     1      -5.193   4.522  73.557  1.00  0.00    -0.008 SA 
HETATM   38  H1  UNL     1      -7.697   1.950  74.010  1.00  0.00     0.000 HD 
HETATM   39  N   UNL     1      -6.857   2.515  74.134  1.00  0.00    -0.029 NA 
HETATM   40  N   UNL     1      -7.401   3.955  72.383  1.00  0.00    -0.056 NA 
HETATM   41  C   UNL     1      -6.606   3.572  73.348  1.00  0.00    -0.033 A  
ENDBRANCH  24  34
ENDBRANCH  23  24
ENDBRANCH   7  20
TORSDOF 7
ENDMDL
MODEL      131
REMARK 921   NORMALIZED FREE ENERGY PREDICTED BY IDOCK:   -4.81 KCAL/MOL
REMARK 922        TOTAL FREE ENERGY PREDICTED BY IDOCK:   -8.31 KCAL/MOL
REMARK 923 INTER-LIGAND FREE ENERGY PREDICTED BY IDOCK:   -6.60 KCAL/MOL
REMARK 924 INTRA-LIGAND FREE ENERGY PREDICTED BY IDOCK:   -1.71 KCAL/MOL
REMARK 927      BINDING AFFINITY PREDICTED BY RF-SCORE:    0.00 PKD
ROOT
HETATM    1  O   UNL     1      -9.990   8.108  73.351  1.00  0.00    -0.224 OA 
HETATM    2  C   UNL     1      -9.183   7.274  72.882  1.00  0.00    -0.147 C  
HETATM    3  CA  UNL     1      -9.124   7.138  71.297  1.00  0.00    -0.151 C  
HETATM    4  OXT UNL     1      -8.393   6.493  73.499  1.00  0.00    -0.118 OA 
HETATM    5  C   UNL     1      -8.072   6.516  70.708  1.00  0.00    -0.120 C  
HETATM    6  C   UNL     1      -7.858   6.354  69.226  1.00  0.00    -0.106 C  
HETATM    7  CA  UNL     1     -11.006   8.696  68.940  1.00  0.00     0.120 C  
HETATM    8  S   UNL     1      -9.164   6.727  68.069  1.00  0.00    -0.115 SA 
HETATM    9  N   UNL     1     -10.062   7.717  70.492  1.00  0.00    -0.192 N  
HETATM   10  O   UNL     1     -11.008   9.785  71.234  1.00  0.00    -0.351 OA 
HETATM   11  C   UNL     1     -10.465   7.253  69.189  1.00  0.00    -0.215 C  
HETATM   12  C   UNL     1     -10.804   8.857  70.489  1.00  0.00    -0.236 C  
ENDROOT
BRANCH   5  13
HETATM   13  C   UNL     1      -6.888   5.966  71.485  1.00  0.00    -0.067 C  
BRANCH  13  14
HETATM   14  N   UNL     1      -6.701   4.483  71.470  1.00  0.00    -0.030 NA 
HETATM   15  C   UNL     1      -7.339   2.282  72.138  1.00  0.00    -0.039 A  
HETATM   16  C   UNL     1      -6.072   1.808  71.824  1.00  0.00    -0.013 A  
HETATM   17  C   UNL     1      -7.640   3.629  71.940  1.00  0.00    -0.057 A  
HETATM   18  C   UNL     1      -5.495   4.010  71.072  1.00  0.00    -0.008 A  
HETATM   19  C   UNL     1      -5.149   2.677  71.263  1.00  0.00     0.000 A  
ENDBRANCH  13  14
ENDBRANCH   5  13
BRANCH   7  20
HETATM   20  N   UNL     1     -10.189   9.667  68.106  1.00  0.00    -0.180 N  
HETATM   21  H   UNL     1      -9.224   9.428  67.876  1.00  0.00     0.000 HD 
HETATM   22  O   UNL     1     -11.799  11.339  67.956  1.00  0.00    -0.578 OA 
HETATM   23  C   UNL     1     -10.710  10.864  67.648  1.00  0.00    -0.242 C  
BRANCH  23  24
HETATM   24  C   UNL     1      -9.896  11.675  66.665  1.00  0.00    -0.200 C  
BRANCH  24  25
HETATM   25  N   UNL     1      -8.618  11.556  66.436  1.00  0.00    -0.220 NA 
HETATM   26  H   UNL     1      -8.177  11.966  65.612  1.00  0.00     0.000 HD 
BRANCH  25  27
HETATM   27  O   UNL     1      -7.886  10.834  67.386  1.00  0.00    -0.108 OA 
HETATM   28  C   UNL     1      -5.937   9.532  67.849  1.00  0.00    -0.051 C  
HETATM   29  C   UNL     1      -5.743  11.810  66.836  1.00  0.00    -0.142 C  
HETATM   30  O   UNL     1      -7.518  10.225  64.617  1.00  0.00    -0.142 OA 
HETATM   31  O   UNL     1      -5.621   9.118  65.079  1.00  0.00    -0.052 OA 
HETATM   32  C   UNL     1      -6.576  10.522  66.861  1.00  0.00    -0.081 C  
HETATM   33  C   UNL     1      -6.515   9.867  65.454  1.00  0.00    -0.094 C  
ENDBRANCH  25  27
ENDBRANCH  24  25
BRANCH  24  34
HETATM   34  C   UNL     1     -10.553  12.782  65.961  1.00  0.00    -0.268 A  
HETATM   35  H2  UNL     1     -12.834  14.621  62.864  1.00  0.00     0.000 HD 
HETATM   36  C   UNL     1     -10.352  14.126  66.221  1.00  0.00    -0.292 A  
HETATM   37  S   UNL     1     -11.220  15.081  65.097  1.00  0.00    -0.390 SA 
HETATM   38  H1  UNL     1     -12.920  12.863  62.798  1.00  0.00     0.000 HD 
HETATM   39  N   UNL     1     -12.577  13.712  63.249  1.00  0.00    -0.755 NA 
HETATM   40  N   UNL     1     -11.419  12.532  64.894  1.00  0.00    -0.315 NA 
HETATM   41  C   UNL     1     -11.796  13.654  64.338  1.00  0.00    -0.424 A  
ENDBRANCH  24  34
ENDBRANCH  23  24
ENDBRANCH   7  20
TORSDOF 7
ENDMDL
MODEL      132
REMARK 921   NORMALIZED FREE ENERGY PREDICTED BY IDOCK:   -4.79 KCAL/MOL
REMARK 922        TOTAL FREE ENERGY PREDICTED BY IDOCK:   -8.29 KCAL/MOL
REMARK 923 INTER-LIGAND FREE ENERGY PREDICTED BY IDOCK:   -7.23 KCAL/MOL
REMARK 924 INTRA-LIGAND FREE ENERGY PREDICTED BY IDOCK:   -1.06 KCAL/MOL
REMARK 927      BINDING AFFINITY PREDICTED BY RF-SCORE:    0.00 PKD
ROOT
HETATM    1  O   UNL     1      -5.238  16.609  70.907  1.00  0.00    -0.214 OA 
HETATM    2  C   UNL     1      -6.017  16.900  69.973  1.00  0.00    -0.184 C  
HETATM    3  CA  UNL     1      -6.587  15.693  69.106  1.00  0.00    -0.140 C  
HETATM    4  OXT UNL     1      -6.422  18.044  69.597  1.00  0.00    -0.231 OA 
HETATM    5  C   UNL     1      -7.668  15.882  68.307  1.00  0.00    -0.137 C  
HETATM    6  C   UNL     1      -8.343  14.827  67.470  1.00  0.00    -0.183 C  
HETATM    7  CA  UNL     1      -5.877  12.380  69.315  1.00  0.00    -0.085 C  
HETATM    8  S   UNL     1      -7.579  13.235  67.217  1.00  0.00     0.011 SA 
HETATM    9  N   UNL     1      -6.078  14.431  69.211  1.00  0.00    -0.099 N  
HETATM   10  O   UNL     1      -5.266  13.759  71.358  1.00  0.00    -0.136 OA 
HETATM   11  C   UNL     1      -6.073  13.428  68.175  1.00  0.00    -0.112 C  
HETATM   12  C   UNL     1      -5.565  13.643  70.194  1.00  0.00    -0.126 C  
ENDROOT
BRANCH   5  13
HETATM   13  C   UNL     1      -8.419  17.198  68.221  1.00  0.00    -0.236 C  
BRANCH  13  14
HETATM   14  N   UNL     1      -8.073  18.101  67.080  1.00  0.00    -0.218 NA 
HETATM   15  C   UNL     1      -6.735  18.667  65.186  1.00  0.00    -0.039 A  
HETATM   16  C   UNL     1      -7.141  19.991  65.283  1.00  0.00    -0.250 A  
HETATM   17  C   UNL     1      -7.226  17.727  66.093  1.00  0.00    -0.311 A  
HETATM   18  C   UNL     1      -8.546  19.369  67.122  1.00  0.00    -0.294 A  
HETATM   19  C   UNL     1      -8.074  20.340  66.246  1.00  0.00    -0.202 A  
ENDBRANCH  13  14
ENDBRANCH   5  13
BRANCH   7  20
HETATM   20  N   UNL     1      -7.066  11.569  69.797  1.00  0.00    -0.351 N  
HETATM   21  H   UNL     1      -7.622  11.925  70.575  1.00  0.00     0.000 HD 
HETATM   22  O   UNL     1      -6.772   9.755  68.371  1.00  0.00    -0.059 OA 
HETATM   23  C   UNL     1      -7.421  10.364  69.217  1.00  0.00    -0.120 C  
BRANCH  23  24
HETATM   24  C   UNL     1      -8.727   9.722  69.627  1.00  0.00    -0.199 C  
BRANCH  24  25
HETATM   25  N   UNL     1      -8.867   8.585  70.249  1.00  0.00    -0.142 NA 
HETATM   26  H   UNL     1      -8.707   7.692  69.783  1.00  0.00     0.000 HD 
BRANCH  25  27
HETATM   27  O   UNL     1      -9.252   8.660  71.593  1.00  0.00    -0.210 OA 
HETATM   28  C   UNL     1     -10.458   7.653  73.393  1.00  0.00    -0.361 C  
HETATM   29  C   UNL     1      -8.737   6.357  72.123  1.00  0.00    -0.132 C  
HETATM   30  O   UNL     1     -10.865   7.139  69.788  1.00  0.00    -0.234 OA 
HETATM   31  O   UNL     1     -11.886   6.121  71.507  1.00  0.00    -0.276 OA 
HETATM   32  C   UNL     1      -9.849   7.408  72.002  1.00  0.00    -0.162 C  
HETATM   33  C   UNL     1     -10.977   6.834  71.103  1.00  0.00    -0.257 C  
ENDBRANCH  25  27
ENDBRANCH  24  25
BRANCH  24  34
HETATM   34  C   UNL     1      -9.980  10.361  69.210  1.00  0.00    -0.228 A  
HETATM   35  H2  UNL     1     -12.606  12.421  66.558  1.00  0.00     0.000 HD 
HETATM   36  C   UNL     1     -11.021  10.707  70.054  1.00  0.00    -0.259 A  
HETATM   37  S   UNL     1     -12.238  11.533  69.181  1.00  0.00    -0.021 SA 
HETATM   38  H1  UNL     1     -11.163  11.831  65.739  1.00  0.00     0.000 HD 
HETATM   39  N   UNL     1     -11.718  11.919  66.590  1.00  0.00    -0.579 NA 
HETATM   40  N   UNL     1     -10.180  10.730  67.878  1.00  0.00    -0.170 NA 
HETATM   41  C   UNL     1     -11.304  11.387  67.750  1.00  0.00    -0.287 A  
ENDBRANCH  24  34
ENDBRANCH  23  24
ENDBRANCH   7  20
TORSDOF 7
ENDMDL
MODEL      133
REMARK 921   NORMALIZED FREE ENERGY PREDICTED BY IDOCK:   -4.78 KCAL/MOL
REMARK 922        TOTAL FREE ENERGY PREDICTED BY IDOCK:   -8.27 KCAL/MOL
REMARK 923 INTER-LIGAND FREE ENERGY PREDICTED BY IDOCK:   -6.78 KCAL/MOL
REMARK 924 INTRA-LIGAND FREE ENERGY PREDICTED BY IDOCK:   -1.49 KCAL/MOL
REMARK 927      BINDING AFFINITY PREDICTED BY RF-SCORE:    0.00 PKD
ROOT
HETATM    1  O   UNL     1     -10.597   7.219  73.791  1.00  0.00    -0.364 OA 
HETATM    2  C   UNL     1      -9.713   6.582  73.176  1.00  0.00    -0.158 C  
HETATM    3  CA  UNL     1      -9.517   6.924  71.634  1.00  0.00    -0.157 C  
HETATM    4  OXT UNL     1      -8.937   5.674  73.608  1.00  0.00    -0.125 OA 
HETATM    5  C   UNL     1      -8.389   6.532  70.989  1.00  0.00    -0.126 C  
HETATM    6  C   UNL     1      -8.047   6.822  69.551  1.00  0.00    -0.126 C  
HETATM    7  CA  UNL     1     -11.278   9.064  69.672  1.00  0.00     0.022 C  
HETATM    8  S   UNL     1      -9.272   7.488  68.437  1.00  0.00    -0.138 SA 
HETATM    9  N   UNL     1     -10.415   7.692  70.950  1.00  0.00    -0.206 N  
HETATM   10  O   UNL     1     -11.524   9.422  72.173  1.00  0.00    -0.237 OA 
HETATM   11  C   UNL     1     -10.685   7.626  69.535  1.00  0.00    -0.209 C  
HETATM   12  C   UNL     1     -11.212   8.763  71.212  1.00  0.00    -0.284 C  
ENDROOT
BRANCH   5  13
HETATM   13  C   UNL     1      -7.247   5.806  71.677  1.00  0.00    -0.086 C  
BRANCH  13  14
HETATM   14  N   UNL     1      -6.890   4.454  71.149  1.00  0.00    -0.034 NA 
HETATM   15  C   UNL     1      -7.337   2.125  70.872  1.00  0.00    -0.033 A  
HETATM   16  C   UNL     1      -5.998   1.891  70.589  1.00  0.00    -0.018 A  
HETATM   17  C   UNL     1      -7.769   3.425  71.139  1.00  0.00    -0.051 A  
HETATM   18  C   UNL     1      -5.603   4.248  70.781  1.00  0.00    -0.012 A  
HETATM   19  C   UNL     1      -5.128   2.967  70.519  1.00  0.00    -0.004 A  
ENDBRANCH  13  14
ENDBRANCH   5  13
BRANCH   7  20
HETATM   20  N   UNL     1     -10.447  10.258  69.239  1.00  0.00    -0.213 N  
HETATM   21  H   UNL     1      -9.435  10.227  69.368  1.00  0.00     0.000 HD 
HETATM   22  O   UNL     1     -12.218  11.616  68.584  1.00  0.00    -0.455 OA 
HETATM   23  C   UNL     1     -11.016  11.387  68.675  1.00  0.00    -0.220 C  
BRANCH  23  24
HETATM   24  C   UNL     1     -10.102  12.443  68.096  1.00  0.00    -0.224 C  
BRANCH  24  25
HETATM   25  N   UNL     1      -9.189  13.113  68.742  1.00  0.00    -0.392 NA 
HETATM   26  H   UNL     1      -9.338  13.449  69.694  1.00  0.00     0.000 HD 
BRANCH  25  27
HETATM   27  O   UNL     1      -7.992  13.345  68.054  1.00  0.00    -0.123 OA 
HETATM   28  C   UNL     1      -6.049  14.715  67.816  1.00  0.00    -0.136 C  
HETATM   29  C   UNL     1      -6.642  13.710  70.028  1.00  0.00     0.081 C  
HETATM   30  O   UNL     1      -9.257  15.537  69.383  1.00  0.00    -0.257 OA 
HETATM   31  O   UNL     1      -7.371  16.746  69.253  1.00  0.00    -0.237 OA 
HETATM   32  C   UNL     1      -7.212  14.343  68.751  1.00  0.00    -0.128 C  
HETATM   33  C   UNL     1      -7.932  15.665  69.133  1.00  0.00    -0.227 C  
ENDBRANCH  25  27
ENDBRANCH  24  25
BRANCH  24  34
HETATM   34  C   UNL     1     -10.305  12.853  66.703  1.00  0.00    -0.251 A  
HETATM   35  H2  UNL     1     -11.334  15.517  63.537  1.00  0.00     0.000 HD 
HETATM   36  C   UNL     1     -10.352  11.997  65.616  1.00  0.00    -0.253 A  
HETATM   37  S   UNL     1     -10.723  12.871  64.192  1.00  0.00    -0.400 SA 
HETATM   38  H1  UNL     1     -11.180  16.348  65.082  1.00  0.00     0.000 HD 
HETATM   39  N   UNL     1     -11.132  15.487  64.537  1.00  0.00    -0.342 NA 
HETATM   40  N   UNL     1     -10.534  14.193  66.382  1.00  0.00    -0.279 NA 
HETATM   41  C   UNL     1     -10.806  14.318  65.109  1.00  0.00    -0.378 A  
ENDBRANCH  24  34
ENDBRANCH  23  24
ENDBRANCH   7  20
TORSDOF 7
ENDMDL
MODEL      134
REMARK 921   NORMALIZED FREE ENERGY PREDICTED BY IDOCK:   -4.77 KCAL/MOL
REMARK 922        TOTAL FREE ENERGY PREDICTED BY IDOCK:   -8.26 KCAL/MOL
REMARK 923 INTER-LIGAND FREE ENERGY PREDICTED BY IDOCK:   -6.48 KCAL/MOL
REMARK 924 INTRA-LIGAND FREE ENERGY PREDICTED BY IDOCK:   -1.78 KCAL/MOL
REMARK 927      BINDING AFFINITY PREDICTED BY RF-SCORE:    0.00 PKD
ROOT
HETATM    1  O   UNL     1      -7.847   6.092  73.534  1.00  0.00    -0.099 OA 
HETATM    2  C   UNL     1      -8.073   5.364  72.542  1.00  0.00    -0.103 C  
HETATM    3  CA  UNL     1      -8.901   6.009  71.346  1.00  0.00    -0.136 C  
HETATM    4  OXT UNL     1      -7.740   4.153  72.349  1.00  0.00    -0.077 OA 
HETATM    5  C   UNL     1      -8.904   5.415  70.125  1.00  0.00    -0.142 C  
HETATM    6  C   UNL     1      -9.600   5.932  68.894  1.00  0.00    -0.132 C  
HETATM    7  CA  UNL     1     -10.312   9.088  71.131  1.00  0.00    -0.291 C  
HETATM    8  S   UNL     1     -10.769   7.275  69.001  1.00  0.00    -0.120 SA 
HETATM    9  N   UNL     1      -9.540   7.207  71.480  1.00  0.00    -0.158 N  
HETATM   10  O   UNL     1      -8.526   8.828  72.916  1.00  0.00    -0.409 OA 
HETATM   11  C   UNL     1     -10.717   7.626  70.761  1.00  0.00    -0.226 C  
HETATM   12  C   UNL     1      -9.323   8.384  72.126  1.00  0.00    -0.269 C  
ENDROOT
BRANCH   5  13
HETATM   13  C   UNL     1      -8.107   4.163  69.806  1.00  0.00    -0.055 C  
BRANCH  13  14
HETATM   14  N   UNL     1      -7.092   4.268  68.713  1.00  0.00    -0.051 NA 
HETATM   15  C   UNL     1      -5.286   5.391  67.629  1.00  0.00    -0.011 A  
HETATM   16  C   UNL     1      -5.553   4.705  66.452  1.00  0.00    -0.014 A  
HETATM   17  C   UNL     1      -6.064   5.147  68.761  1.00  0.00    -0.029 A  
HETATM   18  C   UNL     1      -7.298   3.527  67.598  1.00  0.00    -0.059 A  
HETATM   19  C   UNL     1      -6.554   3.746  66.444  1.00  0.00    -0.041 A  
ENDBRANCH  13  14
ENDBRANCH   5  13
BRANCH   7  20
HETATM   20  N   UNL     1      -9.629   9.960  70.092  1.00  0.00    -0.361 N  
HETATM   21  H   UNL     1      -8.618   9.890  69.979  1.00  0.00     0.000 HD 
HETATM   22  O   UNL     1     -11.521  11.129  69.412  1.00  0.00    -0.243 OA 
HETATM   23  C   UNL     1     -10.333  10.845  69.295  1.00  0.00    -0.187 C  
BRANCH  23  24
HETATM   24  C   UNL     1      -9.605  11.527  68.159  1.00  0.00    -0.187 C  
BRANCH  24  25
HETATM   25  N   UNL     1      -9.415  12.810  68.021  1.00  0.00    -0.208 NA 
HETATM   26  H   UNL     1      -8.936  13.364  68.732  1.00  0.00     0.000 HD 
BRANCH  25  27
HETATM   27  O   UNL     1      -9.907  13.384  66.843  1.00  0.00    -0.242 OA 
HETATM   28  C   UNL     1     -10.821  15.321  65.785  1.00  0.00    -0.363 C  
HETATM   29  C   UNL     1      -8.658  15.446  67.034  1.00  0.00    -0.262 C  
HETATM   30  O   UNL     1     -10.731  14.482  69.350  1.00  0.00    -0.242 OA 
HETATM   31  O   UNL     1     -11.461  16.344  68.332  1.00  0.00    -0.338 OA 
HETATM   32  C   UNL     1     -10.055  14.811  67.017  1.00  0.00    -0.245 C  
HETATM   33  C   UNL     1     -10.833  15.294  68.272  1.00  0.00    -0.262 C  
ENDBRANCH  25  27
ENDBRANCH  24  25
BRANCH  24  34
HETATM   34  C   UNL     1      -9.146  10.708  67.032  1.00  0.00    -0.144 A  
HETATM   35  H2  UNL     1      -6.405   9.356  64.059  1.00  0.00     0.000 HD 
HETATM   36  C   UNL     1      -9.957   9.914  66.239  1.00  0.00    -0.256 A  
HETATM   37  S   UNL     1      -9.043   9.221  64.969  1.00  0.00    -0.144 SA 
HETATM   38  H1  UNL     1      -5.633  10.399  65.251  1.00  0.00     0.000 HD 
HETATM   39  N   UNL     1      -6.467   9.922  64.907  1.00  0.00    -0.104 NA 
HETATM   40  N   UNL     1      -7.807  10.728  66.637  1.00  0.00    -0.134 NA 
HETATM   41  C   UNL     1      -7.641  10.023  65.547  1.00  0.00    -0.136 A  
ENDBRANCH  24  34
ENDBRANCH  23  24
ENDBRANCH   7  20
TORSDOF 7
ENDMDL
MODEL      135
REMARK 921   NORMALIZED FREE ENERGY PREDICTED BY IDOCK:   -4.76 KCAL/MOL
REMARK 922        TOTAL FREE ENERGY PREDICTED BY IDOCK:   -8.25 KCAL/MOL
REMARK 923 INTER-LIGAND FREE ENERGY PREDICTED BY IDOCK:   -7.82 KCAL/MOL
REMARK 924 INTRA-LIGAND FREE ENERGY PREDICTED BY IDOCK:   -0.44 KCAL/MOL
REMARK 927      BINDING AFFINITY PREDICTED BY RF-SCORE:    0.00 PKD
ROOT
HETATM    1  O   UNL     1      -6.148   6.883  65.502  1.00  0.00    -0.034 OA 
HETATM    2  C   UNL     1      -6.858   6.163  66.238  1.00  0.00    -0.061 C  
HETATM    3  CA  UNL     1      -7.732   6.902  67.345  1.00  0.00    -0.110 C  
HETATM    4  OXT UNL     1      -6.980   4.899  66.241  1.00  0.00    -0.063 OA 
HETATM    5  C   UNL     1      -8.756   6.248  67.950  1.00  0.00    -0.114 C  
HETATM    6  C   UNL     1      -9.692   6.830  68.976  1.00  0.00    -0.145 C  
HETATM    7  CA  UNL     1      -7.852  10.202  68.131  1.00  0.00    -0.096 C  
HETATM    8  S   UNL     1      -9.351   8.408  69.733  1.00  0.00    -0.158 SA 
HETATM    9  N   UNL     1      -7.546   8.221  67.644  1.00  0.00    -0.097 N  
HETATM   10  O   UNL     1      -6.863   9.657  65.857  1.00  0.00    -0.084 OA 
HETATM   11  C   UNL     1      -7.817   8.850  68.911  1.00  0.00    -0.096 C  
HETATM   12  C   UNL     1      -7.215   9.356  66.972  1.00  0.00    -0.087 C  
ENDROOT
BRANCH   5  13
HETATM   13  C   UNL     1      -9.162   4.829  67.594  1.00  0.00    -0.128 C  
BRANCH  13  14
HETATM   14  N   UNL     1      -8.952   3.783  68.642  1.00  0.00    -0.113 NA 
HETATM   15  C   UNL     1      -8.168   1.638  69.337  1.00  0.00    -0.064 A  
HETATM   16  C   UNL     1      -8.996   1.685  70.451  1.00  0.00    -0.133 A  
HETATM   17  C   UNL     1      -8.150   2.711  68.445  1.00  0.00    -0.057 A  
HETATM   18  C   UNL     1      -9.690   3.877  69.774  1.00  0.00    -0.156 A  
HETATM   19  C   UNL     1      -9.747   2.826  70.684  1.00  0.00    -0.087 A  
ENDBRANCH  13  14
ENDBRANCH   5  13
BRANCH   7  20
HETATM   20  N   UNL     1      -9.190  10.826  67.777  1.00  0.00    -0.150 N  
HETATM   21  H   UNL     1      -9.928  10.230  67.400  1.00  0.00     0.000 HD 
HETATM   22  O   UNL     1      -8.616  13.027  68.264  1.00  0.00    -0.177 OA 
HETATM   23  C   UNL     1      -9.443  12.176  67.950  1.00  0.00    -0.195 C  
BRANCH  23  24
HETATM   24  C   UNL     1     -10.857  12.675  67.758  1.00  0.00    -0.221 C  
BRANCH  24  25
HETATM   25  N   UNL     1     -11.732  12.211  66.909  1.00  0.00    -0.552 NA 
HETATM   26  H   UNL     1     -12.732  12.382  67.018  1.00  0.00     0.000 HD 
BRANCH  25  27
HETATM   27  O   UNL     1     -11.220  11.466  65.841  1.00  0.00    -0.230 OA 
HETATM   28  C   UNL     1     -10.758  11.374  63.499  1.00  0.00    -0.453 C  
HETATM   29  C   UNL     1      -9.904  13.262  64.898  1.00  0.00    -0.044 C  
HETATM   30  O   UNL     1     -13.124  13.525  65.288  1.00  0.00    -0.713 OA 
HETATM   31  O   UNL     1     -12.570  13.498  63.114  1.00  0.00    -0.762 OA 
HETATM   32  C   UNL     1     -11.085  12.309  64.675  1.00  0.00    -0.313 C  
HETATM   33  C   UNL     1     -12.326  13.148  64.261  1.00  0.00    -0.351 C  
ENDBRANCH  25  27
ENDBRANCH  24  25
BRANCH  24  34
HETATM   34  C   UNL     1     -11.286  13.861  68.506  1.00  0.00    -0.280 A  
HETATM   35  H2  UNL     1     -11.197  17.950  69.711  1.00  0.00     0.000 HD 
HETATM   36  C   UNL     1     -12.132  13.852  69.602  1.00  0.00    -0.349 A  
HETATM   37  S   UNL     1     -12.279  15.431  70.246  1.00  0.00    -0.382 SA 
HETATM   38  H1  UNL     1     -10.201  17.654  68.289  1.00  0.00     0.000 HD 
HETATM   39  N   UNL     1     -10.837  17.305  69.006  1.00  0.00    -0.158 NA 
HETATM   40  N   UNL     1     -10.794  15.126  68.177  1.00  0.00    -0.258 NA 
HETATM   41  C   UNL     1     -11.209  16.017  69.041  1.00  0.00    -0.347 A  
ENDBRANCH  24  34
ENDBRANCH  23  24
ENDBRANCH   7  20
TORSDOF 7
ENDMDL
MODEL      136
REMARK 921   NORMALIZED FREE ENERGY PREDICTED BY IDOCK:   -4.74 KCAL/MOL
REMARK 922        TOTAL FREE ENERGY PREDICTED BY IDOCK:   -8.21 KCAL/MOL
REMARK 923 INTER-LIGAND FREE ENERGY PREDICTED BY IDOCK:   -7.11 KCAL/MOL
REMARK 924 INTRA-LIGAND FREE ENERGY PREDICTED BY IDOCK:   -1.11 KCAL/MOL
REMARK 927      BINDING AFFINITY PREDICTED BY RF-SCORE:    0.00 PKD
ROOT
HETATM    1  O   UNL     1      -6.324  13.407  69.054  1.00  0.00    -0.086 OA 
HETATM    2  C   UNL     1      -7.412  13.961  68.783  1.00  0.00    -0.114 C  
HETATM    3  CA  UNL     1      -8.522  13.066  68.076  1.00  0.00    -0.181 C  
HETATM    4  OXT UNL     1      -7.767  15.164  68.984  1.00  0.00    -0.148 OA 
HETATM    5  C   UNL     1      -9.814  13.481  68.049  1.00  0.00    -0.238 C  
HETATM    6  C   UNL     1     -10.974  12.722  67.460  1.00  0.00    -0.249 C  
HETATM    7  CA  UNL     1      -8.329   9.842  67.029  1.00  0.00    -0.121 C  
HETATM    8  S   UNL     1     -10.701  11.280  66.447  1.00  0.00    -0.246 SA 
HETATM    9  N   UNL     1      -8.233  11.831  67.572  1.00  0.00    -0.144 N  
HETATM   10  O   UNL     1      -6.564  10.552  68.710  1.00  0.00    -0.051 OA 
HETATM   11  C   UNL     1      -8.909  11.182  66.476  1.00  0.00    -0.171 C  
HETATM   12  C   UNL     1      -7.424  10.787  67.897  1.00  0.00    -0.090 C  
ENDROOT
BRANCH   5  13
HETATM   13  C   UNL     1     -10.290  14.762  68.711  1.00  0.00    -0.248 C  
BRANCH  13  14
HETATM   14  N   UNL     1     -10.426  15.966  67.834  1.00  0.00    -0.279 NA 
HETATM   15  C   UNL     1     -10.117  17.087  65.749  1.00  0.00    -0.219 A  
HETATM   16  C   UNL     1     -10.245  18.317  66.380  1.00  0.00    -0.417 A  
HETATM   17  C   UNL     1     -10.225  15.914  66.496  1.00  0.00    -0.290 A  
HETATM   18  C   UNL     1     -10.647  17.157  68.439  1.00  0.00    -0.371 A  
HETATM   19  C   UNL     1     -10.537  18.351  67.735  1.00  0.00    -0.419 A  
ENDBRANCH  13  14
ENDBRANCH   5  13
BRANCH   7  20
HETATM   20  N   UNL     1      -9.222   8.922  67.843  1.00  0.00    -0.138 N  
HETATM   21  H   UNL     1     -10.219   9.128  67.901  1.00  0.00     0.000 HD 
HETATM   22  O   UNL     1      -7.541   7.523  68.636  1.00  0.00    -0.104 OA 
HETATM   23  C   UNL     1      -8.726   7.814  68.508  1.00  0.00    -0.128 C  
BRANCH  23  24
HETATM   24  C   UNL     1      -9.709   6.847  69.129  1.00  0.00    -0.155 C  
BRANCH  24  25
HETATM   25  N   UNL     1     -10.187   5.768  68.575  1.00  0.00    -0.175 NA 
HETATM   26  H   UNL     1     -10.605   5.780  67.644  1.00  0.00     0.000 HD 
BRANCH  25  27
HETATM   27  O   UNL     1     -10.094   4.594  69.330  1.00  0.00    -0.211 OA 
HETATM   28  C   UNL     1      -9.387   2.312  69.411  1.00  0.00    -0.169 C  
HETATM   29  C   UNL     1      -7.788   4.125  68.769  1.00  0.00    -0.068 C  
HETATM   30  O   UNL     1     -10.084   4.395  66.478  1.00  0.00    -0.232 OA 
HETATM   31  O   UNL     1      -9.298   2.297  66.594  1.00  0.00    -0.060 OA 
HETATM   32  C   UNL     1      -9.241   3.643  68.653  1.00  0.00    -0.160 C  
HETATM   33  C   UNL     1      -9.549   3.354  67.159  1.00  0.00    -0.082 C  
ENDBRANCH  25  27
ENDBRANCH  24  25
BRANCH  24  34
HETATM   34  C   UNL     1     -10.281   7.179  70.439  1.00  0.00    -0.193 A  
HETATM   35  H2  UNL     1     -10.308   7.619  74.679  1.00  0.00     0.000 HD 
HETATM   36  C   UNL     1     -11.624   7.393  70.693  1.00  0.00    -0.268 A  
HETATM   37  S   UNL     1     -11.876   7.636  72.368  1.00  0.00    -0.256 SA 
HETATM   38  H1  UNL     1      -8.686   7.347  74.049  1.00  0.00     0.000 HD 
HETATM   39  N   UNL     1      -9.685   7.468  73.885  1.00  0.00    -0.249 NA 
HETATM   40  N   UNL     1      -9.470   7.242  71.574  1.00  0.00    -0.153 NA 
HETATM   41  C   UNL     1     -10.196   7.432  72.645  1.00  0.00    -0.227 A  
ENDBRANCH  24  34
ENDBRANCH  23  24
ENDBRANCH   7  20
TORSDOF 7
ENDMDL
MODEL      137
REMARK 921   NORMALIZED FREE ENERGY PREDICTED BY IDOCK:   -4.70 KCAL/MOL
REMARK 922        TOTAL FREE ENERGY PREDICTED BY IDOCK:   -8.16 KCAL/MOL
REMARK 923 INTER-LIGAND FREE ENERGY PREDICTED BY IDOCK:   -7.18 KCAL/MOL
REMARK 924 INTRA-LIGAND FREE ENERGY PREDICTED BY IDOCK:   -0.98 KCAL/MOL
REMARK 927      BINDING AFFINITY PREDICTED BY RF-SCORE:    0.00 PKD
ROOT
HETATM    1  O   UNL     1     -11.709   8.149  72.488  1.00  0.00    -0.378 OA 
HETATM    2  C   UNL     1     -10.768   7.535  71.937  1.00  0.00    -0.217 C  
HETATM    3  CA  UNL     1     -10.202   8.148  70.581  1.00  0.00    -0.196 C  
HETATM    4  OXT UNL     1     -10.191   6.464  72.302  1.00  0.00    -0.184 OA 
HETATM    5  C   UNL     1      -8.996   7.745  70.105  1.00  0.00    -0.146 C  
HETATM    6  C   UNL     1      -8.316   8.268  68.868  1.00  0.00    -0.127 C  
HETATM    7  CA  UNL     1     -11.283  10.850  68.833  1.00  0.00    -0.267 C  
HETATM    8  S   UNL     1      -9.196   9.299  67.708  1.00  0.00    -0.128 SA 
HETATM    9  N   UNL     1     -10.852   9.149  69.920  1.00  0.00    -0.232 N  
HETATM   10  O   UNL     1     -12.053  10.733  71.250  1.00  0.00    -0.330 OA 
HETATM   11  C   UNL     1     -10.802   9.402  68.502  1.00  0.00    -0.105 C  
HETATM   12  C   UNL     1     -11.592  10.243  70.248  1.00  0.00    -0.316 C  
ENDROOT
BRANCH   5  13
HETATM   13  C   UNL     1      -8.105   6.752  70.830  1.00  0.00    -0.118 C  
BRANCH  13  14
HETATM   14  N   UNL     1      -7.848   5.449  70.143  1.00  0.00    -0.080 NA 
HETATM   15  C   UNL     1      -8.603   3.384  69.213  1.00  0.00    -0.112 A  
HETATM   16  C   UNL     1      -7.323   2.858  69.315  1.00  0.00    -0.044 A  
HETATM   17  C   UNL     1      -8.845   4.695  69.622  1.00  0.00    -0.083 A  
HETATM   18  C   UNL     1      -6.579   4.976  70.157  1.00  0.00    -0.036 A  
HETATM   19  C   UNL     1      -6.296   3.670  69.770  1.00  0.00    -0.028 A  
ENDBRANCH  13  14
ENDBRANCH   5  13
BRANCH   7  20
HETATM   20  N   UNL     1     -10.276  11.985  68.854  1.00  0.00    -0.407 N  
HETATM   21  H   UNL     1      -9.296  11.778  68.661  1.00  0.00     0.000 HD 
HETATM   22  O   UNL     1     -11.750  13.663  69.503  1.00  0.00    -0.284 OA 
HETATM   23  C   UNL     1     -10.643  13.292  69.126  1.00  0.00     0.025 C  
BRANCH  23  24
HETATM   24  C   UNL     1      -9.615  14.384  68.933  1.00  0.00    -0.123 C  
BRANCH  24  25
HETATM   25  N   UNL     1      -9.850  15.666  68.881  1.00  0.00    -0.207 NA 
HETATM   26  H   UNL     1     -10.710  16.072  69.251  1.00  0.00     0.000 HD 
BRANCH  25  27
HETATM   27  O   UNL     1      -8.855  16.452  68.289  1.00  0.00    -0.192 OA 
HETATM   28  C   UNL     1      -8.215  17.815  66.434  1.00  0.00    -0.290 C  
HETATM   29  C   UNL     1     -10.310  18.295  67.712  1.00  0.00    -0.419 C  
HETATM   30  O   UNL     1     -10.854  15.280  66.615  1.00  0.00    -0.308 OA 
HETATM   31  O   UNL     1     -10.309  16.666  64.938  1.00  0.00    -0.577 OA 
HETATM   32  C   UNL     1      -9.407  17.179  67.169  1.00  0.00    -0.245 C  
HETATM   33  C   UNL     1     -10.208  16.361  66.119  1.00  0.00    -0.348 C  
ENDBRANCH  25  27
ENDBRANCH  24  25
BRANCH  24  34
HETATM   34  C   UNL     1      -8.225  13.996  68.672  1.00  0.00    -0.103 A  
HETATM   35  H2  UNL     1      -5.061  11.953  66.675  1.00  0.00     0.000 HD 
HETATM   36  C   UNL     1      -7.157  14.229  69.521  1.00  0.00    -0.045 A  
HETATM   37  S   UNL     1      -5.736  13.513  68.891  1.00  0.00    -0.078 SA 
HETATM   38  H1  UNL     1      -6.582  11.845  65.794  1.00  0.00     0.000 HD 
HETATM   39  N   UNL     1      -6.051  12.187  66.595  1.00  0.00    -0.134 NA 
HETATM   40  N   UNL     1      -7.891  13.281  67.520  1.00  0.00    -0.163 NA 
HETATM   41  C   UNL     1      -6.629  12.938  67.545  1.00  0.00    -0.157 A  
ENDBRANCH  24  34
ENDBRANCH  23  24
ENDBRANCH   7  20
TORSDOF 7
ENDMDL
MODEL      138
REMARK 921   NORMALIZED FREE ENERGY PREDICTED BY IDOCK:   -4.68 KCAL/MOL
REMARK 922        TOTAL FREE ENERGY PREDICTED BY IDOCK:   -8.14 KCAL/MOL
REMARK 923 INTER-LIGAND FREE ENERGY PREDICTED BY IDOCK:   -6.56 KCAL/MOL
REMARK 924 INTRA-LIGAND FREE ENERGY PREDICTED BY IDOCK:   -1.58 KCAL/MOL
REMARK 927      BINDING AFFINITY PREDICTED BY RF-SCORE:    0.00 PKD
ROOT
HETATM    1  O   UNL     1     -11.618  13.877  65.802  1.00  0.00    -0.322 OA 
HETATM    2  C   UNL     1     -11.688  14.660  66.774  1.00  0.00    -0.341 C  
HETATM    3  CA  UNL     1     -11.822  14.007  68.219  1.00  0.00    -0.371 C  
HETATM    4  OXT UNL     1     -11.679  15.931  66.778  1.00  0.00     0.296 OA 
HETATM    5  C   UNL     1     -11.576  14.752  69.327  1.00  0.00    -0.331 C  
HETATM    6  C   UNL     1     -11.618  14.260  70.750  1.00  0.00    -0.120 C  
HETATM    7  CA  UNL     1     -12.106  10.734  69.075  1.00  0.00    -0.098 C  
HETATM    8  S   UNL     1     -12.304  12.662  71.144  1.00  0.00     0.023 SA 
HETATM    9  N   UNL     1     -12.088  12.679  68.385  1.00  0.00    -0.198 N  
HETATM   10  O   UNL     1     -11.209  11.179  66.742  1.00  0.00    -0.273 OA 
HETATM   11  C   UNL     1     -12.765  12.082  69.509  1.00  0.00     0.613 C  
HETATM   12  C   UNL     1     -11.775  11.515  67.754  1.00  0.00    -0.227 C  
ENDROOT
BRANCH   5  13
HETATM   13  C   UNL     1     -11.121  16.200  69.272  1.00  0.00    -0.327 C  
BRANCH  13  14
HETATM   14  N   UNL     1      -9.659  16.442  69.072  1.00  0.00    -0.259 NA 
HETATM   15  C   UNL     1      -7.370  15.872  69.439  1.00  0.00    -0.217 A  
HETATM   16  C   UNL     1      -6.984  17.162  69.096  1.00  0.00    -0.224 A  
HETATM   17  C   UNL     1      -8.721  15.525  69.407  1.00  0.00    -0.258 A  
HETATM   18  C   UNL     1      -9.283  17.671  68.645  1.00  0.00    -0.266 A  
HETATM   19  C   UNL     1      -7.948  18.062  68.672  1.00  0.00    -0.303 A  
ENDBRANCH  13  14
ENDBRANCH   5  13
BRANCH   7  20
HETATM   20  N   UNL     1     -10.882  10.229  69.818  1.00  0.00    -0.267 N  
HETATM   21  H   UNL     1     -10.505  10.787  70.585  1.00  0.00     0.000 HD 
HETATM   22  O   UNL     1     -10.519   8.337  68.515  1.00  0.00    -0.207 OA 
HETATM   23  C   UNL     1     -10.260   9.037  69.489  1.00  0.00    -0.203 C  
BRANCH  23  24
HETATM   24  C   UNL     1      -9.172   8.516  70.401  1.00  0.00    -0.160 C  
BRANCH  24  25
HETATM   25  N   UNL     1      -9.339   7.754  71.446  1.00  0.00    -0.140 NA 
HETATM   26  H   UNL     1      -9.587   8.137  72.358  1.00  0.00     0.000 HD 
BRANCH  25  27
HETATM   27  O   UNL     1      -9.158   6.381  71.243  1.00  0.00    -0.148 OA 
HETATM   28  C   UNL     1      -9.849   4.163  71.801  1.00  0.00    -0.252 C  
HETATM   29  C   UNL     1     -11.507   5.857  71.004  1.00  0.00    -0.139 C  
HETATM   30  O   UNL     1     -10.334   7.261  73.695  1.00  0.00    -0.347 OA 
HETATM   31  O   UNL     1     -11.078   5.187  74.121  1.00  0.00    -0.240 OA 
HETATM   32  C   UNL     1     -10.245   5.648  71.852  1.00  0.00    -0.195 C  
HETATM   33  C   UNL     1     -10.582   5.981  73.331  1.00  0.00    -0.260 C  
ENDBRANCH  25  27
ENDBRANCH  24  25
BRANCH  24  34
HETATM   34  C   UNL     1      -7.797   8.977  70.181  1.00  0.00    -0.100 A  
HETATM   35  H2  UNL     1      -4.413  11.519  70.691  1.00  0.00     0.000 HD 
HETATM   36  C   UNL     1      -6.960   8.540  69.170  1.00  0.00    -0.063 A  
HETATM   37  S   UNL     1      -5.490   9.416  69.202  1.00  0.00    -0.036 SA 
HETATM   38  H1  UNL     1      -5.670  11.839  71.883  1.00  0.00     0.000 HD 
HETATM   39  N   UNL     1      -5.329  11.303  71.085  1.00  0.00    -0.264 NA 
HETATM   40  N   UNL     1      -7.246   9.978  70.985  1.00  0.00    -0.217 NA 
HETATM   41  C   UNL     1      -6.063  10.318  70.543  1.00  0.00    -0.114 A  
ENDBRANCH  24  34
ENDBRANCH  23  24
ENDBRANCH   7  20
TORSDOF 7
ENDMDL
MODEL      139
REMARK 921   NORMALIZED FREE ENERGY PREDICTED BY IDOCK:   -4.67 KCAL/MOL
REMARK 922        TOTAL FREE ENERGY PREDICTED BY IDOCK:   -8.12 KCAL/MOL
REMARK 923 INTER-LIGAND FREE ENERGY PREDICTED BY IDOCK:   -6.96 KCAL/MOL
REMARK 924 INTRA-LIGAND FREE ENERGY PREDICTED BY IDOCK:   -1.17 KCAL/MOL
REMARK 927      BINDING AFFINITY PREDICTED BY RF-SCORE:    0.00 PKD
ROOT
HETATM    1  O   UNL     1      -6.143  14.392  70.278  1.00  0.00    -0.148 OA 
HETATM    2  C   UNL     1      -6.758  14.496  69.193  1.00  0.00    -0.115 C  
HETATM    3  CA  UNL     1      -7.000  13.156  68.369  1.00  0.00    -0.104 C  
HETATM    4  OXT UNL     1      -7.219  15.539  68.633  1.00  0.00    -0.115 OA 
HETATM    5  C   UNL     1      -7.922  13.128  67.374  1.00  0.00    -0.174 C  
HETATM    6  C   UNL     1      -8.290  11.926  66.544  1.00  0.00    -0.062 C  
HETATM    7  CA  UNL     1      -5.946  10.001  69.048  1.00  0.00    -0.037 C  
HETATM    8  S   UNL     1      -7.304  10.440  66.600  1.00  0.00    -0.120 SA 
HETATM    9  N   UNL     1      -6.371  11.989  68.695  1.00  0.00    -0.055 N  
HETATM   10  O   UNL     1      -5.910  11.610  71.012  1.00  0.00    -0.370 OA 
HETATM   11  C   UNL     1      -6.045  10.918  67.788  1.00  0.00    -0.046 C  
HETATM   12  C   UNL     1      -5.964  11.362  69.832  1.00  0.00    -0.122 C  
ENDROOT
BRANCH   5  13
HETATM   13  C   UNL     1      -8.797  14.316  67.016  1.00  0.00    -0.226 C  
BRANCH  13  14
HETATM   14  N   UNL     1     -10.073  14.023  66.295  1.00  0.00    -0.291 NA 
HETATM   15  C   UNL     1     -11.564  14.339  64.458  1.00  0.00    -0.397 A  
HETATM   16  C   UNL     1     -12.618  13.844  65.214  1.00  0.00    -0.508 A  
HETATM   17  C   UNL     1     -10.287  14.409  65.015  1.00  0.00    -0.421 A  
HETATM   18  C   UNL     1     -11.074  13.450  67.006  1.00  0.00    -0.292 A  
HETATM   19  C   UNL     1     -12.365  13.372  66.493  1.00  0.00    -0.354 A  
ENDBRANCH  13  14
ENDBRANCH   5  13
BRANCH   7  20
HETATM   20  N   UNL     1      -7.098   9.074  69.391  1.00  0.00    -0.056 N  
HETATM   21  H   UNL     1      -7.928   9.464  69.838  1.00  0.00     0.000 HD 
HETATM   22  O   UNL     1      -6.085   7.095  68.708  1.00  0.00    -0.028 OA 
HETATM   23  C   UNL     1      -7.060   7.718  69.116  1.00  0.00    -0.073 C  
BRANCH  23  24
HETATM   24  C   UNL     1      -8.321   6.907  69.310  1.00  0.00    -0.129 C  
BRANCH  24  25
HETATM   25  N   UNL     1      -9.060   6.872  70.384  1.00  0.00    -0.156 NA 
HETATM   26  H   UNL     1      -8.653   6.775  71.315  1.00  0.00     0.000 HD 
BRANCH  25  27
HETATM   27  O   UNL     1     -10.442   6.974  70.186  1.00  0.00    -0.204 OA 
HETATM   28  C   UNL     1     -12.623   6.797  71.144  1.00  0.00    -0.305 C  
HETATM   29  C   UNL     1     -10.881   8.255  72.191  1.00  0.00    -0.390 C  
HETATM   30  O   UNL     1      -9.479   5.321  72.310  1.00  0.00    -0.141 OA 
HETATM   31  O   UNL     1     -11.516   5.284  73.249  1.00  0.00    -0.294 OA 
HETATM   32  C   UNL     1     -11.124   6.927  71.460  1.00  0.00    -0.244 C  
HETATM   33  C   UNL     1     -10.755   5.761  72.418  1.00  0.00    -0.235 C  
ENDBRANCH  25  27
ENDBRANCH  24  25
BRANCH  24  34
HETATM   34  C   UNL     1      -8.725   5.980  68.248  1.00  0.00    -0.113 A  
HETATM   35  H2  UNL     1      -9.013   2.219  66.261  1.00  0.00     0.000 HD 
HETATM   36  C   UNL     1      -9.223   6.350  67.010  1.00  0.00    -0.129 A  
HETATM   37  S   UNL     1      -9.457   4.967  66.030  1.00  0.00    -0.173 SA 
HETATM   38  H1  UNL     1      -8.410   2.057  67.908  1.00  0.00     0.000 HD 
HETATM   39  N   UNL     1      -8.755   2.647  67.151  1.00  0.00    -0.109 NA 
HETATM   40  N   UNL     1      -8.567   4.602  68.409  1.00  0.00    -0.097 NA 
HETATM   41  C   UNL     1      -8.876   3.974  67.303  1.00  0.00    -0.119 A  
ENDBRANCH  24  34
ENDBRANCH  23  24
ENDBRANCH   7  20
TORSDOF 7
ENDMDL
MODEL      140
REMARK 921   NORMALIZED FREE ENERGY PREDICTED BY IDOCK:   -4.66 KCAL/MOL
REMARK 922        TOTAL FREE ENERGY PREDICTED BY IDOCK:   -8.11 KCAL/MOL
REMARK 923 INTER-LIGAND FREE ENERGY PREDICTED BY IDOCK:   -7.16 KCAL/MOL
REMARK 924 INTRA-LIGAND FREE ENERGY PREDICTED BY IDOCK:   -0.95 KCAL/MOL
REMARK 927      BINDING AFFINITY PREDICTED BY RF-SCORE:    0.00 PKD
ROOT
HETATM    1  O   UNL     1      -6.633  12.460  68.467  1.00  0.00    -0.063 OA 
HETATM    2  C   UNL     1      -7.777  12.841  68.132  1.00  0.00    -0.137 C  
HETATM    3  CA  UNL     1      -8.535  11.974  67.034  1.00  0.00    -0.183 C  
HETATM    4  OXT UNL     1      -8.434  13.849  68.541  1.00  0.00    -0.157 OA 
HETATM    5  C   UNL     1      -9.873  12.118  66.859  1.00  0.00    -0.213 C  
HETATM    6  C   UNL     1     -10.727  11.336  65.896  1.00  0.00    -0.232 C  
HETATM    7  CA  UNL     1      -7.435   9.265  65.308  1.00  0.00    -0.098 C  
HETATM    8  S   UNL     1      -9.984  10.310  64.641  1.00  0.00    -0.222 SA 
HETATM    9  N   UNL     1      -7.893  11.007  66.315  1.00  0.00    -0.158 N  
HETATM   10  O   UNL     1      -6.132   9.820  67.415  1.00  0.00    -0.057 OA 
HETATM   11  C   UNL     1      -8.241  10.564  64.988  1.00  0.00    -0.120 C  
HETATM   12  C   UNL     1      -6.907  10.095  66.532  1.00  0.00    -0.090 C  
ENDROOT
BRANCH   5  13
HETATM   13  C   UNL     1     -10.727  13.048  67.702  1.00  0.00    -0.227 C  
BRANCH  13  14
HETATM   14  N   UNL     1     -11.265  12.496  68.983  1.00  0.00    -0.264 NA 
HETATM   15  C   UNL     1     -12.087  10.686  70.306  1.00  0.00    -0.423 A  
HETATM   16  C   UNL     1     -12.693  11.584  71.175  1.00  0.00    -0.458 A  
HETATM   17  C   UNL     1     -11.361  11.166  69.215  1.00  0.00    -0.281 A  
HETATM   18  C   UNL     1     -11.771  13.377  69.878  1.00  0.00    -0.267 A  
HETATM   19  C   UNL     1     -12.512  12.943  70.972  1.00  0.00    -0.374 A  
ENDBRANCH  13  14
ENDBRANCH   5  13
BRANCH   7  20
HETATM   20  N   UNL     1      -8.180   8.000  65.694  1.00  0.00    -0.128 N  
HETATM   21  H   UNL     1      -8.207   7.223  65.034  1.00  0.00     0.000 HD 
HETATM   22  O   UNL     1      -8.988   8.758  67.739  1.00  0.00    -0.135 OA 
HETATM   23  C   UNL     1      -8.825   7.867  66.911  1.00  0.00    -0.133 C  
BRANCH  23  24
HETATM   24  C   UNL     1      -9.373   6.510  67.292  1.00  0.00    -0.121 C  
BRANCH  24  25
HETATM   25  N   UNL     1      -9.649   6.099  68.498  1.00  0.00    -0.118 NA 
HETATM   26  H   UNL     1      -9.019   5.488  69.018  1.00  0.00     0.000 HD 
BRANCH  25  27
HETATM   27  O   UNL     1     -10.861   6.545  69.039  1.00  0.00    -0.250 OA 
HETATM   28  C   UNL     1     -12.175   6.886  71.005  1.00  0.00    -0.427 C  
HETATM   29  C   UNL     1      -9.870   7.840  70.825  1.00  0.00    -0.183 C  
HETATM   30  O   UNL     1      -9.315   4.648  70.517  1.00  0.00    -0.132 OA 
HETATM   31  O   UNL     1     -10.490   5.091  72.377  1.00  0.00    -0.205 OA 
HETATM   32  C   UNL     1     -10.752   6.633  70.478  1.00  0.00    -0.247 C  
HETATM   33  C   UNL     1     -10.202   5.387  71.224  1.00  0.00    -0.223 C  
ENDBRANCH  25  27
ENDBRANCH  24  25
BRANCH  24  34
HETATM   34  C   UNL     1      -9.520   5.497  66.242  1.00  0.00    -0.157 A  
HETATM   35  H2  UNL     1      -8.296   3.126  62.917  1.00  0.00     0.000 HD 
HETATM   36  C   UNL     1     -10.717   4.924  65.846  1.00  0.00    -0.179 A  
HETATM   37  S   UNL     1     -10.459   3.880  64.515  1.00  0.00    -0.139 SA 
HETATM   38  H1  UNL     1      -6.945   3.980  63.658  1.00  0.00     0.000 HD 
HETATM   39  N   UNL     1      -7.940   3.753  63.639  1.00  0.00    -0.086 NA 
HETATM   40  N   UNL     1      -8.414   5.073  65.502  1.00  0.00    -0.128 NA 
HETATM   41  C   UNL     1      -8.787   4.262  64.546  1.00  0.00    -0.143 A  
ENDBRANCH  24  34
ENDBRANCH  23  24
ENDBRANCH   7  20
TORSDOF 7
ENDMDL
MODEL      141
REMARK 921   NORMALIZED FREE ENERGY PREDICTED BY IDOCK:   -4.66 KCAL/MOL
REMARK 922        TOTAL FREE ENERGY PREDICTED BY IDOCK:   -8.11 KCAL/MOL
REMARK 923 INTER-LIGAND FREE ENERGY PREDICTED BY IDOCK:   -6.70 KCAL/MOL
REMARK 924 INTRA-LIGAND FREE ENERGY PREDICTED BY IDOCK:   -1.41 KCAL/MOL
REMARK 927      BINDING AFFINITY PREDICTED BY RF-SCORE:    0.00 PKD
ROOT
HETATM    1  O   UNL     1      -6.095  12.361  68.460  1.00  0.00    -0.053 OA 
HETATM    2  C   UNL     1      -7.233  12.860  68.319  1.00  0.00    -0.112 C  
HETATM    3  CA  UNL     1      -8.256  12.075  67.386  1.00  0.00    -0.168 C  
HETATM    4  OXT UNL     1      -7.701  13.933  68.814  1.00  0.00    -0.134 OA 
HETATM    5  C   UNL     1      -9.582  12.360  67.441  1.00  0.00    -0.184 C  
HETATM    6  C   UNL     1     -10.667  11.671  66.656  1.00  0.00    -0.270 C  
HETATM    7  CA  UNL     1      -7.760   9.261  65.553  1.00  0.00    -0.095 C  
HETATM    8  S   UNL     1     -10.263  10.569  65.313  1.00  0.00    -0.243 SA 
HETATM    9  N   UNL     1      -7.853  11.044  66.588  1.00  0.00    -0.148 N  
HETATM   10  O   UNL     1      -6.061   9.680  67.393  1.00  0.00    -0.057 OA 
HETATM   11  C   UNL     1      -8.470  10.637  65.350  1.00  0.00    -0.160 C  
HETATM   12  C   UNL     1      -6.945  10.033  66.650  1.00  0.00    -0.087 C  
ENDROOT
BRANCH   5  13
HETATM   13  C   UNL     1     -10.175  13.378  68.400  1.00  0.00    -0.251 C  
BRANCH  13  14
HETATM   14  N   UNL     1     -10.374  14.764  67.875  1.00  0.00    -0.239 NA 
HETATM   15  C   UNL     1     -10.151  16.409  66.161  1.00  0.00    -0.364 A  
HETATM   16  C   UNL     1     -10.311  17.422  67.097  1.00  0.00    -0.325 A  
HETATM   17  C   UNL     1     -10.199  15.077  66.570  1.00  0.00    -0.275 A  
HETATM   18  C   UNL     1     -10.626  15.742  68.778  1.00  0.00    -0.239 A  
HETATM   19  C   UNL     1     -10.576  17.083  68.415  1.00  0.00    -0.375 A  
ENDBRANCH  13  14
ENDBRANCH   5  13
BRANCH   7  20
HETATM   20  N   UNL     1      -8.555   8.083  66.088  1.00  0.00    -0.140 N  
HETATM   21  H   UNL     1      -9.343   8.262  66.710  1.00  0.00     0.000 HD 
HETATM   22  O   UNL     1      -7.254   6.406  65.135  1.00  0.00    -0.065 OA 
HETATM   23  C   UNL     1      -8.245   6.775  65.758  1.00  0.00    -0.135 C  
BRANCH  23  24
HETATM   24  C   UNL     1      -9.202   5.681  66.174  1.00  0.00    -0.159 C  
BRANCH  24  25
HETATM   25  N   UNL     1      -9.724   4.774  65.396  1.00  0.00    -0.274 NA 
HETATM   26  H   UNL     1     -10.585   4.941  64.876  1.00  0.00     0.000 HD 
BRANCH  25  27
HETATM   27  O   UNL     1      -9.034   3.558  65.317  1.00  0.00    -0.126 OA 
HETATM   28  C   UNL     1      -8.652   1.546  64.087  1.00  0.00    -0.082 C  
HETATM   29  C   UNL     1      -8.413   3.781  62.990  1.00  0.00    -0.086 C  
HETATM   30  O   UNL     1     -11.526   3.814  63.939  1.00  0.00    -0.115 OA 
HETATM   31  O   UNL     1     -11.071   1.991  62.712  1.00  0.00    -0.193 OA 
HETATM   32  C   UNL     1      -9.225   2.971  64.010  1.00  0.00    -0.112 C  
HETATM   33  C   UNL     1     -10.685   2.850  63.495  1.00  0.00    -0.228 C  
ENDBRANCH  25  27
ENDBRANCH  24  25
BRANCH  24  34
HETATM   34  C   UNL     1      -9.694   5.672  67.556  1.00  0.00    -0.124 A  
HETATM   35  H2  UNL     1     -11.303   7.353  71.128  1.00  0.00     0.000 HD 
HETATM   36  C   UNL     1      -9.530   4.634  68.457  1.00  0.00    -0.147 A  
HETATM   37  S   UNL     1     -10.150   5.079  69.988  1.00  0.00    -0.267 SA 
HETATM   38  H1  UNL     1     -11.397   8.468  69.768  1.00  0.00     0.000 HD 
HETATM   39  N   UNL     1     -11.138   7.555  70.141  1.00  0.00    -0.255 NA 
HETATM   40  N   UNL     1     -10.338   6.791  68.088  1.00  0.00    -0.174 NA 
HETATM   41  C   UNL     1     -10.585   6.615  69.361  1.00  0.00    -0.240 A  
ENDBRANCH  24  34
ENDBRANCH  23  24
ENDBRANCH   7  20
TORSDOF 7
ENDMDL
MODEL      142
REMARK 921   NORMALIZED FREE ENERGY PREDICTED BY IDOCK:   -4.65 KCAL/MOL
REMARK 922        TOTAL FREE ENERGY PREDICTED BY IDOCK:   -8.10 KCAL/MOL
REMARK 923 INTER-LIGAND FREE ENERGY PREDICTED BY IDOCK:   -7.33 KCAL/MOL
REMARK 924 INTRA-LIGAND FREE ENERGY PREDICTED BY IDOCK:   -0.77 KCAL/MOL
REMARK 927      BINDING AFFINITY PREDICTED BY RF-SCORE:    0.00 PKD
ROOT
HETATM    1  O   UNL     1     -11.422  16.322  63.659  1.00  0.00    -0.773 OA 
HETATM    2  C   UNL     1     -11.336  16.815  64.805  1.00  0.00     0.151 C  
HETATM    3  CA  UNL     1     -11.436  15.808  66.034  1.00  0.00     0.266 C  
HETATM    4  OXT UNL     1     -11.187  18.031  65.142  1.00  0.00    -0.362 OA 
HETATM    5  C   UNL     1     -11.030  16.200  67.268  1.00  0.00    -0.175 C  
HETATM    6  C   UNL     1     -11.023  15.346  68.508  1.00  0.00    -0.278 C  
HETATM    7  CA  UNL     1     -12.013  12.462  66.022  1.00  0.00    -0.350 C  
HETATM    8  S   UNL     1     -11.850  13.765  68.534  1.00  0.00    -0.373 SA 
HETATM    9  N   UNL     1     -11.833  14.512  65.869  1.00  0.00    -0.358 N  
HETATM   10  O   UNL     1     -11.244  13.446  63.811  1.00  0.00    -0.289 OA 
HETATM   11  C   UNL     1     -12.488  13.693  66.857  1.00  0.00    -0.141 C  
HETATM   12  C   UNL     1     -11.695  13.541  64.926  1.00  0.00    -0.357 C  
ENDROOT
BRANCH   5  13
HETATM   13  C   UNL     1     -10.425  17.563  67.551  1.00  0.00    -0.355 C  
BRANCH  13  14
HETATM   14  N   UNL     1      -9.012  17.587  68.040  1.00  0.00    -0.252 NA 
HETATM   15  C   UNL     1      -7.050  16.486  68.836  1.00  0.00    -0.200 A  
HETATM   16  C   UNL     1      -6.591  17.677  69.383  1.00  0.00    -0.206 A  
HETATM   17  C   UNL     1      -8.265  16.464  68.152  1.00  0.00    -0.170 A  
HETATM   18  C   UNL     1      -8.527  18.770  68.487  1.00  0.00    -0.345 A  
HETATM   19  C   UNL     1      -7.326  18.835  69.185  1.00  0.00    -0.225 A  
ENDBRANCH  13  14
ENDBRANCH   5  13
BRANCH   7  20
HETATM   20  N   UNL     1     -10.801  11.672  66.481  1.00  0.00    -0.273 N  
HETATM   21  H   UNL     1     -10.406  11.865  67.401  1.00  0.00     0.000 HD 
HETATM   22  O   UNL     1     -10.498  10.453  64.522  1.00  0.00    -0.249 OA 
HETATM   23  C   UNL     1     -10.215  10.697  65.691  1.00  0.00    -0.253 C  
BRANCH  23  24
HETATM   24  C   UNL     1      -9.139   9.827  66.301  1.00  0.00    -0.157 C  
BRANCH  24  25
HETATM   25  N   UNL     1      -8.870   9.706  67.571  1.00  0.00    -0.125 NA 
HETATM   26  H   UNL     1      -8.869  10.509  68.200  1.00  0.00     0.000 HD 
BRANCH  25  27
HETATM   27  O   UNL     1      -8.583   8.412  68.020  1.00  0.00    -0.133 OA 
HETATM   28  C   UNL     1      -9.071   6.680  69.592  1.00  0.00    -0.142 C  
HETATM   29  C   UNL     1     -10.887   7.702  68.209  1.00  0.00    -0.023 C  
HETATM   30  O   UNL     1      -9.750  10.271  69.851  1.00  0.00    -0.196 OA 
HETATM   31  O   UNL     1     -10.306   8.602  71.243  1.00  0.00    -0.204 OA 
HETATM   32  C   UNL     1      -9.586   7.989  68.971  1.00  0.00    -0.156 C  
HETATM   33  C   UNL     1      -9.903   8.958  70.143  1.00  0.00    -0.178 C  
ENDBRANCH  25  27
ENDBRANCH  24  25
BRANCH  24  34
HETATM   34  C   UNL     1      -8.223   9.117  65.401  1.00  0.00    -0.130 A  
HETATM   35  H2  UNL     1      -4.793   8.647  62.914  1.00  0.00     0.000 HD 
HETATM   36  C   UNL     1      -8.494   7.917  64.768  1.00  0.00     0.007 A  
HETATM   37  S   UNL     1      -7.208   7.498  63.720  1.00  0.00    -0.085 SA 
HETATM   38  H1  UNL     1      -4.718  10.118  63.879  1.00  0.00     0.000 HD 
HETATM   39  N   UNL     1      -5.207   9.264  63.613  1.00  0.00    -0.061 NA 
HETATM   40  N   UNL     1      -6.985   9.670  65.067  1.00  0.00    -0.105 NA 
HETATM   41  C   UNL     1      -6.385   8.935  64.166  1.00  0.00    -0.072 A  
ENDBRANCH  24  34
ENDBRANCH  23  24
ENDBRANCH   7  20
TORSDOF 7
ENDMDL
MODEL      143
REMARK 921   NORMALIZED FREE ENERGY PREDICTED BY IDOCK:   -4.58 KCAL/MOL
REMARK 922        TOTAL FREE ENERGY PREDICTED BY IDOCK:   -7.99 KCAL/MOL
REMARK 923 INTER-LIGAND FREE ENERGY PREDICTED BY IDOCK:   -8.09 KCAL/MOL
REMARK 924 INTRA-LIGAND FREE ENERGY PREDICTED BY IDOCK:    0.11 KCAL/MOL
REMARK 927      BINDING AFFINITY PREDICTED BY RF-SCORE:    0.00 PKD
ROOT
HETATM    1  O   UNL     1     -10.575   6.503  66.785  1.00  0.00    -0.260 OA 
HETATM    2  C   UNL     1     -10.533   6.685  68.022  1.00  0.00    -0.216 C  
HETATM    3  CA  UNL     1      -9.528   7.798  68.555  1.00  0.00    -0.148 C  
HETATM    4  OXT UNL     1     -11.182   6.092  68.938  1.00  0.00    -0.344 OA 
HETATM    5  C   UNL     1      -9.656   8.281  69.817  1.00  0.00    -0.171 C  
HETATM    6  C   UNL     1      -8.812   9.362  70.439  1.00  0.00    -0.249 C  
HETATM    7  CA  UNL     1      -7.314   9.696  66.817  1.00  0.00    -0.091 C  
HETATM    8  S   UNL     1      -7.320   9.929  69.641  1.00  0.00    -0.133 SA 
HETATM    9  N   UNL     1      -8.585   8.361  67.743  1.00  0.00    -0.130 N  
HETATM   10  O   UNL     1      -9.149   8.617  65.433  1.00  0.00    -0.179 OA 
HETATM   11  C   UNL     1      -7.320   8.908  68.165  1.00  0.00    -0.084 C  
HETATM   12  C   UNL     1      -8.485   8.722  66.436  1.00  0.00    -0.121 C  
ENDROOT
BRANCH   5  13
HETATM   13  C   UNL     1     -10.760   7.848  70.765  1.00  0.00    -0.223 C  
BRANCH  13  14
HETATM   14  N   UNL     1     -10.456   6.703  71.677  1.00  0.00    -0.206 NA 
HETATM   15  C   UNL     1      -9.045   4.923  72.410  1.00  0.00    -0.144 A  
HETATM   16  C   UNL     1     -10.123   4.313  73.039  1.00  0.00    -0.207 A  
HETATM   17  C   UNL     1      -9.230   6.132  71.741  1.00  0.00    -0.144 A  
HETATM   18  C   UNL     1     -11.490   6.164  72.367  1.00  0.00    -0.303 A  
HETATM   19  C   UNL     1     -11.352   4.953  73.037  1.00  0.00    -0.354 A  
ENDBRANCH  13  14
ENDBRANCH   5  13
BRANCH   7  20
HETATM   20  N   UNL     1      -7.702  11.164  66.808  1.00  0.00    -0.147 N  
HETATM   21  H   UNL     1      -6.986  11.861  66.604  1.00  0.00     0.000 HD 
HETATM   22  O   UNL     1      -9.917  10.876  67.455  1.00  0.00    -0.170 OA 
HETATM   23  C   UNL     1      -8.994  11.586  67.067  1.00  0.00    -0.174 C  
BRANCH  23  24
HETATM   24  C   UNL     1      -9.335  13.042  66.847  1.00  0.00    -0.241 C  
BRANCH  24  25
HETATM   25  N   UNL     1      -8.749  14.066  67.402  1.00  0.00    -0.195 NA 
HETATM   26  H   UNL     1      -9.280  14.832  67.818  1.00  0.00     0.000 HD 
BRANCH  25  27
HETATM   27  O   UNL     1      -7.349  14.053  67.396  1.00  0.00    -0.177 OA 
HETATM   28  C   UNL     1      -5.331  14.963  68.297  1.00  0.00    -0.112 C  
HETATM   29  C   UNL     1      -7.094  14.024  69.802  1.00  0.00     0.169 C  
HETATM   30  O   UNL     1      -8.695  16.415  68.282  1.00  0.00    -0.190 OA 
HETATM   31  O   UNL     1      -6.808  17.176  69.227  1.00  0.00    -0.234 OA 
HETATM   32  C   UNL     1      -6.847  14.821  68.514  1.00  0.00    -0.107 C  
HETATM   33  C   UNL     1      -7.418  16.253  68.702  1.00  0.00    -0.185 C  
ENDBRANCH  25  27
ENDBRANCH  24  25
BRANCH  24  34
HETATM   34  C   UNL     1     -10.498  13.368  66.016  1.00  0.00    -0.294 A  
HETATM   35  H2  UNL     1     -13.932  12.547  63.626  1.00  0.00     0.000 HD 
HETATM   36  C   UNL     1     -10.765  14.610  65.466  1.00  0.00    -0.349 A  
HETATM   37  S   UNL     1     -12.156  14.529  64.472  1.00  0.00    -0.446 SA 
HETATM   38  H1  UNL     1     -13.362  11.118  64.484  1.00  0.00     0.000 HD 
HETATM   39  N   UNL     1     -13.273  12.112  64.272  1.00  0.00    -0.725 NA 
HETATM   40  N   UNL     1     -11.420  12.381  65.664  1.00  0.00    -0.351 NA 
HETATM   41  C   UNL     1     -12.306  12.858  64.828  1.00  0.00    -0.459 A  
ENDBRANCH  24  34
ENDBRANCH  23  24
ENDBRANCH   7  20
TORSDOF 7
ENDMDL
MODEL      144
REMARK 921   NORMALIZED FREE ENERGY PREDICTED BY IDOCK:   -4.57 KCAL/MOL
REMARK 922        TOTAL FREE ENERGY PREDICTED BY IDOCK:   -7.98 KCAL/MOL
REMARK 923 INTER-LIGAND FREE ENERGY PREDICTED BY IDOCK:   -7.68 KCAL/MOL
REMARK 924 INTRA-LIGAND FREE ENERGY PREDICTED BY IDOCK:   -0.30 KCAL/MOL
REMARK 927      BINDING AFFINITY PREDICTED BY RF-SCORE:    0.00 PKD
ROOT
HETATM    1  O   UNL     1      -8.907   7.957  68.504  1.00  0.00    -0.134 OA 
HETATM    2  C   UNL     1      -9.117   8.198  67.294  1.00  0.00    -0.138 C  
HETATM    3  CA  UNL     1      -9.850   9.567  66.948  1.00  0.00    -0.204 C  
HETATM    4  OXT UNL     1      -8.835   7.489  66.278  1.00  0.00    -0.148 OA 
HETATM    5  C   UNL     1      -9.820  10.052  65.680  1.00  0.00    -0.363 C  
HETATM    6  C   UNL     1     -10.426  11.350  65.216  1.00  0.00    -0.283 C  
HETATM    7  CA  UNL     1     -11.096  11.924  69.050  1.00  0.00    -0.246 C  
HETATM    8  S   UNL     1     -11.532  12.271  66.271  1.00  0.00    -0.381 SA 
HETATM    9  N   UNL     1     -10.436  10.332  67.914  1.00  0.00    -0.196 N  
HETATM   10  O   UNL     1      -9.419  10.320  70.079  1.00  0.00    -0.122 OA 
HETATM   11  C   UNL     1     -11.552  11.225  67.730  1.00  0.00    -0.230 C  
HETATM   12  C   UNL     1     -10.195  10.649  69.215  1.00  0.00    -0.213 C  
ENDROOT
BRANCH   5  13
HETATM   13  C   UNL     1      -9.070   9.373  64.548  1.00  0.00    -0.150 C  
BRANCH  13  14
HETATM   14  N   UNL     1      -7.790  10.010  64.108  1.00  0.00    -0.142 NA 
HETATM   15  C   UNL     1      -6.274  10.711  62.403  1.00  0.00    -0.150 A  
HETATM   16  C   UNL     1      -5.237  10.745  63.325  1.00  0.00    -0.165 A  
HETATM   17  C   UNL     1      -7.556  10.351  62.820  1.00  0.00    -0.131 A  
HETATM   18  C   UNL     1      -6.806  10.132  65.031  1.00  0.00    -0.132 A  
HETATM   19  C   UNL     1      -5.511  10.476  64.657  1.00  0.00    -0.137 A  
ENDBRANCH  13  14
ENDBRANCH   5  13
BRANCH   7  20
HETATM   20  N   UNL     1     -10.319  13.225  68.975  1.00  0.00    -0.432 N  
HETATM   21  H   UNL     1     -10.741  14.074  69.353  1.00  0.00     0.000 HD 
HETATM   22  O   UNL     1      -8.487  12.397  67.805  1.00  0.00    -0.148 OA 
HETATM   23  C   UNL     1      -9.057  13.299  68.412  1.00  0.00    -0.137 C  
BRANCH  23  24
HETATM   24  C   UNL     1      -8.277  14.586  68.555  1.00  0.00    -0.154 C  
BRANCH  24  25
HETATM   25  N   UNL     1      -8.463  15.682  67.872  1.00  0.00    -0.149 NA 
HETATM   26  H   UNL     1      -8.293  15.727  66.868  1.00  0.00     0.000 HD 
BRANCH  25  27
HETATM   27  O   UNL     1      -8.909  16.792  68.599  1.00  0.00    -0.238 OA 
HETATM   28  C   UNL     1     -10.180  18.815  68.591  1.00  0.00    -0.366 C  
HETATM   29  C   UNL     1     -11.211  16.653  67.869  1.00  0.00    -0.114 C  
HETATM   30  O   UNL     1      -8.763  16.985  65.750  1.00  0.00    -0.522 OA 
HETATM   31  O   UNL     1     -10.067  18.811  65.775  1.00  0.00    -0.519 OA 
HETATM   32  C   UNL     1      -9.926  17.493  67.848  1.00  0.00    -0.312 C  
HETATM   33  C   UNL     1      -9.595  17.853  66.373  1.00  0.00    -0.286 C  
ENDBRANCH  25  27
ENDBRANCH  24  25
BRANCH  24  34
HETATM   34  C   UNL     1      -7.126  14.608  69.463  1.00  0.00    -0.152 A  
HETATM   35  H2  UNL     1      -4.629  13.205  72.621  1.00  0.00     0.000 HD 
HETATM   36  C   UNL     1      -6.281  15.687  69.657  1.00  0.00    -0.164 A  
HETATM   37  S   UNL     1      -5.143  15.332  70.885  1.00  0.00    -0.147 SA 
HETATM   38  H1  UNL     1      -5.823  12.005  72.134  1.00  0.00     0.000 HD 
HETATM   39  N   UNL     1      -5.403  12.927  72.017  1.00  0.00    -0.388 NA 
HETATM   40  N   UNL     1      -6.836  13.506  70.270  1.00  0.00     0.385 NA 
HETATM   41  C   UNL     1      -5.849  13.781  71.083  1.00  0.00    -0.172 A  
ENDBRANCH  24  34
ENDBRANCH  23  24
ENDBRANCH   7  20
TORSDOF 7
ENDMDL
MODEL      145
REMARK 921   NORMALIZED FREE ENERGY PREDICTED BY IDOCK:   -4.55 KCAL/MOL
REMARK 922        TOTAL FREE ENERGY PREDICTED BY IDOCK:   -7.96 KCAL/MOL
REMARK 923 INTER-LIGAND FREE ENERGY PREDICTED BY IDOCK:   -6.89 KCAL/MOL
REMARK 924 INTRA-LIGAND FREE ENERGY PREDICTED BY IDOCK:   -1.07 KCAL/MOL
REMARK 927      BINDING AFFINITY PREDICTED BY RF-SCORE:    0.00 PKD
ROOT
HETATM    1  O   UNL     1     -11.133   7.637  73.551  1.00  0.00    -0.315 OA 
HETATM    2  C   UNL     1     -10.169   6.886  73.282  1.00  0.00    -0.258 C  
HETATM    3  CA  UNL     1      -9.655   6.883  71.775  1.00  0.00    -0.159 C  
HETATM    4  OXT UNL     1      -9.531   6.099  74.048  1.00  0.00    -0.137 OA 
HETATM    5  C   UNL     1      -8.437   6.365  71.474  1.00  0.00    -0.129 C  
HETATM    6  C   UNL     1      -7.803   6.336  70.109  1.00  0.00    -0.106 C  
HETATM    7  CA  UNL     1     -10.902   8.530  69.081  1.00  0.00    -0.029 C  
HETATM    8  S   UNL     1      -8.752   6.734  68.652  1.00  0.00    -0.124 SA 
HETATM    9  N   UNL     1     -10.366   7.477  70.773  1.00  0.00    -0.202 N  
HETATM   10  O   UNL     1     -11.630   9.426  71.342  1.00  0.00    -0.323 OA 
HETATM   11  C   UNL     1     -10.350   7.100  69.382  1.00  0.00    -0.198 C  
HETATM   12  C   UNL     1     -11.158   8.574  70.630  1.00  0.00    -0.252 C  
ENDROOT
BRANCH   5  13
HETATM   13  C   UNL     1      -7.485   5.815  72.521  1.00  0.00    -0.096 C  
BRANCH  13  14
HETATM   14  N   UNL     1      -7.413   4.327  72.653  1.00  0.00    -0.072 NA 
HETATM   15  C   UNL     1      -7.908   2.298  73.809  1.00  0.00    -0.053 A  
HETATM   16  C   UNL     1      -6.873   1.654  73.143  1.00  0.00    -0.022 A  
HETATM   17  C   UNL     1      -8.172   3.641  73.539  1.00  0.00    -0.083 A  
HETATM   18  C   UNL     1      -6.466   3.682  71.931  1.00  0.00    -0.015 A  
HETATM   19  C   UNL     1      -6.161   2.347  72.176  1.00  0.00    -0.014 A  
ENDBRANCH  13  14
ENDBRANCH   5  13
BRANCH   7  20
HETATM   20  N   UNL     1      -9.955   9.605  68.580  1.00  0.00    -0.160 N  
HETATM   21  H   UNL     1      -8.950   9.466  68.687  1.00  0.00     0.000 HD 
HETATM   22  O   UNL     1     -11.581  11.127  67.909  1.00  0.00    -0.470 OA 
HETATM   23  C   UNL     1     -10.410  10.768  67.983  1.00  0.00    -0.182 C  
BRANCH  23  24
HETATM   24  C   UNL     1      -9.400  11.691  67.339  1.00  0.00    -0.168 C  
BRANCH  24  25
HETATM   25  N   UNL     1      -9.665  12.745  66.618  1.00  0.00    -0.246 NA 
HETATM   26  H   UNL     1      -9.973  12.672  65.648  1.00  0.00     0.000 HD 
BRANCH  25  27
HETATM   27  O   UNL     1      -9.504  13.982  67.253  1.00  0.00    -0.216 OA 
HETATM   28  C   UNL     1     -10.090  16.298  67.311  1.00  0.00    -0.264 C  
HETATM   29  C   UNL     1     -11.859  14.529  67.323  1.00  0.00    -0.419 C  
HETATM   30  O   UNL     1     -10.323  13.942  64.515  1.00  0.00    -0.436 OA 
HETATM   31  O   UNL     1     -10.981  16.083  64.646  1.00  0.00    -0.590 OA 
HETATM   32  C   UNL     1     -10.487  14.919  66.757  1.00  0.00    -0.284 C  
HETATM   33  C   UNL     1     -10.611  15.064  65.215  1.00  0.00    -0.397 C  
ENDBRANCH  25  27
ENDBRANCH  24  25
BRANCH  24  34
HETATM   34  C   UNL     1      -7.979  11.338  67.424  1.00  0.00    -0.132 A  
HETATM   35  H2  UNL     1      -4.533   8.890  66.868  1.00  0.00     0.000 HD 
HETATM   36  C   UNL     1      -7.037  11.994  68.198  1.00  0.00    -0.086 A  
HETATM   37  S   UNL     1      -5.529  11.191  68.099  1.00  0.00    -0.042 SA 
HETATM   38  H1  UNL     1      -5.923   8.297  65.963  1.00  0.00     0.000 HD 
HETATM   39  N   UNL     1      -5.509   8.989  66.588  1.00  0.00    -0.039 NA 
HETATM   40  N   UNL     1      -7.480  10.227  66.740  1.00  0.00    -0.104 NA 
HETATM   41  C   UNL     1      -6.224  10.027  67.048  1.00  0.00    -0.063 A  
ENDBRANCH  24  34
ENDBRANCH  23  24
ENDBRANCH   7  20
TORSDOF 7
ENDMDL
MODEL      146
REMARK 921   NORMALIZED FREE ENERGY PREDICTED BY IDOCK:   -4.50 KCAL/MOL
REMARK 922        TOTAL FREE ENERGY PREDICTED BY IDOCK:   -7.88 KCAL/MOL
REMARK 923 INTER-LIGAND FREE ENERGY PREDICTED BY IDOCK:   -6.07 KCAL/MOL
REMARK 924 INTRA-LIGAND FREE ENERGY PREDICTED BY IDOCK:   -1.81 KCAL/MOL
REMARK 927      BINDING AFFINITY PREDICTED BY RF-SCORE:    0.00 PKD
ROOT
HETATM    1  O   UNL     1      -5.747   4.901  68.857  1.00  0.00    -0.017 OA 
HETATM    2  C   UNL     1      -6.685   4.236  68.365  1.00  0.00    -0.047 C  
HETATM    3  CA  UNL     1      -8.087   4.973  68.208  1.00  0.00    -0.086 C  
HETATM    4  OXT UNL     1      -6.688   3.028  67.972  1.00  0.00    -0.043 OA 
HETATM    5  C   UNL     1      -9.043   4.449  67.400  1.00  0.00    -0.148 C  
HETATM    6  C   UNL     1     -10.393   5.056  67.118  1.00  0.00    -0.161 C  
HETATM    7  CA  UNL     1      -8.983   8.104  69.167  1.00  0.00    -0.144 C  
HETATM    8  S   UNL     1     -10.996   6.428  68.086  1.00  0.00    -0.264 SA 
HETATM    9  N   UNL     1      -8.332   6.182  68.792  1.00  0.00    -0.111 N  
HETATM   10  O   UNL     1      -6.484   7.687  68.996  1.00  0.00    -0.038 OA 
HETATM   11  C   UNL     1      -9.619   6.679  69.209  1.00  0.00    -0.143 C  
HETATM   12  C   UNL     1      -7.630   7.314  69.070  1.00  0.00    -0.099 C  
ENDROOT
BRANCH   5  13
HETATM   13  C   UNL     1      -8.837   3.191  66.574  1.00  0.00    -0.144 C  
BRANCH  13  14
HETATM   14  N   UNL     1      -8.540   3.378  65.121  1.00  0.00    -0.109 NA 
HETATM   15  C   UNL     1      -7.675   4.665  63.306  1.00  0.00    -0.064 A  
HETATM   16  C   UNL     1      -8.428   3.921  62.406  1.00  0.00    -0.077 A  
HETATM   17  C   UNL     1      -7.735   4.367  64.667  1.00  0.00    -0.077 A  
HETATM   18  C   UNL     1      -9.203   2.588  64.242  1.00  0.00    -0.126 A  
HETATM   19  C   UNL     1      -9.180   2.857  62.878  1.00  0.00    -0.094 A  
ENDBRANCH  13  14
ENDBRANCH   5  13
BRANCH   7  20
HETATM   20  N   UNL     1      -9.257   9.009  67.980  1.00  0.00    -0.135 N  
HETATM   21  H   UNL     1      -9.653   8.604  67.132  1.00  0.00     0.000 HD 
HETATM   22  O   UNL     1      -8.395  10.962  68.905  1.00  0.00    -0.145 OA 
HETATM   23  C   UNL     1      -8.988  10.367  68.011  1.00  0.00    -0.129 C  
BRANCH  23  24
HETATM   24  C   UNL     1      -9.472  11.224  66.862  1.00  0.00    -0.177 C  
BRANCH  24  25
HETATM   25  N   UNL     1     -10.078  12.374  66.958  1.00  0.00    -0.213 NA 
HETATM   26  H   UNL     1     -10.971  12.474  67.440  1.00  0.00     0.000 HD 
BRANCH  25  27
HETATM   27  O   UNL     1      -9.432  13.463  66.362  1.00  0.00    -0.262 OA 
HETATM   28  C   UNL     1      -9.035  15.819  66.387  1.00  0.00    -0.366 C  
HETATM   29  C   UNL     1      -8.627  14.431  68.427  1.00  0.00    -0.174 C  
HETATM   30  O   UNL     1     -11.799  13.943  67.890  1.00  0.00    -0.343 OA 
HETATM   31  O   UNL     1     -11.324  16.132  68.001  1.00  0.00    -0.326 OA 
HETATM   32  C   UNL     1      -9.545  14.626  67.213  1.00  0.00    -0.221 C  
HETATM   33  C   UNL     1     -10.965  14.996  67.721  1.00  0.00    -0.298 C  
ENDBRANCH  25  27
ENDBRANCH  24  25
BRANCH  24  34
HETATM   34  C   UNL     1      -9.359  10.692  65.500  1.00  0.00    -0.205 A  
HETATM   35  H2  UNL     1      -7.684   8.344  62.360  1.00  0.00     0.000 HD 
HETATM   36  C   UNL     1     -10.014  11.195  64.389  1.00  0.00    -0.301 A  
HETATM   37  S   UNL     1      -9.514  10.361  62.981  1.00  0.00    -0.314 SA 
HETATM   38  H1  UNL     1      -7.037   7.904  63.938  1.00  0.00     0.000 HD 
HETATM   39  N   UNL     1      -7.663   8.476  63.372  1.00  0.00    -0.131 NA 
HETATM   40  N   UNL     1      -8.495   9.632  65.219  1.00  0.00    -0.138 NA 
HETATM   41  C   UNL     1      -8.461   9.398  63.933  1.00  0.00    -0.197 A  
ENDBRANCH  24  34
ENDBRANCH  23  24
ENDBRANCH   7  20
TORSDOF 7
ENDMDL
MODEL      147
REMARK 921   NORMALIZED FREE ENERGY PREDICTED BY IDOCK:   -4.49 KCAL/MOL
REMARK 922        TOTAL FREE ENERGY PREDICTED BY IDOCK:   -7.87 KCAL/MOL
REMARK 923 INTER-LIGAND FREE ENERGY PREDICTED BY IDOCK:   -6.05 KCAL/MOL
REMARK 924 INTRA-LIGAND FREE ENERGY PREDICTED BY IDOCK:   -1.82 KCAL/MOL
REMARK 927      BINDING AFFINITY PREDICTED BY RF-SCORE:    0.00 PKD
ROOT
HETATM    1  O   UNL     1      -5.266  14.739  71.639  1.00  0.00    -0.150 OA 
HETATM    2  C   UNL     1      -5.630  15.174  70.525  1.00  0.00    -0.136 C  
HETATM    3  CA  UNL     1      -5.887  14.101  69.378  1.00  0.00    -0.090 C  
HETATM    4  OXT UNL     1      -5.819  16.377  70.161  1.00  0.00    -0.202 OA 
HETATM    5  C   UNL     1      -6.586  14.447  68.268  1.00  0.00    -0.116 C  
HETATM    6  C   UNL     1      -6.944  13.530  67.128  1.00  0.00     0.299 C  
HETATM    7  CA  UNL     1      -5.442  10.736  69.453  1.00  0.00    -0.037 C  
HETATM    8  S   UNL     1      -6.207  11.912  66.991  1.00  0.00    -0.112 SA 
HETATM    9  N   UNL     1      -5.505  12.797  69.517  1.00  0.00    -0.079 N  
HETATM   10  O   UNL     1      -5.576  11.871  71.721  1.00  0.00    -0.340 OA 
HETATM   11  C   UNL     1      -5.158  11.896  68.447  1.00  0.00    -0.046 C  
HETATM   12  C   UNL     1      -5.427  11.885  70.523  1.00  0.00    -0.154 C  
ENDROOT
BRANCH   5  13
HETATM   13  C   UNL     1      -7.197  15.822  68.064  1.00  0.00    -0.130 C  
BRANCH  13  14
HETATM   14  N   UNL     1      -8.642  15.978  68.415  1.00  0.00    -0.178 NA 
HETATM   15  C   UNL     1     -10.633  15.216  69.488  1.00  0.00    -0.277 A  
HETATM   16  C   UNL     1     -11.401  16.024  68.659  1.00  0.00    -0.383 A  
HETATM   17  C   UNL     1      -9.244  15.217  69.358  1.00  0.00    -0.233 A  
HETATM   18  C   UNL     1      -9.375  16.839  67.669  1.00  0.00    -0.228 A  
HETATM   19  C   UNL     1     -10.763  16.861  67.757  1.00  0.00    -0.315 A  
ENDBRANCH  13  14
ENDBRANCH   5  13
BRANCH   7  20
HETATM   20  N   UNL     1      -6.757   9.983  69.373  1.00  0.00    -0.055 N  
HETATM   21  H   UNL     1      -7.626  10.490  69.542  1.00  0.00     0.000 HD 
HETATM   22  O   UNL     1      -5.856   7.874  68.985  1.00  0.00    -0.032 OA 
HETATM   23  C   UNL     1      -6.816   8.632  69.078  1.00  0.00    -0.056 C  
BRANCH  23  24
HETATM   24  C   UNL     1      -8.170   8.008  68.826  1.00  0.00    -0.126 C  
BRANCH  24  25
HETATM   25  N   UNL     1      -9.120   7.840  69.704  1.00  0.00    -0.146 NA 
HETATM   26  H   UNL     1      -9.344   6.922  70.088  1.00  0.00     0.000 HD 
BRANCH  25  27
HETATM   27  O   UNL     1      -9.813   8.993  70.090  1.00  0.00    -0.170 OA 
HETATM   28  C   UNL     1     -11.685   9.912  71.257  1.00  0.00    -0.472 C  
HETATM   29  C   UNL     1     -10.113   8.337  72.399  1.00  0.00    -0.383 C  
HETATM   30  O   UNL     1     -11.239   6.520  69.945  1.00  0.00    -0.329 OA 
HETATM   31  O   UNL     1     -12.921   7.382  71.154  1.00  0.00    -0.319 OA 
HETATM   32  C   UNL     1     -10.818   8.655  71.073  1.00  0.00    -0.247 C  
HETATM   33  C   UNL     1     -11.777   7.483  70.730  1.00  0.00    -0.256 C  
ENDBRANCH  25  27
ENDBRANCH  24  25
BRANCH  24  34
HETATM   34  C   UNL     1      -8.437   7.428  67.505  1.00  0.00    -0.116 A  
HETATM   35  H2  UNL     1      -9.460   4.354  64.735  1.00  0.00     0.000 HD 
HETATM   36  C   UNL     1      -8.129   8.024  66.295  1.00  0.00    -0.112 A  
HETATM   37  S   UNL     1      -8.498   6.962  65.004  1.00  0.00     0.101 SA 
HETATM   38  H1  UNL     1      -9.772   3.878  66.402  1.00  0.00     0.000 HD 
HETATM   39  N   UNL     1      -9.455   4.577  65.731  1.00  0.00    -0.159 NA 
HETATM   40  N   UNL     1      -8.990   6.151  67.387  1.00  0.00    -0.113 NA 
HETATM   41  C   UNL     1      -9.031   5.785  66.132  1.00  0.00    -0.149 A  
ENDBRANCH  24  34
ENDBRANCH  23  24
ENDBRANCH   7  20
TORSDOF 7
ENDMDL
MODEL      148
REMARK 921   NORMALIZED FREE ENERGY PREDICTED BY IDOCK:   -4.46 KCAL/MOL
REMARK 922        TOTAL FREE ENERGY PREDICTED BY IDOCK:   -7.83 KCAL/MOL
REMARK 923 INTER-LIGAND FREE ENERGY PREDICTED BY IDOCK:   -6.32 KCAL/MOL
REMARK 924 INTRA-LIGAND FREE ENERGY PREDICTED BY IDOCK:   -1.51 KCAL/MOL
REMARK 927      BINDING AFFINITY PREDICTED BY RF-SCORE:    0.00 PKD
ROOT
HETATM    1  O   UNL     1      -6.163   5.682  70.827  1.00  0.00    -0.028 OA 
HETATM    2  C   UNL     1      -7.292   5.189  70.610  1.00  0.00    -0.069 C  
HETATM    3  CA  UNL     1      -8.506   6.206  70.455  1.00  0.00    -0.133 C  
HETATM    4  OXT UNL     1      -7.622   3.967  70.503  1.00  0.00    -0.044 OA 
HETATM    5  C   UNL     1      -9.674   5.789  69.902  1.00  0.00    -0.212 C  
HETATM    6  C   UNL     1     -10.887   6.646  69.651  1.00  0.00    -0.286 C  
HETATM    7  CA  UNL     1      -8.529   9.585  70.781  1.00  0.00    -0.028 C  
HETATM    8  S   UNL     1     -11.009   8.284  70.347  1.00  0.00    -0.225 SA 
HETATM    9  N   UNL     1      -8.382   7.527  70.776  1.00  0.00    -0.117 N  
HETATM   10  O   UNL     1      -6.244   8.538  70.418  1.00  0.00    -0.034 OA 
HETATM   11  C   UNL     1      -9.443   8.396  71.217  1.00  0.00    -0.186 C  
HETATM   12  C   UNL     1      -7.415   8.481  70.707  1.00  0.00    -0.072 C  
ENDROOT
BRANCH   5  13
HETATM   13  C   UNL     1      -9.886   4.386  69.364  1.00  0.00    -0.168 C  
BRANCH  13  14
HETATM   14  N   UNL     1      -9.681   4.187  67.896  1.00  0.00    -0.139 NA 
HETATM   15  C   UNL     1      -8.991   2.860  66.035  1.00  0.00    -0.146 A  
HETATM   16  C   UNL     1      -8.863   4.002  65.255  1.00  0.00    -0.127 A  
HETATM   17  C   UNL     1      -9.417   2.973  67.359  1.00  0.00    -0.111 A  
HETATM   18  C   UNL     1      -9.650   5.294  67.115  1.00  0.00    -0.141 A  
HETATM   19  C   UNL     1      -9.219   5.228  65.794  1.00  0.00    -0.159 A  
ENDBRANCH  13  14
ENDBRANCH   5  13
BRANCH   7  20
HETATM   20  N   UNL     1      -8.794  10.285  69.460  1.00  0.00    -0.308 N  
HETATM   21  H   UNL     1      -9.617  10.020  68.919  1.00  0.00     0.000 HD 
HETATM   22  O   UNL     1      -6.870  11.593  69.440  1.00  0.00    -0.115 OA 
HETATM   23  C   UNL     1      -7.956  11.270  68.967  1.00  0.00    -0.061 C  
BRANCH  23  24
HETATM   24  C   UNL     1      -8.397  12.048  67.748  1.00  0.00    -0.156 C  
BRANCH  24  25
HETATM   25  N   UNL     1      -8.144  11.746  66.505  1.00  0.00    -0.347 NA 
HETATM   26  H   UNL     1      -7.220  11.437  66.203  1.00  0.00     0.000 HD 
BRANCH  25  27
HETATM   27  O   UNL     1      -9.213  11.871  65.611  1.00  0.00    -0.173 OA 
HETATM   28  C   UNL     1     -10.374  10.957  63.733  1.00  0.00    -0.384 C  
HETATM   29  C   UNL     1      -9.929   9.565  65.763  1.00  0.00    -0.316 C  
HETATM   30  O   UNL     1      -6.922  10.363  64.808  1.00  0.00    -0.118 OA 
HETATM   31  O   UNL     1      -8.084   9.428  63.131  1.00  0.00    -0.136 OA 
HETATM   32  C   UNL     1      -9.355  10.653  64.844  1.00  0.00    -0.228 C  
HETATM   33  C   UNL     1      -8.079  10.097  64.156  1.00  0.00    -0.158 C  
ENDBRANCH  25  27
ENDBRANCH  24  25
BRANCH  24  34
HETATM   34  C   UNL     1      -9.088  13.327  67.949  1.00  0.00    -0.203 A  
HETATM   35  H2  UNL     1     -12.335  15.875  69.013  1.00  0.00     0.000 HD 
HETATM   36  C   UNL     1      -8.653  14.553  67.475  1.00  0.00    -0.189 A  
HETATM   37  S   UNL     1      -9.809  15.765  67.828  1.00  0.00    -0.225 SA 
HETATM   38  H1  UNL     1     -12.603  14.210  69.520  1.00  0.00     0.000 HD 
HETATM   39  N   UNL     1     -12.009  14.910  69.076  1.00  0.00    -0.296 NA 
HETATM   40  N   UNL     1     -10.316  13.376  68.612  1.00  0.00    -0.232 NA 
HETATM   41  C   UNL     1     -10.808  14.587  68.574  1.00  0.00    -0.249 A  
ENDBRANCH  24  34
ENDBRANCH  23  24
ENDBRANCH   7  20
TORSDOF 7
ENDMDL
MODEL      149
REMARK 921   NORMALIZED FREE ENERGY PREDICTED BY IDOCK:   -4.43 KCAL/MOL
REMARK 922        TOTAL FREE ENERGY PREDICTED BY IDOCK:   -7.79 KCAL/MOL
REMARK 923 INTER-LIGAND FREE ENERGY PREDICTED BY IDOCK:   -6.88 KCAL/MOL
REMARK 924 INTRA-LIGAND FREE ENERGY PREDICTED BY IDOCK:   -0.91 KCAL/MOL
REMARK 927      BINDING AFFINITY PREDICTED BY RF-SCORE:    0.00 PKD
ROOT
HETATM    1  O   UNL     1      -9.443   8.131  73.315  1.00  0.00    -0.270 OA 
HETATM    2  C   UNL     1      -8.783   7.259  72.707  1.00  0.00    -0.122 C  
HETATM    3  CA  UNL     1      -9.084   7.078  71.154  1.00  0.00    -0.153 C  
HETATM    4  OXT UNL     1      -7.895   6.471  73.158  1.00  0.00    -0.100 OA 
HETATM    5  C   UNL     1      -8.206   6.406  70.367  1.00  0.00    -0.121 C  
HETATM    6  C   UNL     1      -8.334   6.196  68.881  1.00  0.00    -0.115 C  
HETATM    7  CA  UNL     1     -11.405   8.630  69.224  1.00  0.00     0.417 C  
HETATM    8  S   UNL     1      -9.856   6.578  68.032  1.00  0.00    -0.128 SA 
HETATM    9  N   UNL     1     -10.163   7.664  70.559  1.00  0.00    -0.200 N  
HETATM   10  O   UNL     1     -10.866   9.781  71.422  1.00  0.00    -0.308 OA 
HETATM   11  C   UNL     1     -10.859   7.177  69.395  1.00  0.00    -0.206 C  
HETATM   12  C   UNL     1     -10.858   8.827  70.683  1.00  0.00    -0.232 C  
ENDROOT
BRANCH   5  13
HETATM   13  C   UNL     1      -6.893   5.840  70.878  1.00  0.00    -0.058 C  
BRANCH  13  14
HETATM   14  N   UNL     1      -6.845   4.366  71.128  1.00  0.00    -0.034 NA 
HETATM   15  C   UNL     1      -6.116   2.166  70.557  1.00  0.00    -0.019 A  
HETATM   16  C   UNL     1      -7.146   1.618  71.311  1.00  0.00    -0.032 A  
HETATM   17  C   UNL     1      -5.973   3.551  70.488  1.00  0.00    -0.018 A  
HETATM   18  C   UNL     1      -7.791   3.840  71.941  1.00  0.00    -0.063 A  
HETATM   19  C   UNL     1      -7.977   2.464  72.029  1.00  0.00    -0.053 A  
ENDBRANCH  13  14
ENDBRANCH   5  13
BRANCH   7  20
HETATM   20  N   UNL     1     -10.772   9.550  68.196  1.00  0.00    -0.357 N  
HETATM   21  H   UNL     1      -9.882   9.280  67.775  1.00  0.00     0.000 HD 
HETATM   22  O   UNL     1     -12.351  11.253  68.326  1.00  0.00    -0.542 OA 
HETATM   23  C   UNL     1     -11.361  10.742  67.812  1.00  0.00    -0.279 C  
BRANCH  23  24
HETATM   24  C   UNL     1     -10.764  11.498  66.646  1.00  0.00    -0.268 C  
BRANCH  24  25
HETATM   25  N   UNL     1     -10.175  10.975  65.606  1.00  0.00    -0.251 NA 
HETATM   26  H   UNL     1     -10.129  11.463  64.711  1.00  0.00     0.000 HD 
BRANCH  25  27
HETATM   27  O   UNL     1      -9.610   9.708  65.790  1.00  0.00    -0.223 OA 
HETATM   28  C   UNL     1      -8.235   7.975  64.887  1.00  0.00    -0.137 C  
HETATM   29  C   UNL     1      -7.388  10.322  65.060  1.00  0.00    -0.117 C  
HETATM   30  O   UNL     1      -9.980  10.672  63.124  1.00  0.00    -0.320 OA 
HETATM   31  O   UNL     1      -8.580   9.108  62.330  1.00  0.00    -0.195 OA 
HETATM   32  C   UNL     1      -8.622   9.459  64.765  1.00  0.00    -0.180 C  
HETATM   33  C   UNL     1      -9.053   9.699  63.292  1.00  0.00    -0.191 C  
ENDBRANCH  25  27
ENDBRANCH  24  25
BRANCH  24  34
HETATM   34  C   UNL     1     -10.733  12.963  66.706  1.00  0.00    -0.261 A  
HETATM   35  H2  UNL     1     -10.535  16.923  65.139  1.00  0.00     0.000 HD 
HETATM   36  C   UNL     1     -10.531  13.712  67.853  1.00  0.00    -0.247 A  
HETATM   37  S   UNL     1     -10.451  15.376  67.464  1.00  0.00    -0.281 SA 
HETATM   38  H1  UNL     1     -10.813  15.723  63.881  1.00  0.00     0.000 HD 
HETATM   39  N   UNL     1     -10.677  15.950  64.866  1.00  0.00    -0.584 NA 
HETATM   40  N   UNL     1     -10.853  13.725  65.542  1.00  0.00    -0.292 NA 
HETATM   41  C   UNL     1     -10.680  14.995  65.807  1.00  0.00    -0.342 A  
ENDBRANCH  24  34
ENDBRANCH  23  24
ENDBRANCH   7  20
TORSDOF 7
ENDMDL
MODEL      150
REMARK 921   NORMALIZED FREE ENERGY PREDICTED BY IDOCK:   -4.42 KCAL/MOL
REMARK 922        TOTAL FREE ENERGY PREDICTED BY IDOCK:   -7.77 KCAL/MOL
REMARK 923 INTER-LIGAND FREE ENERGY PREDICTED BY IDOCK:   -7.62 KCAL/MOL
REMARK 924 INTRA-LIGAND FREE ENERGY PREDICTED BY IDOCK:   -0.15 KCAL/MOL
REMARK 927      BINDING AFFINITY PREDICTED BY RF-SCORE:    0.00 PKD
ROOT
HETATM    1  O   UNL     1      -6.060   7.733  70.217  1.00  0.00    -0.029 OA 
HETATM    2  C   UNL     1      -6.550   7.051  69.289  1.00  0.00    -0.045 C  
HETATM    3  CA  UNL     1      -7.949   7.532  68.702  1.00  0.00    -0.123 C  
HETATM    4  OXT UNL     1      -6.092   6.000  68.742  1.00  0.00    -0.028 OA 
HETATM    5  C   UNL     1      -8.381   7.059  67.505  1.00  0.00    -0.119 C  
HETATM    6  C   UNL     1      -9.654   7.458  66.806  1.00  0.00    -0.192 C  
HETATM    7  CA  UNL     1      -9.926  10.103  69.705  1.00  0.00    -0.232 C  
HETATM    8  S   UNL     1     -10.903   8.409  67.654  1.00  0.00     0.133 SA 
HETATM    9  N   UNL     1      -8.697   8.490  69.323  1.00  0.00    -0.133 N  
HETATM   10  O   UNL     1      -7.514  10.211  70.488  1.00  0.00    -0.281 OA 
HETATM   11  C   UNL     1     -10.131   8.620  69.260  1.00  0.00    -0.202 C  
HETATM   12  C   UNL     1      -8.467   9.626  70.035  1.00  0.00    -0.204 C  
ENDROOT
BRANCH   5  13
HETATM   13  C   UNL     1      -7.570   6.108  66.643  1.00  0.00    -0.095 C  
BRANCH  13  14
HETATM   14  N   UNL     1      -8.224   4.820  66.259  1.00  0.00    -0.107 NA 
HETATM   15  C   UNL     1      -8.975   2.614  66.774  1.00  0.00    -0.160 A  
HETATM   16  C   UNL     1      -8.993   2.293  65.423  1.00  0.00    -0.126 A  
HETATM   17  C   UNL     1      -8.598   3.896  67.174  1.00  0.00    -0.106 A  
HETATM   18  C   UNL     1      -8.330   4.545  64.936  1.00  0.00    -0.121 A  
HETATM   19  C   UNL     1      -8.691   3.277  64.494  1.00  0.00    -0.099 A  
ENDBRANCH  13  14
ENDBRANCH   5  13
BRANCH   7  20
HETATM   20  N   UNL     1      -9.995  11.209  68.668  1.00  0.00    -0.200 N  
HETATM   21  H   UNL     1     -10.809  11.824  68.657  1.00  0.00     0.000 HD 
HETATM   22  O   UNL     1      -8.027  10.675  67.549  1.00  0.00    -0.109 OA 
HETATM   23  C   UNL     1      -8.990  11.412  67.738  1.00  0.00    -0.147 C  
BRANCH  23  24
HETATM   24  C   UNL     1      -9.047  12.651  66.873  1.00  0.00    -0.218 C  
BRANCH  24  25
HETATM   25  N   UNL     1      -9.437  12.709  65.631  1.00  0.00    -0.456 NA 
HETATM   26  H   UNL     1      -9.244  11.957  64.969  1.00  0.00     0.000 HD 
BRANCH  25  27
HETATM   27  O   UNL     1     -10.136  13.863  65.257  1.00  0.00    -0.334 OA 
HETATM   28  C   UNL     1     -12.157  14.787  64.378  1.00  0.00    -0.457 C  
HETATM   29  C   UNL     1     -12.203  13.264  66.361  1.00  0.00    -0.419 C  
HETATM   30  O   UNL     1     -10.876  11.367  64.074  1.00  0.00    -0.355 OA 
HETATM   31  O   UNL     1     -12.823  12.238  63.376  1.00  0.00    -0.754 OA 
HETATM   32  C   UNL     1     -11.523  13.537  65.013  1.00  0.00    -0.318 C  
HETATM   33  C   UNL     1     -11.814  12.344  64.062  1.00  0.00    -0.439 C  
ENDBRANCH  25  27
ENDBRANCH  24  25
BRANCH  24  34
HETATM   34  C   UNL     1      -8.521  13.907  67.419  1.00  0.00    -0.199 A  
HETATM   35  H2  UNL     1      -8.724  17.909  68.874  1.00  0.00     0.000 HD 
HETATM   36  C   UNL     1      -7.183  14.258  67.470  1.00  0.00    -0.176 A  
HETATM   37  S   UNL     1      -7.014  15.851  68.072  1.00  0.00    -0.140 SA 
HETATM   38  H1  UNL     1     -10.318  17.176  68.720  1.00  0.00     0.000 HD 
HETATM   39  N   UNL     1      -9.304  17.104  68.635  1.00  0.00    -0.266 NA 
HETATM   40  N   UNL     1      -9.388  14.897  67.887  1.00  0.00    -0.189 NA 
HETATM   41  C   UNL     1      -8.719  15.972  68.215  1.00  0.00    -0.177 A  
ENDBRANCH  24  34
ENDBRANCH  23  24
ENDBRANCH   7  20
TORSDOF 7
ENDMDL
MODEL      151
REMARK 921   NORMALIZED FREE ENERGY PREDICTED BY IDOCK:   -4.42 KCAL/MOL
REMARK 922        TOTAL FREE ENERGY PREDICTED BY IDOCK:   -7.77 KCAL/MOL
REMARK 923 INTER-LIGAND FREE ENERGY PREDICTED BY IDOCK:   -7.39 KCAL/MOL
REMARK 924 INTRA-LIGAND FREE ENERGY PREDICTED BY IDOCK:   -0.38 KCAL/MOL
REMARK 927      BINDING AFFINITY PREDICTED BY RF-SCORE:    0.00 PKD
ROOT
HETATM    1  O   UNL     1      -8.262   7.598  64.030  1.00  0.00    -0.094 OA 
HETATM    2  C   UNL     1      -8.373   6.826  65.008  1.00  0.00    -0.048 C  
HETATM    3  CA  UNL     1      -8.123   7.448  66.452  1.00  0.00    -0.118 C  
HETATM    4  OXT UNL     1      -8.652   5.587  65.020  1.00  0.00    -0.149 OA 
HETATM    5  C   UNL     1      -8.538   6.783  67.559  1.00  0.00    -0.120 C  
HETATM    6  C   UNL     1      -8.413   7.267  68.980  1.00  0.00    -0.129 C  
HETATM    7  CA  UNL     1      -7.164  10.594  67.293  1.00  0.00    -0.091 C  
HETATM    8  S   UNL     1      -7.408   8.687  69.375  1.00  0.00    -0.073 SA 
HETATM    9  N   UNL     1      -7.584   8.692  66.613  1.00  0.00    -0.089 N  
HETATM   10  O   UNL     1      -8.101  10.329  64.948  1.00  0.00    -0.153 OA 
HETATM   11  C   UNL     1      -6.811   9.141  67.744  1.00  0.00    -0.076 C  
HETATM   12  C   UNL     1      -7.634   9.890  65.971  1.00  0.00    -0.106 C  
ENDROOT
BRANCH   5  13
HETATM   13  C   UNL     1      -9.289   5.464  67.506  1.00  0.00    -0.114 C  
BRANCH  13  14
HETATM   14  N   UNL     1      -8.782   4.361  68.378  1.00  0.00    -0.098 NA 
HETATM   15  C   UNL     1      -7.328   2.513  68.790  1.00  0.00    -0.047 A  
HETATM   16  C   UNL     1      -8.181   2.051  69.784  1.00  0.00    -0.065 A  
HETATM   17  C   UNL     1      -7.641   3.686  68.103  1.00  0.00    -0.061 A  
HETATM   18  C   UNL     1      -9.568   3.970  69.410  1.00  0.00    -0.187 A  
HETATM   19  C   UNL     1      -9.299   2.801  70.113  1.00  0.00    -0.199 A  
ENDBRANCH  13  14
ENDBRANCH   5  13
BRANCH   7  20
HETATM   20  N   UNL     1      -8.262  11.354  68.013  1.00  0.00    -0.133 N  
HETATM   21  H   UNL     1      -8.005  12.027  68.736  1.00  0.00     0.000 HD 
HETATM   22  O   UNL     1     -10.061  10.301  66.981  1.00  0.00    -0.198 OA 
HETATM   23  C   UNL     1      -9.602  11.164  67.723  1.00  0.00    -0.172 C  
BRANCH  23  24
HETATM   24  C   UNL     1     -10.615  12.099  68.346  1.00  0.00    -0.226 C  
BRANCH  24  25
HETATM   25  N   UNL     1     -10.784  13.359  68.056  1.00  0.00    -0.242 NA 
HETATM   26  H   UNL     1     -11.711  13.783  68.019  1.00  0.00     0.000 HD 
BRANCH  25  27
HETATM   27  O   UNL     1      -9.621  14.095  67.800  1.00  0.00    -0.209 OA 
HETATM   28  C   UNL     1      -8.601  15.869  66.567  1.00  0.00    -0.345 C  
HETATM   29  C   UNL     1     -10.680  16.267  67.900  1.00  0.00    -0.329 C  
HETATM   30  O   UNL     1     -11.648  13.989  65.787  1.00  0.00    -0.323 OA 
HETATM   31  O   UNL     1     -10.732  15.741  64.727  1.00  0.00    -0.500 OA 
HETATM   32  C   UNL     1      -9.943  15.259  67.007  1.00  0.00    -0.234 C  
HETATM   33  C   UNL     1     -10.785  15.030  65.722  1.00  0.00    -0.342 C  
ENDBRANCH  25  27
ENDBRANCH  24  25
BRANCH  24  34
HETATM   34  C   UNL     1     -11.429  11.602  69.460  1.00  0.00    -0.304 A  
HETATM   35  H2  UNL     1     -13.849  11.910  72.956  1.00  0.00     0.000 HD 
HETATM   36  C   UNL     1     -11.497  10.283  69.875  1.00  0.00    -0.273 A  
HETATM   37  S   UNL     1     -12.469  10.156  71.277  1.00  0.00    -0.442 SA 
HETATM   38  H1  UNL     1     -13.600  13.472  72.180  1.00  0.00     0.000 HD 
HETATM   39  N   UNL     1     -13.447  12.463  72.199  1.00  0.00    -0.492 NA 
HETATM   40  N   UNL     1     -12.175  12.485  70.244  1.00  0.00    -0.310 NA 
HETATM   41  C   UNL     1     -12.727  11.851  71.247  1.00  0.00    -0.298 A  
ENDBRANCH  24  34
ENDBRANCH  23  24
ENDBRANCH   7  20
TORSDOF 7
ENDMDL
MODEL      152
REMARK 921   NORMALIZED FREE ENERGY PREDICTED BY IDOCK:   -4.40 KCAL/MOL
REMARK 922        TOTAL FREE ENERGY PREDICTED BY IDOCK:   -7.74 KCAL/MOL
REMARK 923 INTER-LIGAND FREE ENERGY PREDICTED BY IDOCK:   -6.33 KCAL/MOL
REMARK 924 INTRA-LIGAND FREE ENERGY PREDICTED BY IDOCK:   -1.41 KCAL/MOL
REMARK 927      BINDING AFFINITY PREDICTED BY RF-SCORE:    0.00 PKD
ROOT
HETATM    1  O   UNL     1     -10.316   8.324  66.168  1.00  0.00     0.003 OA 
HETATM    2  C   UNL     1      -9.706   8.132  67.243  1.00  0.00    -0.178 C  
HETATM    3  CA  UNL     1      -8.816   9.332  67.792  1.00  0.00    -0.120 C  
HETATM    4  OXT UNL     1      -9.683   7.093  67.974  1.00  0.00    -0.136 OA 
HETATM    5  C   UNL     1      -8.398   9.332  69.083  1.00  0.00    -0.127 C  
HETATM    6  C   UNL     1      -7.593  10.416  69.751  1.00  0.00    -0.133 C  
HETATM    7  CA  UNL     1      -8.184  12.354  66.379  1.00  0.00     0.288 C  
HETATM    8  S   UNL     1      -6.840  11.718  68.792  1.00  0.00    -0.102 SA 
HETATM    9  N   UNL     1      -8.533  10.425  67.025  1.00  0.00    -0.126 N  
HETATM   10  O   UNL     1     -10.203  11.119  65.460  1.00  0.00    -0.243 OA 
HETATM   11  C   UNL     1      -7.364  11.261  67.137  1.00  0.00    -0.130 C  
HETATM   12  C   UNL     1      -9.167  11.167  66.077  1.00  0.00    -0.205 C  
ENDROOT
BRANCH   5  13
HETATM   13  C   UNL     1      -8.775   8.251  70.080  1.00  0.00    -0.133 C  
BRANCH  13  14
HETATM   14  N   UNL     1      -7.694   7.304  70.491  1.00  0.00    -0.092 NA 
HETATM   15  C   UNL     1      -5.839   5.890  69.983  1.00  0.00    -0.024 A  
HETATM   16  C   UNL     1      -6.020   5.206  71.177  1.00  0.00    -0.021 A  
HETATM   17  C   UNL     1      -6.684   6.952  69.661  1.00  0.00    -0.050 A  
HETATM   18  C   UNL     1      -7.817   6.704  71.700  1.00  0.00    -0.102 A  
HETATM   19  C   UNL     1      -7.003   5.633  72.055  1.00  0.00    -0.080 A  
ENDBRANCH  13  14
ENDBRANCH   5  13
BRANCH   7  20
HETATM   20  N   UNL     1      -8.811  13.493  67.161  1.00  0.00    -0.221 N  
HETATM   21  H   UNL     1      -9.779  13.405  67.469  1.00  0.00     0.000 HD 
HETATM   22  O   UNL     1      -6.996  14.945  67.055  1.00  0.00    -0.180 OA 
HETATM   23  C   UNL     1      -8.112  14.647  67.470  1.00  0.00    -0.184 C  
BRANCH  23  24
HETATM   24  C   UNL     1      -8.746  15.643  68.416  1.00  0.00    -0.178 C  
BRANCH  24  25
HETATM   25  N   UNL     1      -9.796  15.440  69.161  1.00  0.00    -0.231 NA 
HETATM   26  H   UNL     1     -10.341  16.212  69.546  1.00  0.00     0.000 HD 
BRANCH  25  27
HETATM   27  O   UNL     1     -10.133  14.103  69.401  1.00  0.00     0.001 OA 
HETATM   28  C   UNL     1     -11.846  12.537  69.970  1.00  0.00    -0.363 C  
HETATM   29  C   UNL     1     -12.137  14.108  68.046  1.00  0.00    -0.303 C  
HETATM   30  O   UNL     1     -11.760  16.154  70.549  1.00  0.00    -0.352 OA 
HETATM   31  O   UNL     1     -13.399  14.675  70.951  1.00  0.00    -0.372 OA 
HETATM   32  C   UNL     1     -11.571  13.964  69.465  1.00  0.00    -0.301 C  
HETATM   33  C   UNL     1     -12.335  14.937  70.404  1.00  0.00    -0.345 C  
ENDBRANCH  25  27
ENDBRANCH  24  25
BRANCH  24  34
HETATM   34  C   UNL     1      -8.218  17.011  68.444  1.00  0.00    -0.250 A  
HETATM   35  H2  UNL     1      -5.697  20.187  69.760  1.00  0.00     0.000 HD 
HETATM   36  C   UNL     1      -8.818  18.111  67.856  1.00  0.00    -0.268 A  
HETATM   37  S   UNL     1      -7.937  19.531  68.226  1.00  0.00    -0.333 SA 
HETATM   38  H1  UNL     1      -5.156  18.619  70.353  1.00  0.00     0.000 HD 
HETATM   39  N   UNL     1      -5.814  19.174  69.806  1.00  0.00    -0.243 NA 
HETATM   40  N   UNL     1      -7.053  17.309  69.154  1.00  0.00    -0.234 NA 
HETATM   41  C   UNL     1      -6.830  18.598  69.146  1.00  0.00    -0.261 A  
ENDBRANCH  24  34
ENDBRANCH  23  24
ENDBRANCH   7  20
TORSDOF 7
ENDMDL
MODEL      153
REMARK 921   NORMALIZED FREE ENERGY PREDICTED BY IDOCK:   -4.36 KCAL/MOL
REMARK 922        TOTAL FREE ENERGY PREDICTED BY IDOCK:   -7.69 KCAL/MOL
REMARK 923 INTER-LIGAND FREE ENERGY PREDICTED BY IDOCK:   -7.56 KCAL/MOL
REMARK 924 INTRA-LIGAND FREE ENERGY PREDICTED BY IDOCK:   -0.13 KCAL/MOL
REMARK 927      BINDING AFFINITY PREDICTED BY RF-SCORE:    0.00 PKD
ROOT
HETATM    1  O   UNL     1     -11.597  13.018  63.673  1.00  0.00    -0.451 OA 
HETATM    2  C   UNL     1     -11.303  12.076  64.442  1.00  0.00    -0.345 C  
HETATM    3  CA  UNL     1     -10.344  12.416  65.666  1.00  0.00    -0.258 C  
HETATM    4  OXT UNL     1     -11.656  10.858  64.383  1.00  0.00     0.380 OA 
HETATM    5  C   UNL     1     -10.245  11.554  66.710  1.00  0.00    -0.254 C  
HETATM    6  C   UNL     1      -9.419  11.763  67.952  1.00  0.00    -0.191 C  
HETATM    7  CA  UNL     1      -8.815  15.345  66.444  1.00  0.00    -0.305 C  
HETATM    8  S   UNL     1      -8.220  13.081  68.041  1.00  0.00    -0.171 SA 
HETATM    9  N   UNL     1      -9.680  13.606  65.749  1.00  0.00    -0.197 N  
HETATM   10  O   UNL     1     -10.770  15.528  64.834  1.00  0.00    -0.428 OA 
HETATM   11  C   UNL     1      -8.427  13.833  66.425  1.00  0.00     0.520 C  
HETATM   12  C   UNL     1      -9.917  14.903  65.417  1.00  0.00    -0.332 C  
ENDROOT
BRANCH   5  13
HETATM   13  C   UNL     1     -11.050  10.271  66.809  1.00  0.00     0.099 C  
BRANCH  13  14
HETATM   14  N   UNL     1     -10.278   8.995  66.913  1.00  0.00    -0.260 NA 
HETATM   15  C   UNL     1      -9.481   7.121  68.159  1.00  0.00    -0.132 A  
HETATM   16  C   UNL     1      -8.476   6.913  67.224  1.00  0.00    -0.121 A  
HETATM   17  C   UNL     1     -10.387   8.166  67.978  1.00  0.00    -0.211 A  
HETATM   18  C   UNL     1      -9.361   8.741  65.949  1.00  0.00    -0.218 A  
HETATM   19  C   UNL     1      -8.431   7.717  66.096  1.00  0.00    -0.147 A  
ENDBRANCH  13  14
ENDBRANCH   5  13
BRANCH   7  20
HETATM   20  N   UNL     1      -9.368  15.958  67.719  1.00  0.00    -0.206 N  
HETATM   21  H   UNL     1      -8.800  16.637  68.225  1.00  0.00     0.000 HD 
HETATM   22  O   UNL     1     -11.345  14.735  67.789  1.00  0.00    -0.303 OA 
HETATM   23  C   UNL     1     -10.616  15.626  68.215  1.00  0.00    -0.262 C  
BRANCH  23  24
HETATM   24  C   UNL     1     -11.166  16.424  69.375  1.00  0.00    -0.267 C  
BRANCH  24  25
HETATM   25  N   UNL     1     -11.019  17.704  69.572  1.00  0.00    -0.005 NA 
HETATM   26  H   UNL     1     -11.818  18.326  69.700  1.00  0.00     0.000 HD 
BRANCH  25  27
HETATM   27  O   UNL     1      -9.701  18.177  69.596  1.00  0.00     0.227 OA 
HETATM   28  C   UNL     1      -8.116  19.744  68.736  1.00  0.00    -0.230 C  
HETATM   29  C   UNL     1     -10.285  20.521  69.710  1.00  0.00     0.444 C  
HETATM   30  O   UNL     1     -11.277  18.630  67.255  1.00  0.00    -0.133 OA 
HETATM   31  O   UNL     1      -9.829  20.190  66.543  1.00  0.00    -0.416 OA 
HETATM   32  C   UNL     1      -9.614  19.424  68.871  1.00  0.00    -0.415 C  
HETATM   33  C   UNL     1     -10.220  19.456  67.442  1.00  0.00    -0.420 C  
ENDBRANCH  25  27
ENDBRANCH  24  25
BRANCH  24  34
HETATM   34  C   UNL     1     -11.846  15.704  70.457  1.00  0.00    -0.373 A  
HETATM   35  H2  UNL     1     -12.739  14.686  74.500  1.00  0.00     0.000 HD 
HETATM   36  C   UNL     1     -12.611  14.561  70.300  1.00  0.00    -0.323 A  
HETATM   37  S   UNL     1     -13.123  13.979  71.825  1.00  0.00    -0.394 SA 
HETATM   38  H1  UNL     1     -11.767  16.150  74.382  1.00  0.00     0.000 HD 
HETATM   39  N   UNL     1     -12.261  15.382  73.927  1.00  0.00    -0.582 NA 
HETATM   40  N   UNL     1     -11.706  16.116  71.784  1.00  0.00    -0.498 NA 
HETATM   41  C   UNL     1     -12.293  15.270  72.591  1.00  0.00    -0.386 A  
ENDBRANCH  24  34
ENDBRANCH  23  24
ENDBRANCH   7  20
TORSDOF 7
ENDMDL
MODEL      154
REMARK 921   NORMALIZED FREE ENERGY PREDICTED BY IDOCK:   -4.29 KCAL/MOL
REMARK 922        TOTAL FREE ENERGY PREDICTED BY IDOCK:   -7.59 KCAL/MOL
REMARK 923 INTER-LIGAND FREE ENERGY PREDICTED BY IDOCK:   -7.58 KCAL/MOL
REMARK 924 INTRA-LIGAND FREE ENERGY PREDICTED BY IDOCK:   -0.01 KCAL/MOL
REMARK 927      BINDING AFFINITY PREDICTED BY RF-SCORE:    0.00 PKD
ROOT
HETATM    1  O   UNL     1      -7.995   6.886  64.820  1.00  0.00    -0.118 OA 
HETATM    2  C   UNL     1      -7.719   6.589  66.004  1.00  0.00    -0.093 C  
HETATM    3  CA  UNL     1      -7.126   7.748  66.919  1.00  0.00    -0.081 C  
HETATM    4  OXT UNL     1      -7.835   5.470  66.594  1.00  0.00    -0.099 OA 
HETATM    5  C   UNL     1      -7.111   7.607  68.269  1.00  0.00    -0.080 C  
HETATM    6  C   UNL     1      -6.627   8.633  69.260  1.00  0.00    -0.049 C  
HETATM    7  CA  UNL     1      -6.337  10.944  66.090  1.00  0.00    -0.123 C  
HETATM    8  S   UNL     1      -5.724  10.072  68.716  1.00  0.00    -0.034 SA 
HETATM    9  N   UNL     1      -6.713   8.938  66.393  1.00  0.00    -0.073 N  
HETATM   10  O   UNL     1      -7.891   9.749  64.477  1.00  0.00    -0.124 OA 
HETATM   11  C   UNL     1      -5.698   9.802  66.941  1.00  0.00    -0.050 C  
HETATM   12  C   UNL     1      -7.093   9.764  65.381  1.00  0.00    -0.113 C  
ENDROOT
BRANCH   5  13
HETATM   13  C   UNL     1      -7.684   6.397  68.986  1.00  0.00    -0.101 C  
BRANCH  13  14
HETATM   14  N   UNL     1      -9.001   6.577  69.670  1.00  0.00    -0.141 NA 
HETATM   15  C   UNL     1     -10.343   6.684  71.642  1.00  0.00    -0.227 A  
HETATM   16  C   UNL     1     -11.484   6.436  70.891  1.00  0.00    -0.406 A  
HETATM   17  C   UNL     1      -9.103   6.765  71.007  1.00  0.00    -0.156 A  
HETATM   18  C   UNL     1     -10.119   6.430  68.920  1.00  0.00    -0.162 A  
HETATM   19  C   UNL     1     -11.373   6.332  69.513  1.00  0.00    -0.475 A  
ENDBRANCH  13  14
ENDBRANCH   5  13
BRANCH   7  20
HETATM   20  N   UNL     1      -7.253  11.952  66.759  1.00  0.00    -0.352 N  
HETATM   21  H   UNL     1      -6.838  12.710  67.301  1.00  0.00     0.000 HD 
HETATM   22  O   UNL     1      -9.265  10.952  66.158  1.00  0.00    -0.173 OA 
HETATM   23  C   UNL     1      -8.631  11.875  66.659  1.00  0.00    -0.163 C  
BRANCH  23  24
HETATM   24  C   UNL     1      -9.457  13.025  67.190  1.00  0.00    -0.230 C  
BRANCH  24  25
HETATM   25  N   UNL     1      -9.328  14.282  66.870  1.00  0.00    -0.246 NA 
HETATM   26  H   UNL     1     -10.097  14.819  66.468  1.00  0.00     0.000 HD 
BRANCH  25  27
HETATM   27  O   UNL     1      -8.073  14.854  67.111  1.00  0.00    -0.198 OA 
HETATM   28  C   UNL     1      -6.779  16.855  67.277  1.00  0.00    -0.202 C  
HETATM   29  C   UNL     1      -8.870  16.569  68.618  1.00  0.00    -0.237 C  
HETATM   30  O   UNL     1      -9.976  16.325  65.567  1.00  0.00    -0.491 OA 
HETATM   31  O   UNL     1      -8.797  18.213  65.854  1.00  0.00    -0.500 OA 
HETATM   32  C   UNL     1      -8.207  16.285  67.263  1.00  0.00    -0.172 C  
HETATM   33  C   UNL     1      -8.993  17.043  66.159  1.00  0.00    -0.208 C  
ENDBRANCH  25  27
ENDBRANCH  24  25
BRANCH  24  34
HETATM   34  C   UNL     1     -10.437  12.750  68.246  1.00  0.00    -0.241 A  
HETATM   35  H2  UNL     1     -13.039  13.698  71.488  1.00  0.00     0.000 HD 
HETATM   36  C   UNL     1     -10.778  11.493  68.713  1.00  0.00    -0.211 A  
HETATM   37  S   UNL     1     -11.869  11.626  70.025  1.00  0.00    -0.336 SA 
HETATM   38  H1  UNL     1     -12.447  15.139  70.667  1.00  0.00     0.000 HD 
HETATM   39  N   UNL     1     -12.482  14.123  70.746  1.00  0.00    -0.343 NA 
HETATM   40  N   UNL     1     -11.072  13.798  68.917  1.00  0.00    -0.258 NA 
HETATM   41  C   UNL     1     -11.810  13.335  69.893  1.00  0.00    -0.310 A  
ENDBRANCH  24  34
ENDBRANCH  23  24
ENDBRANCH   7  20
TORSDOF 7
ENDMDL
MODEL      155
REMARK 921   NORMALIZED FREE ENERGY PREDICTED BY IDOCK:   -4.22 KCAL/MOL
REMARK 922        TOTAL FREE ENERGY PREDICTED BY IDOCK:   -7.49 KCAL/MOL
REMARK 923 INTER-LIGAND FREE ENERGY PREDICTED BY IDOCK:   -5.80 KCAL/MOL
REMARK 924 INTRA-LIGAND FREE ENERGY PREDICTED BY IDOCK:   -1.69 KCAL/MOL
REMARK 927      BINDING AFFINITY PREDICTED BY RF-SCORE:    0.00 PKD
ROOT
HETATM    1  O   UNL     1     -11.054  17.531  69.340  1.00  0.00     0.366 OA 
HETATM    2  C   UNL     1     -10.198  18.010  68.565  1.00  0.00    -0.385 C  
HETATM    3  CA  UNL     1      -8.932  17.103  68.237  1.00  0.00    -0.248 C  
HETATM    4  OXT UNL     1     -10.183  19.146  67.995  1.00  0.00    -0.363 OA 
HETATM    5  C   UNL     1      -8.141  17.399  67.175  1.00  0.00    -0.229 C  
HETATM    6  C   UNL     1      -6.943  16.609  66.717  1.00  0.00    -0.229 C  
HETATM    7  CA  UNL     1      -8.106  14.049  69.468  1.00  0.00     0.568 C  
HETATM    8  S   UNL     1      -6.254  15.320  67.741  1.00  0.00    -0.141 SA 
HETATM    9  N   UNL     1      -8.664  15.964  68.940  1.00  0.00    -0.210 N  
HETATM   10  O   UNL     1     -10.537  14.722  69.758  1.00  0.00    -0.205 OA 
HETATM   11  C   UNL     1      -7.362  15.384  69.152  1.00  0.00    -0.175 C  
HETATM   12  C   UNL     1      -9.377  14.969  69.532  1.00  0.00    -0.062 C  
ENDROOT
BRANCH   5  13
HETATM   13  C   UNL     1      -8.421  18.548  66.223  1.00  0.00    -0.207 C  
BRANCH  13  14
HETATM   14  N   UNL     1      -7.418  19.656  66.187  1.00  0.00    -0.290 NA 
HETATM   15  C   UNL     1      -5.835  21.015  65.027  1.00  0.00    -0.266 A  
HETATM   16  C   UNL     1      -5.239  21.367  66.231  1.00  0.00    -0.272 A  
HETATM   17  C   UNL     1      -6.940  20.163  65.027  1.00  0.00    -0.159 A  
HETATM   18  C   UNL     1      -6.903  20.070  67.370  1.00  0.00    -0.226 A  
HETATM   19  C   UNL     1      -5.794  20.908  67.415  1.00  0.00    -0.317 A  
ENDBRANCH  13  14
ENDBRANCH   5  13
BRANCH   7  20
HETATM   20  N   UNL     1      -8.180  12.965  68.408  1.00  0.00    -0.224 N  
HETATM   21  H   UNL     1      -8.617  13.181  67.512  1.00  0.00     0.000 HD 
HETATM   22  O   UNL     1      -7.243  11.258  69.679  1.00  0.00    -0.087 OA 
HETATM   23  C   UNL     1      -7.672  11.695  68.616  1.00  0.00    -0.134 C  
BRANCH  23  24
HETATM   24  C   UNL     1      -7.611  10.742  67.443  1.00  0.00    -0.099 C  
BRANCH  24  25
HETATM   25  N   UNL     1      -7.834  11.039  66.194  1.00  0.00    -0.262 NA 
HETATM   26  H   UNL     1      -7.257  10.667  65.439  1.00  0.00     0.000 HD 
BRANCH  25  27
HETATM   27  O   UNL     1      -8.912  11.897  65.947  1.00  0.00    -0.138 OA 
HETATM   28  C   UNL     1     -10.754  12.446  64.527  1.00  0.00    -0.355 C  
HETATM   29  C   UNL     1     -10.516  10.147  65.482  1.00  0.00    -0.076 C  
HETATM   30  O   UNL     1      -7.776  10.457  63.754  1.00  0.00    -0.131 OA 
HETATM   31  O   UNL     1      -9.581  10.887  62.494  1.00  0.00    -0.264 OA 
HETATM   32  C   UNL     1      -9.749  11.345  64.905  1.00  0.00    -0.247 C  
HETATM   33  C   UNL     1      -9.046  10.898  63.595  1.00  0.00    -0.186 C  
ENDBRANCH  25  27
ENDBRANCH  24  25
BRANCH  24  34
HETATM   34  C   UNL     1      -7.385   9.318  67.713  1.00  0.00    -0.084 A  
HETATM   35  H2  UNL     1      -8.398   5.398  69.049  1.00  0.00     0.000 HD 
HETATM   36  C   UNL     1      -6.153   8.688  67.704  1.00  0.00    -0.048 A  
HETATM   37  S   UNL     1      -6.322   7.054  68.184  1.00  0.00    -0.041 SA 
HETATM   38  H1  UNL     1      -9.808   6.448  68.939  1.00  0.00     0.000 HD 
HETATM   39  N   UNL     1      -8.804   6.306  68.823  1.00  0.00    -0.123 NA 
HETATM   40  N   UNL     1      -8.447   8.484  68.070  1.00  0.00    -0.130 NA 
HETATM   41  C   UNL     1      -8.009   7.292  68.380  1.00  0.00    -0.124 A  
ENDBRANCH  24  34
ENDBRANCH  23  24
ENDBRANCH   7  20
TORSDOF 7
ENDMDL
MODEL      156
REMARK 921   NORMALIZED FREE ENERGY PREDICTED BY IDOCK:   -4.22 KCAL/MOL
REMARK 922        TOTAL FREE ENERGY PREDICTED BY IDOCK:   -7.49 KCAL/MOL
REMARK 923 INTER-LIGAND FREE ENERGY PREDICTED BY IDOCK:   -6.84 KCAL/MOL
REMARK 924 INTRA-LIGAND FREE ENERGY PREDICTED BY IDOCK:   -0.65 KCAL/MOL
REMARK 927      BINDING AFFINITY PREDICTED BY RF-SCORE:    0.00 PKD
ROOT
HETATM    1  O   UNL     1      -7.573  15.160  69.346  1.00  0.00    -0.185 OA 
HETATM    2  C   UNL     1      -8.795  15.242  69.089  1.00  0.00    -0.238 C  
HETATM    3  CA  UNL     1      -9.430  14.068  68.221  1.00  0.00    -0.216 C  
HETATM    4  OXT UNL     1      -9.621  16.149  69.417  1.00  0.00    -0.249 OA 
HETATM    5  C   UNL     1     -10.777  13.908  68.178  1.00  0.00    -0.260 C  
HETATM    6  C   UNL     1     -11.514  12.820  67.441  1.00  0.00    -0.340 C  
HETATM    7  CA  UNL     1      -7.907  11.389  66.797  1.00  0.00    -0.157 C  
HETATM    8  S   UNL     1     -10.665  11.771  66.274  1.00  0.00    -0.280 SA 
HETATM    9  N   UNL     1      -8.652  13.145  67.584  1.00  0.00    -0.179 N  
HETATM   10  O   UNL     1      -6.594  12.539  68.642  1.00  0.00    -0.071 OA 
HETATM   11  C   UNL     1      -8.998  12.427  66.384  1.00  0.00    -0.100 C  
HETATM   12  C   UNL     1      -7.477  12.501  67.820  1.00  0.00    -0.130 C  
ENDROOT
BRANCH   5  13
HETATM   13  C   UNL     1     -11.744  14.773  68.966  1.00  0.00    -0.312 C  
BRANCH  13  14
HETATM   14  N   UNL     1     -12.542  14.094  70.033  1.00  0.00    -0.291 NA 
HETATM   15  C   UNL     1     -14.043  14.156  71.888  1.00  0.00    -0.566 A  
HETATM   16  C   UNL     1     -13.628  12.890  72.280  1.00  0.00    -0.611 A  
HETATM   17  C   UNL     1     -13.494  14.740  70.747  1.00  0.00    -0.189 A  
HETATM   18  C   UNL     1     -12.202  12.823  70.353  1.00  0.00    -0.293 A  
HETATM   19  C   UNL     1     -12.716  12.207  71.490  1.00  0.00    -0.348 A  
ENDBRANCH  13  14
ENDBRANCH   5  13
BRANCH   7  20
HETATM   20  N   UNL     1      -8.326  10.082  67.444  1.00  0.00    -0.118 N  
HETATM   21  H   UNL     1      -9.304   9.953  67.707  1.00  0.00     0.000 HD 
HETATM   22  O   UNL     1      -6.209   9.124  67.552  1.00  0.00    -0.057 OA 
HETATM   23  C   UNL     1      -7.427   9.059  67.690  1.00  0.00    -0.085 C  
BRANCH  23  24
HETATM   24  C   UNL     1      -7.963   7.724  68.156  1.00  0.00    -0.122 C  
BRANCH  24  25
HETATM   25  N   UNL     1      -7.833   6.582  67.540  1.00  0.00    -0.111 NA 
HETATM   26  H   UNL     1      -6.926   6.242  67.220  1.00  0.00     0.000 HD 
BRANCH  25  27
HETATM   27  O   UNL     1      -9.009   5.850  67.343  1.00  0.00    -0.111 OA 
HETATM   28  C   UNL     1     -10.263   4.418  65.898  1.00  0.00    -0.252 C  
HETATM   29  C   UNL     1      -7.918   3.842  66.551  1.00  0.00    -0.089 C  
HETATM   30  O   UNL     1      -7.527   6.704  65.053  1.00  0.00    -0.077 OA 
HETATM   31  O   UNL     1      -8.639   5.253  63.752  1.00  0.00    -0.127 OA 
HETATM   32  C   UNL     1      -8.866   4.993  66.188  1.00  0.00    -0.125 C  
HETATM   33  C   UNL     1      -8.362   5.653  64.875  1.00  0.00    -0.139 C  
ENDBRANCH  25  27
ENDBRANCH  24  25
BRANCH  24  34
HETATM   34  C   UNL     1      -8.805   7.690  69.356  1.00  0.00    -0.139 A  
HETATM   35  H2  UNL     1     -10.380   9.119  73.051  1.00  0.00     0.000 HD 
HETATM   36  C   UNL     1      -9.494   6.582  69.818  1.00  0.00    -0.150 A  
HETATM   37  S   UNL     1     -10.254   6.940  71.309  1.00  0.00    -0.197 SA 
HETATM   38  H1  UNL     1      -9.447  10.350  72.205  1.00  0.00     0.000 HD 
HETATM   39  N   UNL     1      -9.827   9.405  72.242  1.00  0.00     0.441 NA 
HETATM   40  N   UNL     1      -8.918   8.814  70.177  1.00  0.00    -0.157 NA 
HETATM   41  C   UNL     1      -9.615   8.530  71.247  1.00  0.00    -0.203 A  
ENDBRANCH  24  34
ENDBRANCH  23  24
ENDBRANCH   7  20
TORSDOF 7
ENDMDL
MODEL      157
REMARK 921   NORMALIZED FREE ENERGY PREDICTED BY IDOCK:   -4.21 KCAL/MOL
REMARK 922        TOTAL FREE ENERGY PREDICTED BY IDOCK:   -7.47 KCAL/MOL
REMARK 923 INTER-LIGAND FREE ENERGY PREDICTED BY IDOCK:   -6.35 KCAL/MOL
REMARK 924 INTRA-LIGAND FREE ENERGY PREDICTED BY IDOCK:   -1.11 KCAL/MOL
REMARK 927      BINDING AFFINITY PREDICTED BY RF-SCORE:    0.00 PKD
ROOT
HETATM    1  O   UNL     1     -11.127   7.667  73.712  1.00  0.00    -0.142 OA 
HETATM    2  C   UNL     1     -10.012   7.164  73.451  1.00  0.00    -0.278 C  
HETATM    3  CA  UNL     1      -9.484   7.315  71.957  1.00  0.00    -0.132 C  
HETATM    4  OXT UNL     1      -9.224   6.527  74.217  1.00  0.00    -0.161 OA 
HETATM    5  C   UNL     1      -8.174   7.099  71.675  1.00  0.00    -0.103 C  
HETATM    6  C   UNL     1      -7.525   7.249  70.324  1.00  0.00    -0.084 C  
HETATM    7  CA  UNL     1     -11.027   8.696  69.267  1.00  0.00     0.027 C  
HETATM    8  S   UNL     1      -8.514   7.453  68.853  1.00  0.00    -0.129 SA 
HETATM    9  N   UNL     1     -10.294   7.754  70.950  1.00  0.00    -0.200 N  
HETATM   10  O   UNL     1     -11.983   9.347  71.527  1.00  0.00    -0.331 OA 
HETATM   11  C   UNL     1     -10.166   7.425  69.553  1.00  0.00    -0.204 C  
HETATM   12  C   UNL     1     -11.314   8.643  70.809  1.00  0.00    -0.263 C  
ENDROOT
BRANCH   5  13
HETATM   13  C   UNL     1      -7.140   6.757  72.733  1.00  0.00    -0.075 C  
BRANCH  13  14
HETATM   14  N   UNL     1      -6.741   5.321  72.848  1.00  0.00    -0.069 NA 
HETATM   15  C   UNL     1      -5.134   3.623  73.332  1.00  0.00     0.000 A  
HETATM   16  C   UNL     1      -5.872   2.702  72.601  1.00  0.00    -0.008 A  
HETATM   17  C   UNL     1      -5.595   4.934  73.456  1.00  0.00    -0.017 A  
HETATM   18  C   UNL     1      -7.513   4.406  72.215  1.00  0.00    -0.073 A  
HETATM   19  C   UNL     1      -7.086   3.092  72.058  1.00  0.00    -0.038 A  
ENDBRANCH  13  14
ENDBRANCH   5  13
BRANCH   7  20
HETATM   20  N   UNL     1     -10.344   9.972  68.808  1.00  0.00    -0.188 N  
HETATM   21  H   UNL     1      -9.329  10.044  68.887  1.00  0.00     0.000 HD 
HETATM   22  O   UNL     1     -12.274  11.147  68.258  1.00  0.00    -0.613 OA 
HETATM   23  C   UNL     1     -11.052  11.041  68.287  1.00  0.00    -0.257 C  
BRANCH  23  24
HETATM   24  C   UNL     1     -10.280  12.189  67.677  1.00  0.00    -0.197 C  
BRANCH  24  25
HETATM   25  N   UNL     1      -9.260  12.092  66.870  1.00  0.00    -0.191 NA 
HETATM   26  H   UNL     1      -8.301  12.053  67.215  1.00  0.00     0.000 HD 
BRANCH  25  27
HETATM   27  O   UNL     1      -9.558  12.043  65.503  1.00  0.00    -0.229 OA 
HETATM   28  C   UNL     1      -9.138  11.000  63.395  1.00  0.00    -0.199 C  
HETATM   29  C   UNL     1      -9.790   9.638  65.389  1.00  0.00    -0.322 C  
HETATM   30  O   UNL     1      -7.032  11.043  66.392  1.00  0.00    -0.134 OA 
HETATM   31  O   UNL     1      -6.733   9.972  64.444  1.00  0.00    -0.122 OA 
HETATM   32  C   UNL     1      -8.981  10.854  64.918  1.00  0.00    -0.152 C  
HETATM   33  C   UNL     1      -7.477  10.586  65.199  1.00  0.00    -0.036 C  
ENDBRANCH  25  27
ENDBRANCH  24  25
BRANCH  24  34
HETATM   34  C   UNL     1     -10.615  13.555  68.093  1.00  0.00    -0.245 A  
HETATM   35  H2  UNL     1     -11.620  16.654  70.843  1.00  0.00     0.000 HD 
HETATM   36  C   UNL     1     -10.979  14.583  67.240  1.00  0.00    -0.305 A  
HETATM   37  S   UNL     1     -11.400  15.975  68.142  1.00  0.00    -0.232 SA 
HETATM   38  H1  UNL     1     -11.087  15.187  71.659  1.00  0.00     0.000 HD 
HETATM   39  N   UNL     1     -11.276  15.694  70.795  1.00  0.00    -0.342 NA 
HETATM   40  N   UNL     1     -10.646  13.899  69.446  1.00  0.00    -0.036 NA 
HETATM   41  C   UNL     1     -11.082  15.123  69.596  1.00  0.00    -0.270 A  
ENDBRANCH  24  34
ENDBRANCH  23  24
ENDBRANCH   7  20
TORSDOF 7
ENDMDL
MODEL      158
REMARK 921   NORMALIZED FREE ENERGY PREDICTED BY IDOCK:   -4.20 KCAL/MOL
REMARK 922        TOTAL FREE ENERGY PREDICTED BY IDOCK:   -7.46 KCAL/MOL
REMARK 923 INTER-LIGAND FREE ENERGY PREDICTED BY IDOCK:   -5.36 KCAL/MOL
REMARK 924 INTRA-LIGAND FREE ENERGY PREDICTED BY IDOCK:   -2.10 KCAL/MOL
REMARK 927      BINDING AFFINITY PREDICTED BY RF-SCORE:    0.00 PKD
ROOT
HETATM    1  O   UNL     1      -5.957   4.890  70.088  1.00  0.00    -0.016 OA 
HETATM    2  C   UNL     1      -6.843   4.152  69.602  1.00  0.00    -0.042 C  
HETATM    3  CA  UNL     1      -8.143   4.867  69.027  1.00  0.00    -0.079 C  
HETATM    4  OXT UNL     1      -6.864   2.885  69.508  1.00  0.00    -0.033 OA 
HETATM    5  C   UNL     1      -8.983   4.190  68.204  1.00  0.00    -0.150 C  
HETATM    6  C   UNL     1     -10.219   4.748  67.550  1.00  0.00    -0.057 C  
HETATM    7  CA  UNL     1      -8.967   8.161  69.053  1.00  0.00    -0.144 C  
HETATM    8  S   UNL     1     -10.880   6.329  68.045  1.00  0.00    -0.321 SA 
HETATM    9  N   UNL     1      -8.398   6.188  69.260  1.00  0.00    -0.115 N  
HETATM   10  O   UNL     1      -6.511   7.647  69.438  1.00  0.00    -0.034 OA 
HETATM   11  C   UNL     1      -9.699   6.806  69.310  1.00  0.00    -0.151 C  
HETATM   12  C   UNL     1      -7.675   7.333  69.389  1.00  0.00    -0.107 C  
ENDROOT
BRANCH   5  13
HETATM   13  C   UNL     1      -8.728   2.765  67.745  1.00  0.00    -0.112 C  
BRANCH  13  14
HETATM   14  N   UNL     1      -8.247   2.583  66.341  1.00  0.00    -0.084 NA 
HETATM   15  C   UNL     1      -6.668   2.985  64.597  1.00  0.00    -0.040 A  
HETATM   16  C   UNL     1      -7.615   2.637  63.644  1.00  0.00    -0.067 A  
HETATM   17  C   UNL     1      -7.000   2.939  65.951  1.00  0.00    -0.056 A  
HETATM   18  C   UNL     1      -9.146   2.151  65.425  1.00  0.00    -0.102 A  
HETATM   19  C   UNL     1      -8.859   2.192  64.064  1.00  0.00    -0.094 A  
ENDBRANCH  13  14
ENDBRANCH   5  13
BRANCH   7  20
HETATM   20  N   UNL     1      -8.973   8.760  67.658  1.00  0.00    -0.135 N  
HETATM   21  H   UNL     1      -9.504   8.292  66.923  1.00  0.00     0.000 HD 
HETATM   22  O   UNL     1      -7.502  10.508  68.093  1.00  0.00    -0.087 OA 
HETATM   23  C   UNL     1      -8.282   9.919  67.351  1.00  0.00    -0.118 C  
BRANCH  23  24
HETATM   24  C   UNL     1      -8.500  10.550  65.994  1.00  0.00    -0.156 C  
BRANCH  24  25
HETATM   25  N   UNL     1      -9.048  11.710  65.761  1.00  0.00    -0.360 NA 
HETATM   26  H   UNL     1      -8.489  12.549  65.606  1.00  0.00     0.000 HD 
BRANCH  25  27
HETATM   27  O   UNL     1     -10.447  11.737  65.734  1.00  0.00    -0.243 OA 
HETATM   28  C   UNL     1     -12.420  12.989  65.236  1.00  0.00    -0.555 C  
HETATM   29  C   UNL     1     -10.631  12.683  63.515  1.00  0.00    -0.301 C  
HETATM   30  O   UNL     1      -9.031  14.214  65.900  1.00  0.00     0.147 OA 
HETATM   31  O   UNL     1     -10.875  15.346  65.305  1.00  0.00    -0.358 OA 
HETATM   32  C   UNL     1     -10.901  12.903  65.010  1.00  0.00    -0.299 C  
HETATM   33  C   UNL     1     -10.298  14.273  65.426  1.00  0.00    -0.370 C  
ENDBRANCH  25  27
ENDBRANCH  24  25
BRANCH  24  34
HETATM   34  C   UNL     1      -8.172   9.766  64.799  1.00  0.00    -0.148 A  
HETATM   35  H2  UNL     1      -7.049   6.283  62.613  1.00  0.00     0.000 HD 
HETATM   36  C   UNL     1      -7.901  10.292  63.548  1.00  0.00    -0.130 A  
HETATM   37  S   UNL     1      -7.452   9.042  62.468  1.00  0.00    -0.102 SA 
HETATM   38  H1  UNL     1      -7.478   5.911  64.280  1.00  0.00     0.000 HD 
HETATM   39  N   UNL     1      -7.368   6.594  63.531  1.00  0.00    -0.065 NA 
HETATM   40  N   UNL     1      -8.048   8.377  64.872  1.00  0.00    -0.142 NA 
HETATM   41  C   UNL     1      -7.636   7.894  63.728  1.00  0.00    -0.129 A  
ENDBRANCH  24  34
ENDBRANCH  23  24
ENDBRANCH   7  20
TORSDOF 7
ENDMDL
MODEL      159
REMARK 921   NORMALIZED FREE ENERGY PREDICTED BY IDOCK:   -4.20 KCAL/MOL
REMARK 922        TOTAL FREE ENERGY PREDICTED BY IDOCK:   -7.46 KCAL/MOL
REMARK 923 INTER-LIGAND FREE ENERGY PREDICTED BY IDOCK:   -6.95 KCAL/MOL
REMARK 924 INTRA-LIGAND FREE ENERGY PREDICTED BY IDOCK:   -0.50 KCAL/MOL
REMARK 927      BINDING AFFINITY PREDICTED BY RF-SCORE:    0.00 PKD
ROOT
HETATM    1  O   UNL     1      -5.214   8.202  65.006  1.00  0.00    -0.032 OA 
HETATM    2  C   UNL     1      -5.618   7.157  65.563  1.00  0.00    -0.032 C  
HETATM    3  CA  UNL     1      -6.450   7.332  66.908  1.00  0.00    -0.055 C  
HETATM    4  OXT UNL     1      -5.449   5.948  65.211  1.00  0.00    -0.015 OA 
HETATM    5  C   UNL     1      -7.191   6.301  67.387  1.00  0.00    -0.075 C  
HETATM    6  C   UNL     1      -8.061   6.334  68.616  1.00  0.00    -0.109 C  
HETATM    7  CA  UNL     1      -7.187  10.169  68.620  1.00  0.00    -0.080 C  
HETATM    8  S   UNL     1      -7.970   7.697  69.763  1.00  0.00    -0.118 SA 
HETATM    9  N   UNL     1      -6.522   8.531  67.557  1.00  0.00    -0.057 N  
HETATM   10  O   UNL     1      -6.472  10.505  66.208  1.00  0.00    -0.095 OA 
HETATM   11  C   UNL     1      -6.725   8.720  68.972  1.00  0.00    -0.052 C  
HETATM   12  C   UNL     1      -6.566   9.847  67.215  1.00  0.00    -0.070 C  
ENDROOT
BRANCH   5  13
HETATM   13  C   UNL     1      -7.318   4.966  66.675  1.00  0.00    -0.082 C  
BRANCH  13  14
HETATM   14  N   UNL     1      -7.795   3.807  67.491  1.00  0.00    -0.082 NA 
HETATM   15  C   UNL     1      -7.650   1.526  68.180  1.00  0.00    -0.046 A  
HETATM   16  C   UNL     1      -8.964   1.567  68.627  1.00  0.00    -0.151 A  
HETATM   17  C   UNL     1      -7.075   2.669  67.623  1.00  0.00    -0.049 A  
HETATM   18  C   UNL     1      -9.043   3.883  68.011  1.00  0.00    -0.142 A  
HETATM   19  C   UNL     1      -9.659   2.765  68.564  1.00  0.00    -0.094 A  
ENDBRANCH  13  14
ENDBRANCH   5  13
BRANCH   7  20
HETATM   20  N   UNL     1      -8.670  10.492  68.582  1.00  0.00    -0.135 N  
HETATM   21  H   UNL     1      -9.342   9.743  68.751  1.00  0.00     0.000 HD 
HETATM   22  O   UNL     1      -8.460  12.728  67.977  1.00  0.00    -0.159 OA 
HETATM   23  C   UNL     1      -9.140  11.768  68.326  1.00  0.00    -0.187 C  
BRANCH  23  24
HETATM   24  C   UNL     1     -10.617  12.040  68.499  1.00  0.00    -0.231 C  
BRANCH  24  25
HETATM   25  N   UNL     1     -11.341  12.859  67.787  1.00  0.00    -0.280 NA 
HETATM   26  H   UNL     1     -11.331  13.866  67.948  1.00  0.00     0.000 HD 
BRANCH  25  27
HETATM   27  O   UNL     1     -12.132  12.275  66.791  1.00  0.00    -0.593 OA 
HETATM   28  C   UNL     1     -12.870  12.344  64.519  1.00  0.00    -0.305 C  
HETATM   29  C   UNL     1     -10.431  12.317  65.072  1.00  0.00    -0.322 C  
HETATM   30  O   UNL     1     -11.437  15.037  66.548  1.00  0.00    -0.330 OA 
HETATM   31  O   UNL     1     -12.020  15.027  64.381  1.00  0.00    -0.442 OA 
HETATM   32  C   UNL     1     -11.804  12.849  65.506  1.00  0.00    -0.411 C  
HETATM   33  C   UNL     1     -11.787  14.399  65.406  1.00  0.00    -0.366 C  
ENDBRANCH  25  27
ENDBRANCH  24  25
BRANCH  24  34
HETATM   34  C   UNL     1     -11.313  11.422  69.633  1.00  0.00    -0.275 A  
HETATM   35  H2  UNL     1     -12.162   8.371  72.487  1.00  0.00     0.000 HD 
HETATM   36  C   UNL     1     -12.498  11.874  70.187  1.00  0.00    -0.077 A  
HETATM   37  S   UNL     1     -13.025  10.800  71.411  1.00  0.00    -0.414 SA 
HETATM   38  H1  UNL     1     -10.661   8.069  71.617  1.00  0.00     0.000 HD 
HETATM   39  N   UNL     1     -11.475   8.659  71.790  1.00  0.00    -0.300 NA 
HETATM   40  N   UNL     1     -10.826  10.247  70.211  1.00  0.00    -0.298 NA 
HETATM   41  C   UNL     1     -11.657   9.806  71.120  1.00  0.00    -0.392 A  
ENDBRANCH  24  34
ENDBRANCH  23  24
ENDBRANCH   7  20
TORSDOF 7
ENDMDL
MODEL      160
REMARK 921   NORMALIZED FREE ENERGY PREDICTED BY IDOCK:   -4.20 KCAL/MOL
REMARK 922        TOTAL FREE ENERGY PREDICTED BY IDOCK:   -7.45 KCAL/MOL
REMARK 923 INTER-LIGAND FREE ENERGY PREDICTED BY IDOCK:   -5.65 KCAL/MOL
REMARK 924 INTRA-LIGAND FREE ENERGY PREDICTED BY IDOCK:   -1.80 KCAL/MOL
REMARK 927      BINDING AFFINITY PREDICTED BY RF-SCORE:    0.00 PKD
ROOT
HETATM    1  O   UNL     1     -10.824   6.316  69.505  1.00  0.00    -0.265 OA 
HETATM    2  C   UNL     1      -9.595   6.387  69.730  1.00  0.00    -0.151 C  
HETATM    3  CA  UNL     1      -8.818   7.631  69.112  1.00  0.00    -0.139 C  
HETATM    4  OXT UNL     1      -8.856   5.587  70.385  1.00  0.00    -0.127 OA 
HETATM    5  C   UNL     1      -7.584   7.957  69.572  1.00  0.00    -0.099 C  
HETATM    6  C   UNL     1      -6.753   9.128  69.118  1.00  0.00    -0.050 C  
HETATM    7  CA  UNL     1      -9.986  10.105  67.102  1.00  0.00    -0.196 C  
HETATM    8  S   UNL     1      -7.211  10.067  67.672  1.00  0.00    -0.088 SA 
HETATM    9  N   UNL     1      -9.398   8.453  68.189  1.00  0.00    -0.134 N  
HETATM   10  O   UNL     1     -11.758   8.798  68.368  1.00  0.00     1.139 OA 
HETATM   11  C   UNL     1      -8.708   9.211  67.176  1.00  0.00    -0.123 C  
HETATM   12  C   UNL     1     -10.640   8.947  67.937  1.00  0.00    -0.183 C  
ENDROOT
BRANCH   5  13
HETATM   13  C   UNL     1      -6.895   7.216  70.704  1.00  0.00    -0.053 C  
BRANCH  13  14
HETATM   14  N   UNL     1      -6.657   7.981  71.966  1.00  0.00    -0.056 NA 
HETATM   15  C   UNL     1      -5.199   8.919  73.607  1.00  0.00    -0.093 A  
HETATM   16  C   UNL     1      -6.243   8.969  74.521  1.00  0.00    -0.088 A  
HETATM   17  C   UNL     1      -5.431   8.431  72.321  1.00  0.00    -0.043 A  
HETATM   18  C   UNL     1      -7.700   8.115  72.820  1.00  0.00    -0.136 A  
HETATM   19  C   UNL     1      -7.511   8.585  74.115  1.00  0.00    -0.159 A  
ENDBRANCH  13  14
ENDBRANCH   5  13
BRANCH   7  20
HETATM   20  N   UNL     1      -9.996  11.453  67.800  1.00  0.00    -0.175 N  
HETATM   21  H   UNL     1      -9.135  11.792  68.229  1.00  0.00     0.000 HD 
HETATM   22  O   UNL     1     -12.263  11.900  67.526  1.00  0.00    -0.510 OA 
HETATM   23  C   UNL     1     -11.135  12.236  67.875  1.00  0.00    -0.243 C  
BRANCH  23  24
HETATM   24  C   UNL     1     -11.008  13.643  68.414  1.00  0.00    -0.262 C  
BRANCH  24  25
HETATM   25  N   UNL     1     -10.168  14.553  68.008  1.00  0.00    -0.230 NA 
HETATM   26  H   UNL     1     -10.477  15.387  67.507  1.00  0.00     0.000 HD 
BRANCH  25  27
HETATM   27  O   UNL     1      -8.819  14.322  68.300  1.00  0.00    -0.172 OA 
HETATM   28  C   UNL     1      -6.556  15.039  68.027  1.00  0.00    -0.156 C  
HETATM   29  C   UNL     1      -8.301  16.609  68.892  1.00  0.00    -0.230 C  
HETATM   30  O   UNL     1      -9.477  15.828  65.961  1.00  0.00    -0.311 OA 
HETATM   31  O   UNL     1      -7.369  16.582  65.813  1.00  0.00     0.409 OA 
HETATM   32  C   UNL     1      -8.029  15.466  67.905  1.00  0.00    -0.135 C  
HETATM   33  C   UNL     1      -8.231  16.002  66.461  1.00  0.00    -0.299 C  
ENDBRANCH  25  27
ENDBRANCH  24  25
BRANCH  24  34
HETATM   34  C   UNL     1     -11.820  14.020  69.576  1.00  0.00    -0.325 A  
HETATM   35  H2  UNL     1     -14.140  13.352  73.090  1.00  0.00     0.000 HD 
HETATM   36  C   UNL     1     -12.374  15.270  69.792  1.00  0.00    -0.253 A  
HETATM   37  S   UNL     1     -13.341  15.251  71.204  1.00  0.00    -0.488 SA 
HETATM   38  H1  UNL     1     -13.282  11.903  72.574  1.00  0.00     0.000 HD 
HETATM   39  N   UNL     1     -13.503  12.890  72.441  1.00  0.00    -0.549 NA 
HETATM   40  N   UNL     1     -12.148  13.076  70.552  1.00  0.00    -0.340 NA 
HETATM   41  C   UNL     1     -12.971  13.592  71.428  1.00  0.00    -0.339 A  
ENDBRANCH  24  34
ENDBRANCH  23  24
ENDBRANCH   7  20
TORSDOF 7
ENDMDL
MODEL      161
REMARK 921   NORMALIZED FREE ENERGY PREDICTED BY IDOCK:   -4.12 KCAL/MOL
REMARK 922        TOTAL FREE ENERGY PREDICTED BY IDOCK:   -7.35 KCAL/MOL
REMARK 923 INTER-LIGAND FREE ENERGY PREDICTED BY IDOCK:   -7.08 KCAL/MOL
REMARK 924 INTRA-LIGAND FREE ENERGY PREDICTED BY IDOCK:   -0.27 KCAL/MOL
REMARK 927      BINDING AFFINITY PREDICTED BY RF-SCORE:    0.00 PKD
ROOT
HETATM    1  O   UNL     1     -11.480  11.593  64.354  1.00  0.00    -0.304 OA 
HETATM    2  C   UNL     1     -10.280  11.266  64.218  1.00  0.00    -0.327 C  
HETATM    3  CA  UNL     1      -9.378  11.262  65.529  1.00  0.00    -0.221 C  
HETATM    4  OXT UNL     1      -9.657  10.939  63.160  1.00  0.00    -0.286 OA 
HETATM    5  C   UNL     1      -8.184  10.617  65.531  1.00  0.00    -0.141 C  
HETATM    6  C   UNL     1      -7.250  10.490  66.705  1.00  0.00    -0.114 C  
HETATM    7  CA  UNL     1     -10.196  12.172  68.696  1.00  0.00    -0.174 C  
HETATM    8  S   UNL     1      -7.502  11.458  68.182  1.00  0.00    -0.106 SA 
HETATM    9  N   UNL     1      -9.813  11.812  66.701  1.00  0.00    -0.199 N  
HETATM   10  O   UNL     1     -12.158  11.688  67.158  1.00  0.00    -0.575 OA 
HETATM   11  C   UNL     1      -8.982  12.372  67.736  1.00  0.00    -0.182 C  
HETATM   12  C   UNL     1     -10.994  11.934  67.365  1.00  0.00    -0.263 C  
ENDROOT
BRANCH   5  13
HETATM   13  C   UNL     1      -7.659   9.837  64.339  1.00  0.00    -0.135 C  
BRANCH  13  14
HETATM   14  N   UNL     1      -7.481   8.363  64.521  1.00  0.00    -0.094 NA 
HETATM   15  C   UNL     1      -7.988   6.311  65.631  1.00  0.00    -0.115 A  
HETATM   16  C   UNL     1      -6.804   5.755  65.166  1.00  0.00    -0.051 A  
HETATM   17  C   UNL     1      -8.318   7.622  65.285  1.00  0.00    -0.115 A  
HETATM   18  C   UNL     1      -6.373   7.797  63.986  1.00  0.00    -0.057 A  
HETATM   19  C   UNL     1      -6.000   6.498  64.315  1.00  0.00    -0.034 A  
ENDBRANCH  13  14
ENDBRANCH   5  13
BRANCH   7  20
HETATM   20  N   UNL     1     -10.210  10.988  69.646  1.00  0.00    -0.438 N  
HETATM   21  H   UNL     1     -10.120  11.159  70.648  1.00  0.00     0.000 HD 
HETATM   22  O   UNL     1     -10.325   9.324  68.025  1.00  0.00    -0.199 OA 
HETATM   23  C   UNL     1     -10.341   9.685  69.198  1.00  0.00    -0.207 C  
BRANCH  23  24
HETATM   24  C   UNL     1     -10.542   8.588  70.219  1.00  0.00    -0.226 C  
BRANCH  24  25
HETATM   25  N   UNL     1      -9.643   7.734  70.622  1.00  0.00    -0.167 NA 
HETATM   26  H   UNL     1      -8.714   7.690  70.203  1.00  0.00     0.000 HD 
BRANCH  25  27
HETATM   27  O   UNL     1     -10.026   6.881  71.664  1.00  0.00    -0.173 OA 
HETATM   28  C   UNL     1     -10.163   4.637  72.470  1.00  0.00    -0.243 C  
HETATM   29  C   UNL     1      -7.987   5.580  71.677  1.00  0.00    -0.117 C  
HETATM   30  O   UNL     1      -9.846   5.818  69.017  1.00  0.00    -0.141 OA 
HETATM   31  O   UNL     1      -9.848   3.724  69.823  1.00  0.00    -0.176 OA 
HETATM   32  C   UNL     1      -9.501   5.555  71.429  1.00  0.00    -0.148 C  
HETATM   33  C   UNL     1      -9.763   4.927  70.033  1.00  0.00    -0.215 C  
ENDBRANCH  25  27
ENDBRANCH  24  25
BRANCH  24  34
HETATM   34  C   UNL     1     -11.891   8.367  70.750  1.00  0.00    -0.163 A  
HETATM   35  H2  UNL     1     -15.273   9.124  73.233  1.00  0.00     0.000 HD 
HETATM   36  C   UNL     1     -12.657   7.234  70.539  1.00  0.00     0.120 A  
HETATM   37  S   UNL     1     -14.115   7.333  71.430  1.00  0.00    -0.209 SA 
HETATM   38  H1  UNL     1     -14.103  10.440  73.284  1.00  0.00     0.000 HD 
HETATM   39  N   UNL     1     -14.390   9.531  72.921  1.00  0.00    -0.096 NA 
HETATM   40  N   UNL     1     -12.488   9.309  71.590  1.00  0.00    -0.345 NA 
HETATM   41  C   UNL     1     -13.631   8.861  72.040  1.00  0.00    -0.441 A  
ENDBRANCH  24  34
ENDBRANCH  23  24
ENDBRANCH   7  20
TORSDOF 7
ENDMDL
MODEL      162
REMARK 921   NORMALIZED FREE ENERGY PREDICTED BY IDOCK:   -4.10 KCAL/MOL
REMARK 922        TOTAL FREE ENERGY PREDICTED BY IDOCK:   -7.32 KCAL/MOL
REMARK 923 INTER-LIGAND FREE ENERGY PREDICTED BY IDOCK:   -7.54 KCAL/MOL
REMARK 924 INTRA-LIGAND FREE ENERGY PREDICTED BY IDOCK:    0.22 KCAL/MOL
REMARK 927      BINDING AFFINITY PREDICTED BY RF-SCORE:    0.00 PKD
ROOT
HETATM    1  O   UNL     1     -10.548  15.869  70.232  1.00  0.00    -0.309 OA 
HETATM    2  C   UNL     1     -11.339  14.910  70.376  1.00  0.00    -0.243 C  
HETATM    3  CA  UNL     1     -11.439  13.869  69.176  1.00  0.00    -0.299 C  
HETATM    4  OXT UNL     1     -12.101  14.645  71.357  1.00  0.00    -0.330 OA 
HETATM    5  C   UNL     1     -12.006  12.653  69.378  1.00  0.00    -0.318 C  
HETATM    6  C   UNL     1     -12.127  11.554  68.355  1.00  0.00    -0.049 C  
HETATM    7  CA  UNL     1      -9.906  13.935  66.148  1.00  0.00    -0.302 C  
HETATM    8  S   UNL     1     -11.782  11.867  66.633  1.00  0.00    -0.057 SA 
HETATM    9  N   UNL     1     -10.880  14.124  67.957  1.00  0.00    -0.242 N  
HETATM   10  O   UNL     1      -8.868  15.417  67.929  1.00  0.00    -0.166 OA 
HETATM   11  C   UNL     1     -11.332  13.604  66.691  1.00  0.00    -0.326 C  
HETATM   12  C   UNL     1      -9.770  14.751  67.482  1.00  0.00    -0.213 C  
ENDROOT
BRANCH   5  13
HETATM   13  C   UNL     1     -12.525  12.190  70.728  1.00  0.00    -0.271 C  
BRANCH  13  14
HETATM   14  N   UNL     1     -12.506  10.719  70.991  1.00  0.00    -0.384 NA 
HETATM   15  C   UNL     1     -13.388   8.764  72.040  1.00  0.00    -0.455 A  
HETATM   16  C   UNL     1     -12.182   8.103  71.846  1.00  0.00    -0.373 A  
HETATM   17  C   UNL     1     -13.536  10.076  71.591  1.00  0.00    -0.309 A  
HETATM   18  C   UNL     1     -11.361  10.050  70.712  1.00  0.00    -0.360 A  
HETATM   19  C   UNL     1     -11.167   8.745  71.153  1.00  0.00    -0.339 A  
ENDBRANCH  13  14
ENDBRANCH   5  13
BRANCH   7  20
HETATM   20  N   UNL     1      -8.887  12.820  65.999  1.00  0.00    -0.346 N  
HETATM   21  H   UNL     1      -8.584  12.552  65.062  1.00  0.00     0.000 HD 
HETATM   22  O   UNL     1      -8.722  12.281  68.255  1.00  0.00    -0.182 OA 
HETATM   23  C   UNL     1      -8.355  12.157  67.091  1.00  0.00    -0.183 C  
BRANCH  23  24
HETATM   24  C   UNL     1      -7.207  11.199  66.864  1.00  0.00    -0.138 C  
BRANCH  24  25
HETATM   25  N   UNL     1      -6.899  10.615  65.740  1.00  0.00    -0.234 NA 
HETATM   26  H   UNL     1      -5.954  10.283  65.546  1.00  0.00     0.000 HD 
BRANCH  25  27
HETATM   27  O   UNL     1      -7.939  10.469  64.815  1.00  0.00    -0.135 OA 
HETATM   28  C   UNL     1      -8.765   9.320  62.890  1.00  0.00    -0.210 C  
HETATM   29  C   UNL     1      -8.015   8.053  64.912  1.00  0.00    -0.138 C  
HETATM   30  O   UNL     1      -5.308   9.646  64.059  1.00  0.00    -0.060 OA 
HETATM   31  O   UNL     1      -6.135   8.472  62.335  1.00  0.00    -0.087 OA 
HETATM   32  C   UNL     1      -7.731   9.275  64.027  1.00  0.00    -0.117 C  
HETATM   33  C   UNL     1      -6.335   9.096  63.370  1.00  0.00    -0.090 C  
ENDBRANCH  25  27
ENDBRANCH  24  25
BRANCH  24  34
HETATM   34  C   UNL     1      -6.406  10.784  68.020  1.00  0.00    -0.058 A  
HETATM   35  H2  UNL     1      -4.705   8.028  70.792  1.00  0.00     0.000 HD 
HETATM   36  C   UNL     1      -5.908  11.632  68.994  1.00  0.00    -0.053 A  
HETATM   37  S   UNL     1      -5.132  10.728  70.223  1.00  0.00    -0.059 SA 
HETATM   38  H1  UNL     1      -5.416   7.217  69.400  1.00  0.00     0.000 HD 
HETATM   39  N   UNL     1      -5.189   8.079  69.895  1.00  0.00    -0.023 NA 
HETATM   40  N   UNL     1      -6.136   9.433  68.250  1.00  0.00    -0.048 NA 
HETATM   41  C   UNL     1      -5.514   9.278  69.390  1.00  0.00    -0.035 A  
ENDBRANCH  24  34
ENDBRANCH  23  24
ENDBRANCH   7  20
TORSDOF 7
ENDMDL
MODEL      163
REMARK 921   NORMALIZED FREE ENERGY PREDICTED BY IDOCK:   -4.10 KCAL/MOL
REMARK 922        TOTAL FREE ENERGY PREDICTED BY IDOCK:   -7.32 KCAL/MOL
REMARK 923 INTER-LIGAND FREE ENERGY PREDICTED BY IDOCK:   -7.00 KCAL/MOL
REMARK 924 INTRA-LIGAND FREE ENERGY PREDICTED BY IDOCK:   -0.32 KCAL/MOL
REMARK 927      BINDING AFFINITY PREDICTED BY RF-SCORE:    0.00 PKD
ROOT
HETATM    1  O   UNL     1      -6.059  15.317  69.139  1.00  0.00    -0.098 OA 
HETATM    2  C   UNL     1      -7.238  15.735  69.128  1.00  0.00    -0.192 C  
HETATM    3  CA  UNL     1      -8.384  14.655  68.897  1.00  0.00    -0.142 C  
HETATM    4  OXT UNL     1      -7.666  16.923  69.265  1.00  0.00    -0.195 OA 
HETATM    5  C   UNL     1      -9.673  14.959  69.194  1.00  0.00    -0.184 C  
HETATM    6  C   UNL     1     -10.851  14.028  69.073  1.00  0.00    -0.243 C  
HETATM    7  CA  UNL     1      -8.103  11.330  68.268  1.00  0.00    -0.137 C  
HETATM    8  S   UNL     1     -10.698  12.468  68.221  1.00  0.00    -0.236 SA 
HETATM    9  N   UNL     1      -8.100  13.381  68.495  1.00  0.00    -0.137 N  
HETATM   10  O   UNL     1      -6.040  12.434  69.254  1.00  0.00    -0.080 OA 
HETATM   11  C   UNL     1      -8.970  12.516  67.738  1.00  0.00    -0.184 C  
HETATM   12  C   UNL     1      -7.113  12.469  68.703  1.00  0.00    -0.100 C  
ENDROOT
BRANCH   5  13
HETATM   13  C   UNL     1     -10.098  16.287  69.794  1.00  0.00    -0.119 C  
BRANCH  13  14
HETATM   14  N   UNL     1     -10.375  17.402  68.837  1.00  0.00    -0.348 NA 
HETATM   15  C   UNL     1     -10.637  18.247  66.620  1.00  0.00    -0.324 A  
HETATM   16  C   UNL     1     -10.414  19.540  67.075  1.00  0.00    -0.587 A  
HETATM   17  C   UNL     1     -10.627  17.186  67.525  1.00  0.00    -0.323 A  
HETATM   18  C   UNL     1     -10.252  18.669  69.302  1.00  0.00     0.096 A  
HETATM   19  C   UNL     1     -10.243  19.755  68.433  1.00  0.00    -0.568 A  
ENDBRANCH  13  14
ENDBRANCH   5  13
BRANCH   7  20
HETATM   20  N   UNL     1      -8.618  10.485  69.419  1.00  0.00    -0.323 N  
HETATM   21  H   UNL     1      -9.546  10.678  69.796  1.00  0.00     0.000 HD 
HETATM   22  O   UNL     1      -6.697   9.205  69.713  1.00  0.00    -0.047 OA 
HETATM   23  C   UNL     1      -7.869   9.461  69.973  1.00  0.00    -0.132 C  
BRANCH  23  24
HETATM   24  C   UNL     1      -8.532   8.547  70.979  1.00  0.00    -0.156 C  
BRANCH  24  25
HETATM   25  N   UNL     1      -9.404   8.896  71.883  1.00  0.00    -0.352 NA 
HETATM   26  H   UNL     1      -9.388   9.817  72.321  1.00  0.00     0.000 HD 
BRANCH  25  27
HETATM   27  O   UNL     1     -10.363   7.933  72.218  1.00  0.00    -0.216 OA 
HETATM   28  C   UNL     1     -12.635   7.216  72.033  1.00  0.00    -0.253 C  
HETATM   29  C   UNL     1     -11.281   7.716  69.991  1.00  0.00    -0.146 C  
HETATM   30  O   UNL     1     -11.242  10.571  71.553  1.00  0.00     0.292 OA 
HETATM   31  O   UNL     1     -13.341   9.834  71.263  1.00  0.00    -0.378 OA 
HETATM   32  C   UNL     1     -11.562   8.143  71.438  1.00  0.00    -0.278 C  
HETATM   33  C   UNL     1     -12.154   9.579  71.424  1.00  0.00    -0.378 C  
ENDBRANCH  25  27
ENDBRANCH  24  25
BRANCH  24  34
HETATM   34  C   UNL     1      -8.097   7.147  71.042  1.00  0.00    -0.104 A  
HETATM   35  H2  UNL     1      -7.999   3.043  69.894  1.00  0.00     0.000 HD 
HETATM   36  C   UNL     1      -7.381   6.579  72.082  1.00  0.00    -0.091 A  
HETATM   37  S   UNL     1      -7.183   4.901  71.814  1.00  0.00    -0.069 SA 
HETATM   38  H1  UNL     1      -8.851   4.042  68.720  1.00  0.00     0.000 HD 
HETATM   39  N   UNL     1      -8.328   3.961  69.592  1.00  0.00    -0.056 NA 
HETATM   40  N   UNL     1      -8.449   6.247  70.035  1.00  0.00    -0.132 NA 
HETATM   41  C   UNL     1      -8.063   5.037  70.348  1.00  0.00    -0.085 A  
ENDBRANCH  24  34
ENDBRANCH  23  24
ENDBRANCH   7  20
TORSDOF 7
ENDMDL
MODEL      164
REMARK 921   NORMALIZED FREE ENERGY PREDICTED BY IDOCK:   -4.10 KCAL/MOL
REMARK 922        TOTAL FREE ENERGY PREDICTED BY IDOCK:   -7.31 KCAL/MOL
REMARK 923 INTER-LIGAND FREE ENERGY PREDICTED BY IDOCK:   -6.30 KCAL/MOL
REMARK 924 INTRA-LIGAND FREE ENERGY PREDICTED BY IDOCK:   -1.01 KCAL/MOL
REMARK 927      BINDING AFFINITY PREDICTED BY RF-SCORE:    0.00 PKD
ROOT
HETATM    1  O   UNL     1     -11.144   6.880  70.706  1.00  0.00    -0.250 OA 
HETATM    2  C   UNL     1     -10.421   6.525  69.749  1.00  0.00    -0.211 C  
HETATM    3  CA  UNL     1     -10.079   7.628  68.654  1.00  0.00    -0.190 C  
HETATM    4  OXT UNL     1      -9.916   5.384  69.511  1.00  0.00    -0.179 OA 
HETATM    5  C   UNL     1      -9.058   7.426  67.782  1.00  0.00    -0.129 C  
HETATM    6  C   UNL     1      -8.592   8.395  66.728  1.00  0.00    -0.118 C  
HETATM    7  CA  UNL     1     -11.162  10.838  68.433  1.00  0.00    -0.284 C  
HETATM    8  S   UNL     1      -9.562   9.836  66.319  1.00  0.00    -0.231 SA 
HETATM    9  N   UNL     1     -10.725   8.830  68.620  1.00  0.00    -0.129 N  
HETATM   10  O   UNL     1     -11.419   9.753  70.714  1.00  0.00    -0.288 OA 
HETATM   11  C   UNL     1     -10.942   9.644  67.450  1.00  0.00    -0.069 C  
HETATM   12  C   UNL     1     -11.240   9.709  69.521  1.00  0.00    -0.109 C  
ENDROOT
BRANCH   5  13
HETATM   13  C   UNL     1      -8.165   6.199  67.817  1.00  0.00    -0.117 C  
BRANCH  13  14
HETATM   14  N   UNL     1      -8.077   5.391  66.562  1.00  0.00    -0.105 NA 
HETATM   15  C   UNL     1      -9.040   3.939  64.931  1.00  0.00    -0.141 A  
HETATM   16  C   UNL     1      -7.774   3.537  64.525  1.00  0.00    -0.077 A  
HETATM   17  C   UNL     1      -9.171   4.883  65.949  1.00  0.00    -0.155 A  
HETATM   18  C   UNL     1      -6.840   5.077  66.108  1.00  0.00    -0.061 A  
HETATM   19  C   UNL     1      -6.663   4.131  65.104  1.00  0.00    -0.048 A  
ENDBRANCH  13  14
ENDBRANCH   5  13
BRANCH   7  20
HETATM   20  N   UNL     1     -10.040  11.836  68.657  1.00  0.00    -0.288 N  
HETATM   21  H   UNL     1      -9.136  11.496  68.984  1.00  0.00     0.000 HD 
HETATM   22  O   UNL     1     -11.264  13.753  68.169  1.00  0.00    -0.250 OA 
HETATM   23  C   UNL     1     -10.205  13.192  68.432  1.00  0.00    -0.247 C  
BRANCH  23  24
HETATM   24  C   UNL     1      -8.987  14.085  68.492  1.00  0.00    -0.160 C  
BRANCH  24  25
HETATM   25  N   UNL     1      -8.984  15.379  68.658  1.00  0.00    -0.181 NA 
HETATM   26  H   UNL     1      -9.356  15.815  69.502  1.00  0.00     0.000 HD 
BRANCH  25  27
HETATM   27  O   UNL     1      -8.442  16.134  67.612  1.00  0.00    -0.164 OA 
HETATM   28  C   UNL     1      -8.137  18.300  66.651  1.00  0.00    -0.281 C  
HETATM   29  C   UNL     1      -7.479  17.848  69.021  1.00  0.00    -0.171 C  
HETATM   30  O   UNL     1     -10.667  17.195  69.059  1.00  0.00    -0.309 OA 
HETATM   31  O   UNL     1     -10.268  19.244  68.234  1.00  0.00    -0.393 OA 
HETATM   32  C   UNL     1      -8.517  17.541  67.933  1.00  0.00    -0.230 C  
HETATM   33  C   UNL     1      -9.895  18.089  68.397  1.00  0.00    -0.366 C  
ENDBRANCH  25  27
ENDBRANCH  24  25
BRANCH  24  34
HETATM   34  C   UNL     1      -7.671  13.490  68.237  1.00  0.00    -0.137 A  
HETATM   35  H2  UNL     1      -4.449  10.762  68.832  1.00  0.00     0.000 HD 
HETATM   36  C   UNL     1      -6.673  14.056  67.463  1.00  0.00    -0.108 A  
HETATM   37  S   UNL     1      -5.261  13.092  67.522  1.00  0.00     0.052 SA 
HETATM   38  H1  UNL     1      -5.900  10.277  69.704  1.00  0.00     0.000 HD 
HETATM   39  N   UNL     1      -5.425  10.928  69.079  1.00  0.00    -0.041 NA 
HETATM   40  N   UNL     1      -7.308  12.284  68.840  1.00  0.00    -0.081 NA 
HETATM   41  C   UNL     1      -6.059  11.997  68.574  1.00  0.00    -0.051 A  
ENDBRANCH  24  34
ENDBRANCH  23  24
ENDBRANCH   7  20
TORSDOF 7
ENDMDL
MODEL      165
REMARK 921   NORMALIZED FREE ENERGY PREDICTED BY IDOCK:   -4.04 KCAL/MOL
REMARK 922        TOTAL FREE ENERGY PREDICTED BY IDOCK:   -7.24 KCAL/MOL
REMARK 923 INTER-LIGAND FREE ENERGY PREDICTED BY IDOCK:   -7.79 KCAL/MOL
REMARK 924 INTRA-LIGAND FREE ENERGY PREDICTED BY IDOCK:    0.55 KCAL/MOL
REMARK 927      BINDING AFFINITY PREDICTED BY RF-SCORE:    0.00 PKD
ROOT
HETATM    1  O   UNL     1      -6.914   7.659  72.216  1.00  0.00    -0.061 OA 
HETATM    2  C   UNL     1      -7.000   6.863  71.255  1.00  0.00    -0.062 C  
HETATM    3  CA  UNL     1      -8.416   6.750  70.536  1.00  0.00    -0.138 C  
HETATM    4  OXT UNL     1      -6.107   6.105  70.763  1.00  0.00    -0.035 OA 
HETATM    5  C   UNL     1      -8.510   6.176  69.309  1.00  0.00    -0.119 C  
HETATM    6  C   UNL     1      -9.768   6.042  68.492  1.00  0.00    -0.123 C  
HETATM    7  CA  UNL     1     -11.349   8.265  71.325  1.00  0.00    -0.267 C  
HETATM    8  S   UNL     1     -11.366   6.379  69.211  1.00  0.00    -0.228 SA 
HETATM    9  N   UNL     1      -9.541   7.303  71.075  1.00  0.00    -0.159 N  
HETATM   10  O   UNL     1      -9.269   9.323  72.327  1.00  0.00    -0.103 OA 
HETATM   11  C   UNL     1     -10.892   6.840  70.880  1.00  0.00    -0.249 C  
HETATM   12  C   UNL     1      -9.858   8.414  71.794  1.00  0.00    -0.243 C  
ENDROOT
BRANCH   5  13
HETATM   13  C   UNL     1      -7.309   5.662  68.536  1.00  0.00    -0.076 C  
BRANCH  13  14
HETATM   14  N   UNL     1      -6.765   6.551  67.464  1.00  0.00    -0.064 NA 
HETATM   15  C   UNL     1      -6.482   8.700  66.464  1.00  0.00    -0.059 A  
HETATM   16  C   UNL     1      -6.169   8.105  65.249  1.00  0.00    -0.045 A  
HETATM   17  C   UNL     1      -6.766   7.900  67.571  1.00  0.00    -0.069 A  
HETATM   18  C   UNL     1      -6.367   5.964  66.310  1.00  0.00    -0.042 A  
HETATM   19  C   UNL     1      -6.087   6.723  65.179  1.00  0.00    -0.035 A  
ENDBRANCH  13  14
ENDBRANCH   5  13
BRANCH   7  20
HETATM   20  N   UNL     1     -11.771   9.277  70.275  1.00  0.00    -0.461 N  
HETATM   21  H   UNL     1     -12.762   9.496  70.173  1.00  0.00     0.000 HD 
HETATM   22  O   UNL     1      -9.660   9.649  69.373  1.00  0.00    -0.170 OA 
HETATM   23  C   UNL     1     -10.856   9.911  69.453  1.00  0.00    -0.237 C  
BRANCH  23  24
HETATM   24  C   UNL     1     -11.339  11.042  68.573  1.00  0.00    -0.287 C  
BRANCH  24  25
HETATM   25  N   UNL     1     -11.324  11.068  67.270  1.00  0.00    -0.452 NA 
HETATM   26  H   UNL     1     -11.534  10.241  66.711  1.00  0.00     0.000 HD 
BRANCH  25  27
HETATM   27  O   UNL     1     -11.002  12.297  66.682  1.00  0.00    -0.255 OA 
HETATM   28  C   UNL     1     -10.429  13.476  64.684  1.00  0.00    -0.439 C  
HETATM   29  C   UNL     1     -12.486  12.057  64.787  1.00  0.00    -0.113 C  
HETATM   30  O   UNL     1     -10.133   9.895  65.400  1.00  0.00    -0.313 OA 
HETATM   31  O   UNL     1      -9.728  11.017  63.499  1.00  0.00    -0.270 OA 
HETATM   32  C   UNL     1     -11.025  12.173  65.242  1.00  0.00    -0.304 C  
HETATM   33  C   UNL     1     -10.220  10.999  64.621  1.00  0.00    -0.330 C  
ENDBRANCH  25  27
ENDBRANCH  24  25
BRANCH  24  34
HETATM   34  C   UNL     1     -11.777  12.286  69.215  1.00  0.00    -0.330 A  
HETATM   35  H2  UNL     1     -12.108  16.508  69.705  1.00  0.00     0.000 HD 
HETATM   36  C   UNL     1     -12.326  12.382  70.482  1.00  0.00    -0.262 A  
HETATM   37  S   UNL     1     -12.585  14.024  70.889  1.00  0.00    -0.365 SA 
HETATM   38  H1  UNL     1     -11.440  16.071  68.135  1.00  0.00     0.000 HD 
HETATM   39  N   UNL     1     -11.820  15.791  69.039  1.00  0.00    -0.392 NA 
HETATM   40  N   UNL     1     -11.600  13.516  68.576  1.00  0.00    -0.309 NA 
HETATM   41  C   UNL     1     -11.947  14.497  69.369  1.00  0.00    -0.322 A  
ENDBRANCH  24  34
ENDBRANCH  23  24
ENDBRANCH   7  20
TORSDOF 7
ENDMDL
MODEL      166
REMARK 921   NORMALIZED FREE ENERGY PREDICTED BY IDOCK:   -3.98 KCAL/MOL
REMARK 922        TOTAL FREE ENERGY PREDICTED BY IDOCK:   -7.15 KCAL/MOL
REMARK 923 INTER-LIGAND FREE ENERGY PREDICTED BY IDOCK:   -7.02 KCAL/MOL
REMARK 924 INTRA-LIGAND FREE ENERGY PREDICTED BY IDOCK:   -0.13 KCAL/MOL
REMARK 927      BINDING AFFINITY PREDICTED BY RF-SCORE:    0.00 PKD
ROOT
HETATM    1  O   UNL     1      -8.324  10.246  63.916  1.00  0.00    -0.161 OA 
HETATM    2  C   UNL     1      -8.175   9.026  64.151  1.00  0.00    -0.166 C  
HETATM    3  CA  UNL     1      -7.958   8.606  65.671  1.00  0.00    -0.105 C  
HETATM    4  OXT UNL     1      -8.160   8.052  63.336  1.00  0.00    -0.154 OA 
HETATM    5  C   UNL     1      -8.117   7.311  66.046  1.00  0.00    -0.121 C  
HETATM    6  C   UNL     1      -7.991   6.776  67.448  1.00  0.00    -0.114 C  
HETATM    7  CA  UNL     1      -7.683  10.575  68.422  1.00  0.00    -0.104 C  
HETATM    8  S   UNL     1      -7.311   7.785  68.753  1.00  0.00    -0.088 SA 
HETATM    9  N   UNL     1      -7.708   9.531  66.643  1.00  0.00    -0.097 N  
HETATM   10  O   UNL     1      -8.722  11.682  66.387  1.00  0.00    -0.192 OA 
HETATM   11  C   UNL     1      -6.970   9.304  67.860  1.00  0.00    -0.077 C  
HETATM   12  C   UNL     1      -8.085  10.808  66.922  1.00  0.00    -0.132 C  
ENDROOT
BRANCH   5  13
HETATM   13  C   UNL     1      -8.546   6.214  65.089  1.00  0.00    -0.046 C  
BRANCH  13  14
HETATM   14  N   UNL     1      -7.595   5.077  64.893  1.00  0.00    -0.076 NA 
HETATM   15  C   UNL     1      -5.497   4.199  64.168  1.00  0.00    -0.013 A  
HETATM   16  C   UNL     1      -6.042   2.924  64.102  1.00  0.00    -0.018 A  
HETATM   17  C   UNL     1      -6.292   5.268  64.582  1.00  0.00    -0.034 A  
HETATM   18  C   UNL     1      -8.107   3.823  64.923  1.00  0.00    -0.093 A  
HETATM   19  C   UNL     1      -7.353   2.731  64.507  1.00  0.00    -0.066 A  
ENDBRANCH  13  14
ENDBRANCH   5  13
BRANCH   7  20
HETATM   20  N   UNL     1      -8.865  10.414  69.361  1.00  0.00    -0.292 N  
HETATM   21  H   UNL     1      -8.725  10.568  70.360  1.00  0.00     0.000 HD 
HETATM   22  O   UNL     1     -10.407   9.724  67.763  1.00  0.00    -0.195 OA 
HETATM   23  C   UNL     1     -10.125  10.067  68.907  1.00  0.00    -0.190 C  
BRANCH  23  24
HETATM   24  C   UNL     1     -11.282  10.120  69.879  1.00  0.00    -0.287 C  
BRANCH  24  25
HETATM   25  N   UNL     1     -11.930   9.098  70.366  1.00  0.00    -0.469 NA 
HETATM   26  H   UNL     1     -12.641   9.206  71.089  1.00  0.00     0.000 HD 
BRANCH  25  27
HETATM   27  O   UNL     1     -11.593   7.846  69.838  1.00  0.00     0.029 OA 
HETATM   28  C   UNL     1     -10.649   5.689  70.240  1.00  0.00    -0.370 C  
HETATM   29  C   UNL     1     -12.512   6.556  71.666  1.00  0.00    -0.271 C  
HETATM   30  O   UNL     1     -10.189   8.785  72.144  1.00  0.00    -0.325 OA 
HETATM   31  O   UNL     1      -9.426   6.716  72.562  1.00  0.00    -0.148 OA 
HETATM   32  C   UNL     1     -11.234   6.944  70.908  1.00  0.00    -0.289 C  
HETATM   33  C   UNL     1     -10.184   7.447  71.936  1.00  0.00    -0.187 C  
ENDBRANCH  25  27
ENDBRANCH  24  25
BRANCH  24  34
HETATM   34  C   UNL     1     -11.822  11.432  70.250  1.00  0.00    -0.350 A  
HETATM   35  H2  UNL     1     -14.218  14.173  72.469  1.00  0.00     0.000 HD 
HETATM   36  C   UNL     1     -11.699  12.588  69.499  1.00  0.00    -0.309 A  
HETATM   37  S   UNL     1     -12.571  13.864  70.234  1.00  0.00    -0.196 SA 
HETATM   38  H1  UNL     1     -14.168  12.578  73.215  1.00  0.00     0.000 HD 
HETATM   39  N   UNL     1     -13.878  13.210  72.469  1.00  0.00    -0.684 NA 
HETATM   40  N   UNL     1     -12.580  11.586  71.413  1.00  0.00    -0.348 NA 
HETATM   41  C   UNL     1     -13.059  12.801  71.488  1.00  0.00    -0.286 A  
ENDBRANCH  24  34
ENDBRANCH  23  24
ENDBRANCH   7  20
TORSDOF 7
ENDMDL
MODEL      167
REMARK 921   NORMALIZED FREE ENERGY PREDICTED BY IDOCK:   -3.98 KCAL/MOL
REMARK 922        TOTAL FREE ENERGY PREDICTED BY IDOCK:   -7.14 KCAL/MOL
REMARK 923 INTER-LIGAND FREE ENERGY PREDICTED BY IDOCK:   -7.12 KCAL/MOL
REMARK 924 INTRA-LIGAND FREE ENERGY PREDICTED BY IDOCK:   -0.02 KCAL/MOL
REMARK 927      BINDING AFFINITY PREDICTED BY RF-SCORE:    0.00 PKD
ROOT
HETATM    1  O   UNL     1      -6.457  12.301  69.277  1.00  0.00    -0.097 OA 
HETATM    2  C   UNL     1      -7.445  12.607  68.573  1.00  0.00    -0.121 C  
HETATM    3  CA  UNL     1      -7.920  11.540  67.492  1.00  0.00    -0.133 C  
HETATM    4  OXT UNL     1      -8.135  13.674  68.586  1.00  0.00    -0.139 OA 
HETATM    5  C   UNL     1      -9.151  11.644  66.930  1.00  0.00    -0.188 C  
HETATM    6  C   UNL     1      -9.751  10.687  65.933  1.00  0.00    -0.223 C  
HETATM    7  CA  UNL     1      -6.534   8.549  66.680  1.00  0.00    -0.060 C  
HETATM    8  S   UNL     1      -8.748   9.437  65.149  1.00  0.00    -0.192 SA 
HETATM    9  N   UNL     1      -7.158  10.453  67.174  1.00  0.00    -0.088 N  
HETATM   10  O   UNL     1      -5.826   9.508  68.922  1.00  0.00    -0.039 OA 
HETATM   11  C   UNL     1      -7.154   9.758  65.911  1.00  0.00    -0.102 C  
HETATM   12  C   UNL     1      -6.317   9.603  67.823  1.00  0.00    -0.053 C  
ENDROOT
BRANCH   5  13
HETATM   13  C   UNL     1     -10.152  12.719  67.313  1.00  0.00    -0.226 C  
BRANCH  13  14
HETATM   14  N   UNL     1     -10.782  13.485  66.194  1.00  0.00    -0.286 NA 
HETATM   15  C   UNL     1     -10.999  15.454  64.862  1.00  0.00    -0.453 A  
HETATM   16  C   UNL     1     -12.263  15.051  64.454  1.00  0.00    -0.353 A  
HETATM   17  C   UNL     1     -10.263  14.645  65.728  1.00  0.00    -0.340 A  
HETATM   18  C   UNL     1     -11.973  13.040  65.726  1.00  0.00    -0.429 A  
HETATM   19  C   UNL     1     -12.745  13.820  64.871  1.00  0.00    -0.314 A  
ENDBRANCH  13  14
ENDBRANCH   5  13
BRANCH   7  20
HETATM   20  N   UNL     1      -7.421   7.382  67.076  1.00  0.00    -0.096 N  
HETATM   21  H   UNL     1      -7.349   6.509  66.554  1.00  0.00     0.000 HD 
HETATM   22  O   UNL     1      -8.611   8.481  68.746  1.00  0.00    -0.129 OA 
HETATM   23  C   UNL     1      -8.324   7.464  68.122  1.00  0.00    -0.124 C  
BRANCH  23  24
HETATM   24  C   UNL     1      -9.023   6.200  68.572  1.00  0.00    -0.115 C  
BRANCH  24  25
HETATM   25  N   UNL     1      -9.510   5.968  69.758  1.00  0.00    -0.148 NA 
HETATM   26  H   UNL     1     -10.141   5.186  69.939  1.00  0.00     0.000 HD 
BRANCH  25  27
HETATM   27  O   UNL     1      -9.118   6.851  70.771  1.00  0.00    -0.153 OA 
HETATM   28  C   UNL     1      -9.788   8.207  72.620  1.00  0.00    -0.364 C  
HETATM   29  C   UNL     1     -10.378   5.778  72.534  1.00  0.00    -0.233 C  
HETATM   30  O   UNL     1     -11.825   6.928  69.856  1.00  0.00    -0.212 OA 
HETATM   31  O   UNL     1     -12.440   8.092  71.674  1.00  0.00    -0.302 OA 
HETATM   32  C   UNL     1     -10.210   7.053  71.696  1.00  0.00    -0.194 C  
HETATM   33  C   UNL     1     -11.589   7.432  71.091  1.00  0.00    -0.286 C  
ENDBRANCH  25  27
ENDBRANCH  24  25
BRANCH  24  34
HETATM   34  C   UNL     1      -9.082   5.067  67.642  1.00  0.00    -0.113 A  
HETATM   35  H2  UNL     1     -10.309   2.957  64.147  1.00  0.00     0.000 HD 
HETATM   36  C   UNL     1      -8.642   3.784  67.917  1.00  0.00    -0.098 A  
HETATM   37  S   UNL     1      -9.003   2.743  66.607  1.00  0.00    -0.138 SA 
HETATM   38  H1  UNL     1     -10.728   4.665  64.073  1.00  0.00     0.000 HD 
HETATM   39  N   UNL     1     -10.300   3.885  64.571  1.00  0.00    -0.236 NA 
HETATM   40  N   UNL     1      -9.671   5.210  66.384  1.00  0.00    -0.159 NA 
HETATM   41  C   UNL     1      -9.724   4.056  65.771  1.00  0.00    -0.190 A  
ENDBRANCH  24  34
ENDBRANCH  23  24
ENDBRANCH   7  20
TORSDOF 7
ENDMDL
MODEL      168
REMARK 921   NORMALIZED FREE ENERGY PREDICTED BY IDOCK:   -3.92 KCAL/MOL
REMARK 922        TOTAL FREE ENERGY PREDICTED BY IDOCK:   -7.07 KCAL/MOL
REMARK 923 INTER-LIGAND FREE ENERGY PREDICTED BY IDOCK:   -7.19 KCAL/MOL
REMARK 924 INTRA-LIGAND FREE ENERGY PREDICTED BY IDOCK:    0.13 KCAL/MOL
REMARK 927      BINDING AFFINITY PREDICTED BY RF-SCORE:    0.00 PKD
ROOT
HETATM    1  O   UNL     1     -12.954  14.805  63.688  1.00  0.00    -0.405 OA 
HETATM    2  C   UNL     1     -12.102  15.478  64.310  1.00  0.00    -0.116 C  
HETATM    3  CA  UNL     1     -11.416  14.788  65.569  1.00  0.00    -0.329 C  
HETATM    4  OXT UNL     1     -11.703  16.663  64.087  1.00  0.00    -1.034 OA 
HETATM    5  C   UNL     1     -10.273  15.305  66.088  1.00  0.00    -0.320 C  
HETATM    6  C   UNL     1      -9.490  14.736  67.242  1.00  0.00    -0.214 C  
HETATM    7  CA  UNL     1     -12.033  11.748  66.950  1.00  0.00     0.180 C  
HETATM    8  S   UNL     1     -10.175  13.441  68.260  1.00  0.00    -0.252 SA 
HETATM    9  N   UNL     1     -11.891  13.621  66.096  1.00  0.00    -0.371 N  
HETATM   10  O   UNL     1     -12.873  12.060  64.574  1.00  0.00    -0.495 OA 
HETATM   11  C   UNL     1     -11.768  13.197  67.468  1.00  0.00    -0.366 C  
HETATM   12  C   UNL     1     -12.465  12.480  65.630  1.00  0.00    -0.066 C  
ENDROOT
BRANCH   5  13
HETATM   13  C   UNL     1      -9.561  16.508  65.497  1.00  0.00     0.146 C  
BRANCH  13  14
HETATM   14  N   UNL     1      -9.688  17.800  66.239  1.00  0.00    -0.430 NA 
HETATM   15  C   UNL     1     -10.274  19.052  68.184  1.00  0.00    -0.472 A  
HETATM   16  C   UNL     1     -10.364  20.211  67.425  1.00  0.00    -0.488 A  
HETATM   17  C   UNL     1      -9.919  17.851  67.571  1.00  0.00    -0.322 A  
HETATM   18  C   UNL     1      -9.680  18.942  65.509  1.00  0.00     0.742 A  
HETATM   19  C   UNL     1     -10.040  20.159  66.078  1.00  0.00    -0.497 A  
ENDBRANCH  13  14
ENDBRANCH   5  13
BRANCH   7  20
HETATM   20  N   UNL     1     -10.867  10.793  66.774  1.00  0.00    -0.230 N  
HETATM   21  H   UNL     1     -10.278  10.881  65.946  1.00  0.00     0.000 HD 
HETATM   22  O   UNL     1     -11.269   9.501  68.666  1.00  0.00    -0.053 OA 
HETATM   23  C   UNL     1     -10.576   9.807  67.701  1.00  0.00    -0.276 C  
BRANCH  23  24
HETATM   24  C   UNL     1      -9.288   9.030  67.547  1.00  0.00    -0.135 C  
BRANCH  24  25
HETATM   25  N   UNL     1      -8.828   8.125  68.365  1.00  0.00    -0.134 NA 
HETATM   26  H   UNL     1      -8.606   7.179  68.054  1.00  0.00     0.000 HD 
BRANCH  25  27
HETATM   27  O   UNL     1      -8.658   8.526  69.696  1.00  0.00    -0.127 OA 
HETATM   28  C   UNL     1      -7.204   8.627  71.589  1.00  0.00    -0.109 C  
HETATM   29  C   UNL     1      -6.480   9.528  69.371  1.00  0.00    -0.044 C  
HETATM   30  O   UNL     1      -7.040   6.396  68.687  1.00  0.00    -0.077 OA 
HETATM   31  O   UNL     1      -5.626   6.608  70.417  1.00  0.00    -0.021 OA 
HETATM   32  C   UNL     1      -7.266   8.409  70.068  1.00  0.00    -0.054 C  
HETATM   33  C   UNL     1      -6.566   7.055  69.771  1.00  0.00    -0.044 C  
ENDBRANCH  25  27
ENDBRANCH  24  25
BRANCH  24  34
HETATM   34  C   UNL     1      -8.392   9.377  66.438  1.00  0.00    -0.115 A  
HETATM   35  H2  UNL     1      -4.927  11.057  64.609  1.00  0.00     0.000 HD 
HETATM   36  C   UNL     1      -8.720   9.310  65.095  1.00  0.00    -0.185 A  
HETATM   37  S   UNL     1      -7.432   9.913  64.143  1.00  0.00    -0.140 SA 
HETATM   38  H1  UNL     1      -4.787  10.992  66.363  1.00  0.00     0.000 HD 
HETATM   39  N   UNL     1      -5.322  10.804  65.515  1.00  0.00    -0.132 NA 
HETATM   40  N   UNL     1      -7.112   9.876  66.687  1.00  0.00    -0.085 NA 
HETATM   41  C   UNL     1      -6.534  10.230  65.569  1.00  0.00    -0.121 A  
ENDBRANCH  24  34
ENDBRANCH  23  24
ENDBRANCH   7  20
TORSDOF 7
ENDMDL
MODEL      169
REMARK 921   NORMALIZED FREE ENERGY PREDICTED BY IDOCK:   -3.87 KCAL/MOL
REMARK 922        TOTAL FREE ENERGY PREDICTED BY IDOCK:   -6.99 KCAL/MOL
REMARK 923 INTER-LIGAND FREE ENERGY PREDICTED BY IDOCK:   -7.00 KCAL/MOL
REMARK 924 INTRA-LIGAND FREE ENERGY PREDICTED BY IDOCK:    0.00 KCAL/MOL
REMARK 927      BINDING AFFINITY PREDICTED BY RF-SCORE:    0.00 PKD
ROOT
HETATM    1  O   UNL     1     -10.559  11.329  63.614  1.00  0.00    -0.362 OA 
HETATM    2  C   UNL     1     -10.944  12.296  64.309  1.00  0.00    -0.343 C  
HETATM    3  CA  UNL     1     -11.039  12.063  65.881  1.00  0.00    -0.324 C  
HETATM    4  OXT UNL     1     -11.289  13.460  63.936  1.00  0.00    -0.364 OA 
HETATM    5  C   UNL     1     -11.125  13.126  66.720  1.00  0.00    -0.314 C  
HETATM    6  C   UNL     1     -11.174  13.062  68.224  1.00  0.00    -0.275 C  
HETATM    7  CA  UNL     1     -10.486   9.229  67.666  1.00  0.00    -0.264 C  
HETATM    8  S   UNL     1     -11.424  11.508  69.065  1.00  0.00    -0.322 SA 
HETATM    9  N   UNL     1     -10.940  10.817  66.429  1.00  0.00    -0.109 N  
HETATM   10  O   UNL     1      -9.514   9.249  65.320  1.00  0.00    -0.245 OA 
HETATM   11  C   UNL     1     -11.536  10.386  67.669  1.00  0.00     0.105 C  
HETATM   12  C   UNL     1     -10.252   9.671  66.177  1.00  0.00    -0.205 C  
ENDROOT
BRANCH   5  13
HETATM   13  C   UNL     1     -11.088  14.568  66.245  1.00  0.00    -0.332 C  
BRANCH  13  14
HETATM   14  N   UNL     1     -10.559  15.583  67.207  1.00  0.00    -0.294 NA 
HETATM   15  C   UNL     1     -10.785  16.945  69.154  1.00  0.00    -0.298 A  
HETATM   16  C   UNL     1      -9.781  17.786  68.695  1.00  0.00    -0.346 A  
HETATM   17  C   UNL     1     -11.154  15.833  68.396  1.00  0.00    -0.341 A  
HETATM   18  C   UNL     1      -9.514  16.343  66.799  1.00  0.00    -0.247 A  
HETATM   19  C   UNL     1      -9.122  17.468  67.517  1.00  0.00    -0.234 A  
ENDBRANCH  13  14
ENDBRANCH   5  13
BRANCH   7  20
HETATM   20  N   UNL     1      -9.253   9.338  68.544  1.00  0.00    -0.135 N  
HETATM   21  H   UNL     1      -8.397   9.724  68.146  1.00  0.00     0.000 HD 
HETATM   22  O   UNL     1     -10.160   8.332  70.435  1.00  0.00    -0.187 OA 
HETATM   23  C   UNL     1      -9.252   8.931  69.868  1.00  0.00    -0.166 C  
BRANCH  23  24
HETATM   24  C   UNL     1      -8.047   9.255  70.721  1.00  0.00    -0.156 C  
BRANCH  24  25
HETATM   25  N   UNL     1      -7.258  10.284  70.586  1.00  0.00    -0.438 NA 
HETATM   26  H   UNL     1      -7.356  11.118  71.165  1.00  0.00     0.000 HD 
BRANCH  25  27
HETATM   27  O   UNL     1      -6.270  10.179  69.600  1.00  0.00    -0.044 OA 
HETATM   28  C   UNL     1      -5.213  11.179  67.705  1.00  0.00    -0.041 C  
HETATM   29  C   UNL     1      -5.426  12.431  69.860  1.00  0.00    -0.101 C  
HETATM   30  O   UNL     1      -8.535  11.849  69.097  1.00  0.00     0.177 OA 
HETATM   31  O   UNL     1      -7.460  12.853  67.404  1.00  0.00    -0.148 OA 
HETATM   32  C   UNL     1      -6.124  11.444  68.915  1.00  0.00    -0.050 C  
HETATM   33  C   UNL     1      -7.420  12.109  68.375  1.00  0.00    -0.114 C  
ENDBRANCH  25  27
ENDBRANCH  24  25
BRANCH  24  34
HETATM   34  C   UNL     1      -7.632   8.284  71.740  1.00  0.00    -0.099 A  
HETATM   35  H2  UNL     1      -5.738   4.767  73.228  1.00  0.00     0.000 HD 
HETATM   36  C   UNL     1      -8.131   8.218  73.029  1.00  0.00    -0.149 A  
HETATM   37  S   UNL     1      -7.466   6.871  73.850  1.00  0.00    -0.091 SA 
HETATM   38  H1  UNL     1      -5.267   5.125  71.569  1.00  0.00     0.000 HD 
HETATM   39  N   UNL     1      -5.798   5.368  72.405  1.00  0.00    -0.025 NA 
HETATM   40  N   UNL     1      -6.708   7.283  71.434  1.00  0.00    -0.050 NA 
HETATM   41  C   UNL     1      -6.573   6.462  72.444  1.00  0.00    -0.060 A  
ENDBRANCH  24  34
ENDBRANCH  23  24
ENDBRANCH   7  20
TORSDOF 7
ENDMDL
MODEL      170
REMARK 921   NORMALIZED FREE ENERGY PREDICTED BY IDOCK:   -3.87 KCAL/MOL
REMARK 922        TOTAL FREE ENERGY PREDICTED BY IDOCK:   -6.99 KCAL/MOL
REMARK 923 INTER-LIGAND FREE ENERGY PREDICTED BY IDOCK:   -6.18 KCAL/MOL
REMARK 924 INTRA-LIGAND FREE ENERGY PREDICTED BY IDOCK:   -0.81 KCAL/MOL
REMARK 927      BINDING AFFINITY PREDICTED BY RF-SCORE:    0.00 PKD
ROOT
HETATM    1  O   UNL     1      -7.000   6.962  72.665  1.00  0.00    -0.069 OA 
HETATM    2  C   UNL     1      -7.680   6.008  72.226  1.00  0.00    -0.101 C  
HETATM    3  CA  UNL     1      -9.011   6.375  71.433  1.00  0.00    -0.138 C  
HETATM    4  OXT UNL     1      -7.467   4.760  72.331  1.00  0.00    -0.080 OA 
HETATM    5  C   UNL     1      -9.618   5.442  70.656  1.00  0.00    -0.228 C  
HETATM    6  C   UNL     1     -10.849   5.657  69.816  1.00  0.00    -0.300 C  
HETATM    7  CA  UNL     1     -10.400   9.421  70.868  1.00  0.00    -0.310 C  
HETATM    8  S   UNL     1     -11.831   7.135  69.997  1.00  0.00     0.105 SA 
HETATM    9  N   UNL     1      -9.520   7.642  71.432  1.00  0.00    -0.148 N  
HETATM   10  O   UNL     1      -7.952   9.445  71.543  1.00  0.00    -0.298 OA 
HETATM   11  C   UNL     1     -10.906   7.999  71.270  1.00  0.00    -0.232 C  
HETATM   12  C   UNL     1      -9.030   8.911  71.441  1.00  0.00    -0.229 C  
ENDROOT
BRANCH   5  13
HETATM   13  C   UNL     1      -9.065   4.042  70.452  1.00  0.00    -0.114 C  
BRANCH  13  14
HETATM   14  N   UNL     1      -8.469   3.740  69.114  1.00  0.00    -0.071 NA 
HETATM   15  C   UNL     1      -7.223   4.378  67.181  1.00  0.00    -0.069 A  
HETATM   16  C   UNL     1      -7.785   3.333  66.460  1.00  0.00    -0.077 A  
HETATM   17  C   UNL     1      -7.570   4.559  68.520  1.00  0.00    -0.064 A  
HETATM   18  C   UNL     1      -8.948   2.663  68.447  1.00  0.00    -0.143 A  
HETATM   19  C   UNL     1      -8.638   2.452  67.108  1.00  0.00    -0.122 A  
ENDBRANCH  13  14
ENDBRANCH   5  13
BRANCH   7  20
HETATM   20  N   UNL     1     -10.350   9.808  69.401  1.00  0.00    -0.203 N  
HETATM   21  H   UNL     1     -11.061  10.441  69.034  1.00  0.00     0.000 HD 
HETATM   22  O   UNL     1      -8.542   8.468  68.813  1.00  0.00    -0.129 OA 
HETATM   23  C   UNL     1      -9.372   9.331  68.545  1.00  0.00    -0.142 C  
BRANCH  23  24
HETATM   24  C   UNL     1      -9.281   9.919  67.155  1.00  0.00    -0.138 C  
BRANCH  24  25
HETATM   25  N   UNL     1      -8.786   9.335  66.100  1.00  0.00    -0.143 NA 
HETATM   26  H   UNL     1      -7.929   8.783  66.141  1.00  0.00     0.000 HD 
BRANCH  25  27
HETATM   27  O   UNL     1      -9.498   9.508  64.907  1.00  0.00    -0.259 OA 
HETATM   28  C   UNL     1      -9.400   9.800  62.538  1.00  0.00    -0.198 C  
HETATM   29  C   UNL     1      -8.250   7.871  63.638  1.00  0.00    -0.008 C  
HETATM   30  O   UNL     1      -6.792  10.423  65.035  1.00  0.00    -0.126 OA 
HETATM   31  O   UNL     1      -6.699  10.561  62.797  1.00  0.00    -0.138 OA 
HETATM   32  C   UNL     1      -8.607   9.357  63.779  1.00  0.00    -0.211 C  
HETATM   33  C   UNL     1      -7.291  10.181  63.799  1.00  0.00    -0.113 C  
ENDBRANCH  25  27
ENDBRANCH  24  25
BRANCH  24  34
HETATM   34  C   UNL     1      -9.684  11.316  66.960  1.00  0.00    -0.186 A  
HETATM   35  H2  UNL     1     -12.314  14.502  65.910  1.00  0.00     0.000 HD 
HETATM   36  C   UNL     1      -8.824  12.401  66.947  1.00  0.00    -0.205 A  
HETATM   37  S   UNL     1      -9.685  13.832  66.574  1.00  0.00    -0.294 SA 
HETATM   38  H1  UNL     1     -13.153  12.958  66.025  1.00  0.00     0.000 HD 
HETATM   39  N   UNL     1     -12.292  13.500  66.100  1.00  0.00    -0.424 NA 
HETATM   40  N   UNL     1     -11.017  11.643  66.705  1.00  0.00    -0.287 NA 
HETATM   41  C   UNL     1     -11.133  12.920  66.446  1.00  0.00    -0.285 A  
ENDBRANCH  24  34
ENDBRANCH  23  24
ENDBRANCH   7  20
TORSDOF 7
ENDMDL
MODEL      171
REMARK 921   NORMALIZED FREE ENERGY PREDICTED BY IDOCK:   -3.86 KCAL/MOL
REMARK 922        TOTAL FREE ENERGY PREDICTED BY IDOCK:   -6.98 KCAL/MOL
REMARK 923 INTER-LIGAND FREE ENERGY PREDICTED BY IDOCK:   -5.80 KCAL/MOL
REMARK 924 INTRA-LIGAND FREE ENERGY PREDICTED BY IDOCK:   -1.18 KCAL/MOL
REMARK 927      BINDING AFFINITY PREDICTED BY RF-SCORE:    0.00 PKD
ROOT
HETATM    1  O   UNL     1     -11.711  17.532  67.775  1.00  0.00     0.663 OA 
HETATM    2  C   UNL     1     -10.568  17.872  67.398  1.00  0.00    -0.360 C  
HETATM    3  CA  UNL     1      -9.383  16.844  67.668  1.00  0.00    -0.233 C  
HETATM    4  OXT UNL     1     -10.201  18.947  66.829  1.00  0.00    -0.344 OA 
HETATM    5  C   UNL     1      -8.203  16.981  67.013  1.00  0.00    -0.232 C  
HETATM    6  C   UNL     1      -7.015  16.062  67.131  1.00  0.00    -0.207 C  
HETATM    7  CA  UNL     1      -9.462  13.859  69.283  1.00  0.00     0.445 C  
HETATM    8  S   UNL     1      -6.943  14.822  68.411  1.00  0.00    -0.125 SA 
HETATM    9  N   UNL     1      -9.548  15.756  68.476  1.00  0.00    -0.199 N  
HETATM   10  O   UNL     1     -11.714  14.742  68.511  1.00  0.00    -0.306 OA 
HETATM   11  C   UNL     1      -8.514  15.098  69.235  1.00  0.00    -0.209 C  
HETATM   12  C   UNL     1     -10.543  14.876  68.770  1.00  0.00    -0.247 C  
ENDROOT
BRANCH   5  13
HETATM   13  C   UNL     1      -7.948  18.058  65.973  1.00  0.00    -0.121 C  
BRANCH  13  14
HETATM   14  N   UNL     1      -7.064  19.194  66.380  1.00  0.00    -0.215 NA 
HETATM   15  C   UNL     1      -5.148  20.580  66.056  1.00  0.00    -0.199 A  
HETATM   16  C   UNL     1      -5.190  20.967  67.388  1.00  0.00    -0.279 A  
HETATM   17  C   UNL     1      -6.109  19.696  65.563  1.00  0.00    -0.208 A  
HETATM   18  C   UNL     1      -7.169  19.640  67.654  1.00  0.00    -0.244 A  
HETATM   19  C   UNL     1      -6.226  20.511  68.189  1.00  0.00    -0.336 A  
ENDBRANCH  13  14
ENDBRANCH   5  13
BRANCH   7  20
HETATM   20  N   UNL     1      -9.215  12.693  68.343  1.00  0.00    -0.323 N  
HETATM   21  H   UNL     1      -8.594  12.827  67.544  1.00  0.00     0.000 HD 
HETATM   22  O   UNL     1     -10.666  11.190  69.365  1.00  0.00    -0.224 OA 
HETATM   23  C   UNL     1      -9.803  11.455  68.534  1.00  0.00    -0.198 C  
BRANCH  23  24
HETATM   24  C   UNL     1      -9.352  10.301  67.667  1.00  0.00    -0.144 C  
BRANCH  24  25
HETATM   25  N   UNL     1      -8.797   9.195  68.080  1.00  0.00    -0.129 NA 
HETATM   26  H   UNL     1      -9.337   8.340  68.218  1.00  0.00     0.000 HD 
BRANCH  25  27
HETATM   27  O   UNL     1      -7.420   9.249  68.324  1.00  0.00    -0.078 OA 
HETATM   28  C   UNL     1      -5.605   8.593  69.732  1.00  0.00    -0.029 C  
HETATM   29  C   UNL     1      -7.157   6.886  68.767  1.00  0.00    -0.089 C  
HETATM   30  O   UNL     1      -9.181   8.739  70.517  1.00  0.00    -0.162 OA 
HETATM   31  O   UNL     1      -7.466   8.008  71.766  1.00  0.00    -0.069 OA 
HETATM   32  C   UNL     1      -7.067   8.301  69.356  1.00  0.00    -0.055 C  
HETATM   33  C   UNL     1      -7.895   8.343  70.669  1.00  0.00    -0.092 C  
ENDBRANCH  25  27
ENDBRANCH  24  25
BRANCH  24  34
HETATM   34  C   UNL     1      -9.433  10.449  66.210  1.00  0.00    -0.171 A  
HETATM   35  H2  UNL     1      -7.936  10.600  62.221  1.00  0.00     0.000 HD 
HETATM   36  C   UNL     1     -10.525  10.939  65.516  1.00  0.00    -0.219 A  
HETATM   37  S   UNL     1     -10.160  11.055  63.848  1.00  0.00    -0.383 SA 
HETATM   38  H1  UNL     1      -6.741   9.979  63.356  1.00  0.00     0.000 HD 
HETATM   39  N   UNL     1      -7.680  10.335  63.173  1.00  0.00    -0.151 NA 
HETATM   40  N   UNL     1      -8.335  10.144  65.402  1.00  0.00    -0.150 NA 
HETATM   41  C   UNL     1      -8.582  10.459  64.157  1.00  0.00    -0.181 A  
ENDBRANCH  24  34
ENDBRANCH  23  24
ENDBRANCH   7  20
TORSDOF 7
ENDMDL
MODEL      172
REMARK 921   NORMALIZED FREE ENERGY PREDICTED BY IDOCK:   -3.84 KCAL/MOL
REMARK 922        TOTAL FREE ENERGY PREDICTED BY IDOCK:   -6.96 KCAL/MOL
REMARK 923 INTER-LIGAND FREE ENERGY PREDICTED BY IDOCK:   -6.89 KCAL/MOL
REMARK 924 INTRA-LIGAND FREE ENERGY PREDICTED BY IDOCK:   -0.07 KCAL/MOL
REMARK 927      BINDING AFFINITY PREDICTED BY RF-SCORE:    0.00 PKD
ROOT
HETATM    1  O   UNL     1      -6.437  12.757  69.252  1.00  0.00    -0.102 OA 
HETATM    2  C   UNL     1      -7.510  13.052  68.680  1.00  0.00    -0.093 C  
HETATM    3  CA  UNL     1      -8.152  11.944  67.734  1.00  0.00    -0.146 C  
HETATM    4  OXT UNL     1      -8.174  14.133  68.736  1.00  0.00    -0.137 OA 
HETATM    5  C   UNL     1      -9.449  12.050  67.348  1.00  0.00    -0.177 C  
HETATM    6  C   UNL     1     -10.200  11.060  66.497  1.00  0.00    -0.234 C  
HETATM    7  CA  UNL     1      -6.946   8.885  66.891  1.00  0.00    -0.078 C  
HETATM    8  S   UNL     1      -9.341   9.749  65.645  1.00  0.00    -0.247 SA 
HETATM    9  N   UNL     1      -7.461  10.825  67.369  1.00  0.00    -0.096 N  
HETATM   10  O   UNL     1      -5.910   9.935  68.957  1.00  0.00    -0.035 OA 
HETATM   11  C   UNL     1      -7.650  10.070  66.156  1.00  0.00    -0.109 C  
HETATM   12  C   UNL     1      -6.550   9.988  67.935  1.00  0.00    -0.063 C  
ENDROOT
BRANCH   5  13
HETATM   13  C   UNL     1     -10.368  13.166  67.813  1.00  0.00    -0.230 C  
BRANCH  13  14
HETATM   14  N   UNL     1     -11.087  13.935  66.751  1.00  0.00    -0.299 NA 
HETATM   15  C   UNL     1     -12.979  14.299  65.343  1.00  0.00    -0.230 A  
HETATM   16  C   UNL     1     -12.203  15.059  64.479  1.00  0.00    -0.344 A  
HETATM   17  C   UNL     1     -12.402  13.752  66.489  1.00  0.00    -0.386 A  
HETATM   18  C   UNL     1     -10.347  14.753  65.965  1.00  0.00    -0.305 A  
HETATM   19  C   UNL     1     -10.880  15.308  64.806  1.00  0.00    -0.379 A  
ENDBRANCH  13  14
ENDBRANCH   5  13
BRANCH   7  20
HETATM   20  N   UNL     1      -7.786   7.760  67.468  1.00  0.00    -0.120 N  
HETATM   21  H   UNL     1      -7.826   6.870  66.972  1.00  0.00     0.000 HD 
HETATM   22  O   UNL     1      -8.652   8.947  69.271  1.00  0.00    -0.128 OA 
HETATM   23  C   UNL     1      -8.500   7.903  68.645  1.00  0.00    -0.128 C  
BRANCH  23  24
HETATM   24  C   UNL     1      -9.149   6.677  69.248  1.00  0.00    -0.138 C  
BRANCH  24  25
HETATM   25  N   UNL     1      -9.189   5.485  68.721  1.00  0.00    -0.120 NA 
HETATM   26  H   UNL     1      -9.795   4.753  69.089  1.00  0.00     0.000 HD 
BRANCH  25  27
HETATM   27  O   UNL     1      -8.352   5.270  67.620  1.00  0.00    -0.106 OA 
HETATM   28  C   UNL     1      -7.757   3.837  65.803  1.00  0.00    -0.089 C  
HETATM   29  C   UNL     1     -10.114   4.620  66.096  1.00  0.00    -0.291 C  
HETATM   30  O   UNL     1      -9.577   3.012  68.873  1.00  0.00    -0.147 OA 
HETATM   31  O   UNL     1      -9.113   1.730  67.092  1.00  0.00    -0.128 OA 
HETATM   32  C   UNL     1      -8.849   4.163  66.835  1.00  0.00    -0.119 C  
HETATM   33  C   UNL     1      -9.169   2.845  67.593  1.00  0.00    -0.201 C  
ENDBRANCH  25  27
ENDBRANCH  24  25
BRANCH  24  34
HETATM   34  C   UNL     1      -9.906   6.831  70.495  1.00  0.00    -0.176 A  
HETATM   35  H2  UNL     1     -12.650   8.679  73.184  1.00  0.00     0.000 HD 
HETATM   36  C   UNL     1      -9.660   6.141  71.669  1.00  0.00    -0.151 A  
HETATM   37  S   UNL     1     -10.695   6.703  72.911  1.00  0.00    -0.270 SA 
HETATM   38  H1  UNL     1     -12.751   9.356  71.561  1.00  0.00     0.000 HD 
HETATM   39  N   UNL     1     -12.337   8.689  72.212  1.00  0.00    -0.379 NA 
HETATM   40  N   UNL     1     -10.934   7.772  70.592  1.00  0.00    -0.246 NA 
HETATM   41  C   UNL     1     -11.391   7.825  71.816  1.00  0.00    -0.261 A  
ENDBRANCH  24  34
ENDBRANCH  23  24
ENDBRANCH   7  20
TORSDOF 7
ENDMDL
MODEL      173
REMARK 921   NORMALIZED FREE ENERGY PREDICTED BY IDOCK:   -3.84 KCAL/MOL
REMARK 922        TOTAL FREE ENERGY PREDICTED BY IDOCK:   -6.95 KCAL/MOL
REMARK 923 INTER-LIGAND FREE ENERGY PREDICTED BY IDOCK:   -5.90 KCAL/MOL
REMARK 924 INTRA-LIGAND FREE ENERGY PREDICTED BY IDOCK:   -1.05 KCAL/MOL
REMARK 927      BINDING AFFINITY PREDICTED BY RF-SCORE:    0.00 PKD
ROOT
HETATM    1  O   UNL     1     -11.492   6.141  68.625  1.00  0.00    -0.223 OA 
HETATM    2  C   UNL     1     -10.600   6.044  69.497  1.00  0.00    -0.296 C  
HETATM    3  CA  UNL     1      -9.354   7.026  69.367  1.00  0.00    -0.146 C  
HETATM    4  OXT UNL     1     -10.535   5.253  70.489  1.00  0.00    -0.264 OA 
HETATM    5  C   UNL     1      -8.525   7.215  70.425  1.00  0.00    -0.140 C  
HETATM    6  C   UNL     1      -7.340   8.144  70.464  1.00  0.00    -0.056 C  
HETATM    7  CA  UNL     1      -8.656   9.294  66.940  1.00  0.00    -0.127 C  
HETATM    8  S   UNL     1      -6.719   8.895  68.969  1.00  0.00    -0.052 SA 
HETATM    9  N   UNL     1      -9.140   7.769  68.242  1.00  0.00    -0.131 N  
HETATM   10  O   UNL     1     -11.072   8.522  67.051  1.00  0.00     0.060 OA 
HETATM   11  C   UNL     1      -7.862   8.227  67.757  1.00  0.00    -0.114 C  
HETATM   12  C   UNL     1      -9.900   8.412  67.315  1.00  0.00    -0.203 C  
ENDROOT
BRANCH   5  13
HETATM   13  C   UNL     1      -8.744   6.567  71.780  1.00  0.00    -0.131 C  
BRANCH  13  14
HETATM   14  N   UNL     1      -7.642   5.701  72.301  1.00  0.00    -0.099 NA 
HETATM   15  C   UNL     1      -6.223   3.788  72.139  1.00  0.00    -0.014 A  
HETATM   16  C   UNL     1      -5.949   3.863  73.499  1.00  0.00    -0.008 A  
HETATM   17  C   UNL     1      -7.067   4.731  71.552  1.00  0.00    -0.056 A  
HETATM   18  C   UNL     1      -7.305   5.838  73.606  1.00  0.00    -0.086 A  
HETATM   19  C   UNL     1      -6.477   4.913  74.234  1.00  0.00    -0.067 A  
ENDBRANCH  13  14
ENDBRANCH   5  13
BRANCH   7  20
HETATM   20  N   UNL     1      -8.733  10.721  67.451  1.00  0.00    -0.126 N  
HETATM   21  H   UNL     1      -9.465  10.967  68.118  1.00  0.00     0.000 HD 
HETATM   22  O   UNL     1      -7.003  11.582  66.155  1.00  0.00     0.055 OA 
HETATM   23  C   UNL     1      -7.842  11.700  67.044  1.00  0.00    -0.164 C  
BRANCH  23  24
HETATM   24  C   UNL     1      -7.869  13.037  67.747  1.00  0.00    -0.157 C  
BRANCH  24  25
HETATM   25  N   UNL     1      -8.510  14.104  67.357  1.00  0.00    -0.192 NA 
HETATM   26  H   UNL     1      -9.529  14.145  67.342  1.00  0.00     0.000 HD 
BRANCH  25  27
HETATM   27  O   UNL     1      -7.718  15.188  66.959  1.00  0.00    -0.205 OA 
HETATM   28  C   UNL     1      -7.656  17.433  66.145  1.00  0.00    -0.321 C  
HETATM   29  C   UNL     1      -8.944  16.856  68.210  1.00  0.00    -0.235 C  
HETATM   30  O   UNL     1     -10.390  15.002  65.961  1.00  0.00    -0.281 OA 
HETATM   31  O   UNL     1     -10.338  17.153  65.326  1.00  0.00    -0.629 OA 
HETATM   32  C   UNL     1      -8.541  16.367  66.812  1.00  0.00    -0.235 C  
HETATM   33  C   UNL     1      -9.824  16.231  65.947  1.00  0.00    -0.334 C  
ENDBRANCH  25  27
ENDBRANCH  24  25
BRANCH  24  34
HETATM   34  C   UNL     1      -7.019  13.221  68.929  1.00  0.00    -0.096 A  
HETATM   35  H2  UNL     1      -4.682  11.991  72.276  1.00  0.00     0.000 HD 
HETATM   36  C   UNL     1      -6.820  14.420  69.592  1.00  0.00    -0.118 A  
HETATM   37  S   UNL     1      -5.855  14.172  70.983  1.00  0.00    -0.188 SA 
HETATM   38  H1  UNL     1      -5.083  10.645  71.214  1.00  0.00     0.000 HD 
HETATM   39  N   UNL     1      -5.131  11.640  71.429  1.00  0.00    -0.249 NA 
HETATM   40  N   UNL     1      -6.377  12.131  69.520  1.00  0.00    -0.120 NA 
HETATM   41  C   UNL     1      -5.774  12.497  70.621  1.00  0.00    -0.146 A  
ENDBRANCH  24  34
ENDBRANCH  23  24
ENDBRANCH   7  20
TORSDOF 7
ENDMDL
MODEL      174
REMARK 921   NORMALIZED FREE ENERGY PREDICTED BY IDOCK:   -3.83 KCAL/MOL
REMARK 922        TOTAL FREE ENERGY PREDICTED BY IDOCK:   -6.94 KCAL/MOL
REMARK 923 INTER-LIGAND FREE ENERGY PREDICTED BY IDOCK:   -6.97 KCAL/MOL
REMARK 924 INTRA-LIGAND FREE ENERGY PREDICTED BY IDOCK:    0.03 KCAL/MOL
REMARK 927      BINDING AFFINITY PREDICTED BY RF-SCORE:    0.00 PKD
ROOT
HETATM    1  O   UNL     1      -8.984  10.306  63.463  1.00  0.00    -0.196 OA 
HETATM    2  C   UNL     1      -8.595   9.216  63.938  1.00  0.00    -0.170 C  
HETATM    3  CA  UNL     1      -8.192   9.203  65.478  1.00  0.00    -0.123 C  
HETATM    4  OXT UNL     1      -8.461   8.094  63.358  1.00  0.00    -0.058 OA 
HETATM    5  C   UNL     1      -8.080   8.024  66.141  1.00  0.00    -0.111 C  
HETATM    6  C   UNL     1      -7.754   7.860  67.602  1.00  0.00    -0.117 C  
HETATM    7  CA  UNL     1      -8.081  11.779  67.687  1.00  0.00    -0.144 C  
HETATM    8  S   UNL     1      -7.176   9.243  68.570  1.00  0.00    -0.072 SA 
HETATM    9  N   UNL     1      -8.045  10.358  66.191  1.00  0.00    -0.133 N  
HETATM   10  O   UNL     1      -9.455  12.195  65.593  1.00  0.00    -0.209 OA 
HETATM   11  C   UNL     1      -7.190  10.546  67.336  1.00  0.00    -0.092 C  
HETATM   12  C   UNL     1      -8.629  11.586  66.228  1.00  0.00    -0.133 C  
ENDROOT
BRANCH   5  13
HETATM   13  C   UNL     1      -8.370   6.679  65.500  1.00  0.00    -0.144 C  
BRANCH  13  14
HETATM   14  N   UNL     1      -7.263   5.673  65.511  1.00  0.00    -0.066 NA 
HETATM   15  C   UNL     1      -5.928   4.012  64.435  1.00  0.00    -0.018 A  
HETATM   16  C   UNL     1      -5.553   3.500  65.670  1.00  0.00    -0.018 A  
HETATM   17  C   UNL     1      -6.780   5.115  64.376  1.00  0.00    -0.047 A  
HETATM   18  C   UNL     1      -6.826   5.240  66.717  1.00  0.00    -0.063 A  
HETATM   19  C   UNL     1      -5.987   4.135  66.822  1.00  0.00    -0.024 A  
ENDBRANCH  13  14
ENDBRANCH   5  13
BRANCH   7  20
HETATM   20  N   UNL     1      -9.139  11.652  68.767  1.00  0.00    -0.374 N  
HETATM   21  H   UNL     1      -8.989  12.119  69.662  1.00  0.00     0.000 HD 
HETATM   22  O   UNL     1     -10.551  10.207  67.614  1.00  0.00    -0.226 OA 
HETATM   23  C   UNL     1     -10.301  10.924  68.579  1.00  0.00    -0.187 C  
BRANCH  23  24
HETATM   24  C   UNL     1     -11.385  11.011  69.629  1.00  0.00    -0.292 C  
BRANCH  24  25
HETATM   25  N   UNL     1     -11.986  10.007  70.204  1.00  0.00    -0.439 NA 
HETATM   26  H   UNL     1     -12.940   9.738  69.960  1.00  0.00     0.000 HD 
BRANCH  25  27
HETATM   27  O   UNL     1     -11.249   9.320  71.176  1.00  0.00    -0.284 OA 
HETATM   28  C   UNL     1     -11.284   7.790  73.011  1.00  0.00    -0.380 C  
HETATM   29  C   UNL     1     -12.304   7.174  70.812  1.00  0.00    -0.273 C  
HETATM   30  O   UNL     1     -14.026   9.805  71.651  1.00  0.00    -0.161 OA 
HETATM   31  O   UNL     1     -14.048   8.266  73.284  1.00  0.00     0.224 OA 
HETATM   32  C   UNL     1     -12.081   8.321  71.807  1.00  0.00    -0.319 C  
HETATM   33  C   UNL     1     -13.463   8.786  72.343  1.00  0.00    -0.401 C  
ENDBRANCH  25  27
ENDBRANCH  24  25
BRANCH  24  34
HETATM   34  C   UNL     1     -11.908  12.334  69.984  1.00  0.00    -0.296 A  
HETATM   35  H2  UNL     1     -12.362  16.560  69.653  1.00  0.00     0.000 HD 
HETATM   36  C   UNL     1     -12.590  12.638  71.149  1.00  0.00    -0.258 A  
HETATM   37  S   UNL     1     -12.920  14.316  71.219  1.00  0.00    -0.364 SA 
HETATM   38  H1  UNL     1     -11.524  15.871  68.266  1.00  0.00     0.000 HD 
HETATM   39  N   UNL     1     -11.992  15.745  69.163  1.00  0.00    -0.361 NA 
HETATM   40  N   UNL     1     -11.687  13.433  69.151  1.00  0.00    -0.306 NA 
HETATM   41  C   UNL     1     -12.132  14.528  69.711  1.00  0.00    -0.331 A  
ENDBRANCH  24  34
ENDBRANCH  23  24
ENDBRANCH   7  20
TORSDOF 7
ENDMDL
MODEL      175
REMARK 921   NORMALIZED FREE ENERGY PREDICTED BY IDOCK:   -3.81 KCAL/MOL
REMARK 922        TOTAL FREE ENERGY PREDICTED BY IDOCK:   -6.90 KCAL/MOL
REMARK 923 INTER-LIGAND FREE ENERGY PREDICTED BY IDOCK:   -6.72 KCAL/MOL
REMARK 924 INTRA-LIGAND FREE ENERGY PREDICTED BY IDOCK:   -0.19 KCAL/MOL
REMARK 927      BINDING AFFINITY PREDICTED BY RF-SCORE:    0.00 PKD
ROOT
HETATM    1  O   UNL     1      -5.363  11.983  66.792  1.00  0.00    -0.272 OA 
HETATM    2  C   UNL     1      -6.400  12.604  67.116  1.00  0.00     0.013 C  
HETATM    3  CA  UNL     1      -7.792  11.945  66.712  1.00  0.00    -0.070 C  
HETATM    4  OXT UNL     1      -6.509  13.714  67.724  1.00  0.00    -0.147 OA 
HETATM    5  C   UNL     1      -8.939  12.370  67.299  1.00  0.00    -0.190 C  
HETATM    6  C   UNL     1     -10.316  11.812  67.053  1.00  0.00    -0.214 C  
HETATM    7  CA  UNL     1      -8.389   9.117  64.931  1.00  0.00    -0.162 C  
HETATM    8  S   UNL     1     -10.619  10.690  65.699  1.00  0.00    -0.036 SA 
HETATM    9  N   UNL     1      -7.862  10.887  65.853  1.00  0.00    -0.130 N  
HETATM   10  O   UNL     1      -6.049   9.327  65.894  1.00  0.00    -0.054 OA 
HETATM   11  C   UNL     1      -8.973  10.564  64.993  1.00  0.00    -0.201 C  
HETATM   12  C   UNL     1      -7.119   9.783  65.570  1.00  0.00    -0.108 C  
ENDROOT
BRANCH   5  13
HETATM   13  C   UNL     1      -8.976  13.433  68.382  1.00  0.00    -0.136 C  
BRANCH  13  14
HETATM   14  N   UNL     1      -9.441  14.795  67.977  1.00  0.00    -0.200 NA 
HETATM   15  C   UNL     1      -9.925  16.437  66.313  1.00  0.00    -0.341 A  
HETATM   16  C   UNL     1      -9.840  17.443  67.266  1.00  0.00    -0.278 A  
HETATM   17  C   UNL     1      -9.734  15.109  66.693  1.00  0.00    -0.258 A  
HETATM   18  C   UNL     1      -9.451  15.760  68.928  1.00  0.00    -0.229 A  
HETATM   19  C   UNL     1      -9.625  17.098  68.591  1.00  0.00    -0.281 A  
ENDBRANCH  13  14
ENDBRANCH   5  13
BRANCH   7  20
HETATM   20  N   UNL     1      -9.010   8.025  65.783  1.00  0.00    -0.322 N  
HETATM   21  H   UNL     1      -9.580   7.311  65.331  1.00  0.00     0.000 HD 
HETATM   22  O   UNL     1      -8.281   8.823  67.844  1.00  0.00    -0.110 OA 
HETATM   23  C   UNL     1      -8.826   7.966  67.154  1.00  0.00    -0.132 C  
BRANCH  23  24
HETATM   24  C   UNL     1      -9.314   6.742  67.895  1.00  0.00    -0.113 C  
BRANCH  24  25
HETATM   25  N   UNL     1      -9.748   6.704  69.124  1.00  0.00    -0.145 NA 
HETATM   26  H   UNL     1      -9.423   6.003  69.789  1.00  0.00     0.000 HD 
BRANCH  25  27
HETATM   27  O   UNL     1     -10.686   7.681  69.477  1.00  0.00    -0.238 OA 
HETATM   28  C   UNL     1     -12.035   8.636  71.202  1.00  0.00    -0.320 C  
HETATM   29  C   UNL     1      -9.567   8.373  71.506  1.00  0.00    -0.273 C  
HETATM   30  O   UNL     1     -10.531   5.299  71.049  1.00  0.00    -0.230 OA 
HETATM   31  O   UNL     1     -11.692   6.275  72.702  1.00  0.00    -0.228 OA 
HETATM   32  C   UNL     1     -10.828   7.728  70.915  1.00  0.00    -0.237 C  
HETATM   33  C   UNL     1     -11.083   6.382  71.645  1.00  0.00    -0.267 C  
ENDBRANCH  25  27
ENDBRANCH  24  25
BRANCH  24  34
HETATM   34  C   UNL     1      -9.204   5.437  67.235  1.00  0.00    -0.111 A  
HETATM   35  H2  UNL     1      -9.356   2.697  63.972  1.00  0.00     0.000 HD 
HETATM   36  C   UNL     1      -9.112   4.218  67.884  1.00  0.00    -0.131 A  
HETATM   37  S   UNL     1      -9.120   2.941  66.744  1.00  0.00    -0.127 SA 
HETATM   38  H1  UNL     1      -9.435   4.373  63.437  1.00  0.00     0.000 HD 
HETATM   39  N   UNL     1      -9.356   3.693  64.193  1.00  0.00    -0.133 NA 
HETATM   40  N   UNL     1      -9.247   5.338  65.842  1.00  0.00    -0.158 NA 
HETATM   41  C   UNL     1      -9.253   4.084  65.473  1.00  0.00    -0.150 A  
ENDBRANCH  24  34
ENDBRANCH  23  24
ENDBRANCH   7  20
TORSDOF 7
ENDMDL
MODEL      176
REMARK 921   NORMALIZED FREE ENERGY PREDICTED BY IDOCK:   -3.76 KCAL/MOL
REMARK 922        TOTAL FREE ENERGY PREDICTED BY IDOCK:   -6.84 KCAL/MOL
REMARK 923 INTER-LIGAND FREE ENERGY PREDICTED BY IDOCK:   -6.51 KCAL/MOL
REMARK 924 INTRA-LIGAND FREE ENERGY PREDICTED BY IDOCK:   -0.34 KCAL/MOL
REMARK 927      BINDING AFFINITY PREDICTED BY RF-SCORE:    0.00 PKD
ROOT
HETATM    1  O   UNL     1      -9.138  15.695  69.640  1.00  0.00    -0.273 OA 
HETATM    2  C   UNL     1     -10.209  15.094  69.876  1.00  0.00    -0.160 C  
HETATM    3  CA  UNL     1     -10.691  14.027  68.798  1.00  0.00    -0.259 C  
HETATM    4  OXT UNL     1     -10.994  15.220  70.867  1.00  0.00    -0.312 OA 
HETATM    5  C   UNL     1     -11.641  13.115  69.123  1.00  0.00    -0.368 C  
HETATM    6  C   UNL     1     -12.160  12.021  68.226  1.00  0.00     0.005 C  
HETATM    7  CA  UNL     1      -9.298  13.222  65.808  1.00  0.00     0.174 C  
HETATM    8  S   UNL     1     -11.765  12.003  66.486  1.00  0.00    -0.146 SA 
HETATM    9  N   UNL     1     -10.106  13.936  67.568  1.00  0.00    -0.242 N  
HETATM   10  O   UNL     1      -7.771  14.436  67.433  1.00  0.00    -0.180 OA 
HETATM   11  C   UNL     1     -10.738  13.470  66.359  1.00  0.00    -0.287 C  
HETATM   12  C   UNL     1      -8.858  14.081  67.046  1.00  0.00    -0.219 C  
ENDROOT
BRANCH   5  13
HETATM   13  C   UNL     1     -12.259  13.013  70.506  1.00  0.00    -0.313 C  
BRANCH  13  14
HETATM   14  N   UNL     1     -12.344  11.648  71.110  1.00  0.00    -0.299 NA 
HETATM   15  C   UNL     1     -11.736   9.340  71.170  1.00  0.00    -0.394 A  
HETATM   16  C   UNL     1     -12.866   9.052  71.924  1.00  0.00    -0.451 A  
HETATM   17  C   UNL     1     -11.484  10.656  70.781  1.00  0.00    -0.214 A  
HETATM   18  C   UNL     1     -13.395  11.390  71.924  1.00  0.00    -0.304 A  
HETATM   19  C   UNL     1     -13.691  10.092  72.325  1.00  0.00    -0.197 A  
ENDBRANCH  13  14
ENDBRANCH   5  13
BRANCH   7  20
HETATM   20  N   UNL     1      -8.734  11.813  65.802  1.00  0.00    -0.402 N  
HETATM   21  H   UNL     1      -8.750  11.279  64.932  1.00  0.00     0.000 HD 
HETATM   22  O   UNL     1      -8.234  11.695  68.071  1.00  0.00    -0.131 OA 
HETATM   23  C   UNL     1      -8.198  11.228  66.936  1.00  0.00    -0.153 C  
BRANCH  23  24
HETATM   24  C   UNL     1      -7.484   9.903  66.796  1.00  0.00    -0.095 C  
BRANCH  24  25
HETATM   25  N   UNL     1      -7.452   8.944  67.679  1.00  0.00    -0.092 NA 
HETATM   26  H   UNL     1      -6.579   8.630  68.103  1.00  0.00     0.000 HD 
BRANCH  25  27
HETATM   27  O   UNL     1      -8.686   8.372  68.012  1.00  0.00    -0.137 OA 
HETATM   28  C   UNL     1      -9.860   6.771  69.342  1.00  0.00    -0.162 C  
HETATM   29  C   UNL     1      -8.360   8.465  70.407  1.00  0.00    -0.121 C  
HETATM   30  O   UNL     1      -6.304   6.857  68.464  1.00  0.00    -0.029 OA 
HETATM   31  O   UNL     1      -7.416   5.448  69.811  1.00  0.00    -0.063 OA 
HETATM   32  C   UNL     1      -8.541   7.547  69.191  1.00  0.00    -0.136 C  
HETATM   33  C   UNL     1      -7.393   6.501  69.186  1.00  0.00    -0.093 C  
ENDBRANCH  25  27
ENDBRANCH  24  25
BRANCH  24  34
HETATM   34  C   UNL     1      -6.650   9.682  65.610  1.00  0.00    -0.078 A  
HETATM   35  H2  UNL     1      -4.984  10.597  61.794  1.00  0.00     0.000 HD 
HETATM   36  C   UNL     1      -6.044   8.485  65.270  1.00  0.00    -0.049 A  
HETATM   37  S   UNL     1      -5.263   8.628  63.754  1.00  0.00    -0.057 SA 
HETATM   38  H1  UNL     1      -5.823  11.975  62.501  1.00  0.00     0.000 HD 
HETATM   39  N   UNL     1      -5.512  11.006  62.565  1.00  0.00    -0.161 NA 
HETATM   40  N   UNL     1      -6.457  10.702  64.676  1.00  0.00     0.036 NA 
HETATM   41  C   UNL     1      -5.785  10.258  63.645  1.00  0.00    -0.144 A  
ENDBRANCH  24  34
ENDBRANCH  23  24
ENDBRANCH   7  20
TORSDOF 7
ENDMDL
MODEL      177
REMARK 921   NORMALIZED FREE ENERGY PREDICTED BY IDOCK:   -3.70 KCAL/MOL
REMARK 922        TOTAL FREE ENERGY PREDICTED BY IDOCK:   -6.75 KCAL/MOL
REMARK 923 INTER-LIGAND FREE ENERGY PREDICTED BY IDOCK:   -6.13 KCAL/MOL
REMARK 924 INTRA-LIGAND FREE ENERGY PREDICTED BY IDOCK:   -0.62 KCAL/MOL
REMARK 927      BINDING AFFINITY PREDICTED BY RF-SCORE:    0.00 PKD
ROOT
HETATM    1  O   UNL     1      -6.909  11.954  69.114  1.00  0.00    -0.101 OA 
HETATM    2  C   UNL     1      -7.816  12.324  68.337  1.00  0.00    -0.151 C  
HETATM    3  CA  UNL     1      -7.969  11.522  66.971  1.00  0.00    -0.161 C  
HETATM    4  OXT UNL     1      -8.646  13.276  68.475  1.00  0.00    -0.152 OA 
HETATM    5  C   UNL     1      -9.106  11.638  66.239  1.00  0.00    -0.219 C  
HETATM    6  C   UNL     1      -9.410  10.908  64.957  1.00  0.00    -0.226 C  
HETATM    7  CA  UNL     1      -6.067   8.992  65.746  1.00  0.00    -0.052 C  
HETATM    8  S   UNL     1      -8.135  10.006  64.095  1.00  0.00    -0.157 SA 
HETATM    9  N   UNL     1      -7.021  10.634  66.550  1.00  0.00    -0.117 N  
HETATM   10  O   UNL     1      -5.840   9.420  68.238  1.00  0.00    -0.041 OA 
HETATM   11  C   UNL     1      -6.733  10.286  65.182  1.00  0.00    -0.120 C  
HETATM   12  C   UNL     1      -6.172   9.739  67.122  1.00  0.00    -0.064 C  
ENDROOT
BRANCH   5  13
HETATM   13  C   UNL     1     -10.296  12.473  66.678  1.00  0.00    -0.227 C  
BRANCH  13  14
HETATM   14  N   UNL     1     -10.685  13.613  65.791  1.00  0.00    -0.276 NA 
HETATM   15  C   UNL     1     -10.543  15.904  65.137  1.00  0.00    -0.421 A  
HETATM   16  C   UNL     1     -11.756  15.800  64.470  1.00  0.00    -0.191 A  
HETATM   17  C   UNL     1     -10.014  14.788  65.786  1.00  0.00    -0.347 A  
HETATM   18  C   UNL     1     -11.820  13.478  65.063  1.00  0.00    -0.353 A  
HETATM   19  C   UNL     1     -12.388  14.567  64.412  1.00  0.00    -0.437 A  
ENDBRANCH  13  14
ENDBRANCH   5  13
BRANCH   7  20
HETATM   20  N   UNL     1      -6.826   7.678  65.696  1.00  0.00    -0.049 N  
HETATM   21  H   UNL     1      -6.505   6.947  65.060  1.00  0.00     0.000 HD 
HETATM   22  O   UNL     1      -8.511   8.266  67.188  1.00  0.00    -0.121 OA 
HETATM   23  C   UNL     1      -7.939   7.439  66.483  1.00  0.00    -0.111 C  
BRANCH  23  24
HETATM   24  C   UNL     1      -8.514   6.041  66.514  1.00  0.00    -0.115 C  
BRANCH  24  25
HETATM   25  N   UNL     1      -9.176   5.500  67.498  1.00  0.00    -0.110 NA 
HETATM   26  H   UNL     1     -10.130   5.157  67.382  1.00  0.00     0.000 HD 
BRANCH  25  27
HETATM   27  O   UNL     1      -8.503   5.415  68.722  1.00  0.00    -0.096 OA 
HETATM   28  C   UNL     1      -8.676   5.266  71.100  1.00  0.00    -0.136 C  
HETATM   29  C   UNL     1      -9.863   3.630  69.626  1.00  0.00     0.013 C  
HETATM   30  O   UNL     1     -11.162   6.463  68.689  1.00  0.00    -0.329 OA 
HETATM   31  O   UNL     1     -11.333   6.187  70.910  1.00  0.00    -0.313 OA 
HETATM   32  C   UNL     1      -9.440   5.098  69.776  1.00  0.00    -0.150 C  
HETATM   33  C   UNL     1     -10.720   5.973  69.872  1.00  0.00    -0.325 C  
ENDBRANCH  25  27
ENDBRANCH  24  25
BRANCH  24  34
HETATM   34  C   UNL     1      -8.228   5.144  65.389  1.00  0.00    -0.124 A  
HETATM   35  H2  UNL     1      -5.809   3.256  62.430  1.00  0.00     0.000 HD 
HETATM   36  C   UNL     1      -9.180   4.535  64.591  1.00  0.00    -0.145 A  
HETATM   37  S   UNL     1      -8.422   3.668  63.325  1.00  0.00    -0.091 SA 
HETATM   38  H1  UNL     1      -4.845   4.117  63.626  1.00  0.00     0.000 HD 
HETATM   39  N   UNL     1      -5.757   3.822  63.277  1.00  0.00    -0.013 NA 
HETATM   40  N   UNL     1      -6.911   4.888  65.001  1.00  0.00    -0.060 NA 
HETATM   41  C   UNL     1      -6.889   4.164  63.911  1.00  0.00    -0.045 A  
ENDBRANCH  24  34
ENDBRANCH  23  24
ENDBRANCH   7  20
TORSDOF 7
ENDMDL
MODEL      178
REMARK 921   NORMALIZED FREE ENERGY PREDICTED BY IDOCK:   -3.68 KCAL/MOL
REMARK 922        TOTAL FREE ENERGY PREDICTED BY IDOCK:   -6.73 KCAL/MOL
REMARK 923 INTER-LIGAND FREE ENERGY PREDICTED BY IDOCK:   -6.71 KCAL/MOL
REMARK 924 INTRA-LIGAND FREE ENERGY PREDICTED BY IDOCK:   -0.02 KCAL/MOL
REMARK 927      BINDING AFFINITY PREDICTED BY RF-SCORE:    0.00 PKD
ROOT
HETATM    1  O   UNL     1      -7.333   7.803  63.990  1.00  0.00    -0.085 OA 
HETATM    2  C   UNL     1      -7.723   7.384  65.102  1.00  0.00    -0.112 C  
HETATM    3  CA  UNL     1      -7.448   8.316  66.362  1.00  0.00    -0.080 C  
HETATM    4  OXT UNL     1      -8.311   6.294  65.383  1.00  0.00    -0.144 OA 
HETATM    5  C   UNL     1      -8.113   8.101  67.525  1.00  0.00    -0.123 C  
HETATM    6  C   UNL     1      -7.991   8.926  68.779  1.00  0.00    -0.102 C  
HETATM    7  CA  UNL     1      -5.789  11.274  66.519  1.00  0.00    -0.146 C  
HETATM    8  S   UNL     1      -6.693  10.138  68.952  1.00  0.00    -0.055 SA 
HETATM    9  N   UNL     1      -6.623   9.401  66.285  1.00  0.00    -0.070 N  
HETATM   10  O   UNL     1      -6.557  10.575  64.202  1.00  0.00    -0.052 OA 
HETATM   11  C   UNL     1      -5.862   9.967  67.371  1.00  0.00    -0.053 C  
HETATM   12  C   UNL     1      -6.308  10.349  65.362  1.00  0.00    -0.122 C  
ENDROOT
BRANCH   5  13
HETATM   13  C   UNL     1      -9.170   7.023  67.691  1.00  0.00    -0.120 C  
BRANCH  13  14
HETATM   14  N   UNL     1      -8.768   5.791  68.436  1.00  0.00    -0.111 NA 
HETATM   15  C   UNL     1      -7.110   4.266  69.227  1.00  0.00    -0.050 A  
HETATM   16  C   UNL     1      -8.078   3.285  69.395  1.00  0.00    -0.061 A  
HETATM   17  C   UNL     1      -7.479   5.526  68.756  1.00  0.00    -0.079 A  
HETATM   18  C   UNL     1      -9.730   4.872  68.688  1.00  0.00    -0.160 A  
HETATM   19  C   UNL     1      -9.405   3.599  69.145  1.00  0.00    -0.244 A  
ENDBRANCH  13  14
ENDBRANCH   5  13
BRANCH   7  20
HETATM   20  N   UNL     1      -6.714  12.432  66.847  1.00  0.00    -0.361 N  
HETATM   21  H   UNL     1      -6.321  13.270  67.277  1.00  0.00     0.000 HD 
HETATM   22  O   UNL     1      -8.697  11.405  66.197  1.00  0.00    -0.181 OA 
HETATM   23  C   UNL     1      -8.072  12.388  66.583  1.00  0.00     0.104 C  
BRANCH  23  24
HETATM   24  C   UNL     1      -8.882  13.653  66.760  1.00  0.00    -0.133 C  
BRANCH  24  25
HETATM   25  N   UNL     1      -8.517  14.718  67.418  1.00  0.00    -0.188 NA 
HETATM   26  H   UNL     1      -7.536  14.978  67.523  1.00  0.00     0.000 HD 
BRANCH  25  27
HETATM   27  O   UNL     1      -9.550  15.485  67.970  1.00  0.00    -0.201 OA 
HETATM   28  C   UNL     1     -10.270  17.636  68.719  1.00  0.00    -0.373 C  
HETATM   29  C   UNL     1      -9.345  17.327  66.417  1.00  0.00    -0.281 C  
HETATM   30  O   UNL     1      -6.855  16.383  68.287  1.00  0.00    -0.127 OA 
HETATM   31  O   UNL     1      -7.570  18.430  68.862  1.00  0.00    -0.287 OA 
HETATM   32  C   UNL     1      -9.219  16.889  67.882  1.00  0.00    -0.234 C  
HETATM   33  C   UNL     1      -7.823  17.321  68.409  1.00  0.00    -0.254 C  
ENDBRANCH  25  27
ENDBRANCH  24  25
BRANCH  24  34
HETATM   34  C   UNL     1     -10.255  13.679  66.247  1.00  0.00    -0.296 A  
HETATM   35  H2  UNL     1     -13.440  14.931  63.703  1.00  0.00     0.000 HD 
HETATM   36  C   UNL     1     -11.357  13.134  66.883  1.00  0.00    -0.318 A  
HETATM   37  S   UNL     1     -12.781  13.487  66.002  1.00  0.00    -0.099 SA 
HETATM   38  H1  UNL     1     -11.869  15.475  63.120  1.00  0.00     0.000 HD 
HETATM   39  N   UNL     1     -12.425  14.966  63.808  1.00  0.00    -0.698 NA 
HETATM   40  N   UNL     1     -10.556  14.341  65.054  1.00  0.00    -0.401 NA 
HETATM   41  C   UNL     1     -11.847  14.343  64.846  1.00  0.00    -0.417 A  
ENDBRANCH  24  34
ENDBRANCH  23  24
ENDBRANCH   7  20
TORSDOF 7
ENDMDL
MODEL      179
REMARK 921   NORMALIZED FREE ENERGY PREDICTED BY IDOCK:   -3.61 KCAL/MOL
REMARK 922        TOTAL FREE ENERGY PREDICTED BY IDOCK:   -6.63 KCAL/MOL
REMARK 923 INTER-LIGAND FREE ENERGY PREDICTED BY IDOCK:   -6.29 KCAL/MOL
REMARK 924 INTRA-LIGAND FREE ENERGY PREDICTED BY IDOCK:   -0.34 KCAL/MOL
REMARK 927      BINDING AFFINITY PREDICTED BY RF-SCORE:    0.00 PKD
ROOT
HETATM    1  O   UNL     1      -5.745  10.269  64.878  1.00  0.00    -0.105 OA 
HETATM    2  C   UNL     1      -5.921  11.049  65.840  1.00  0.00    -0.080 C  
HETATM    3  CA  UNL     1      -7.321  10.962  66.593  1.00  0.00    -0.139 C  
HETATM    4  OXT UNL     1      -5.134  11.928  66.310  1.00  0.00    -0.338 OA 
HETATM    5  C   UNL     1      -7.468  11.522  67.820  1.00  0.00    -0.101 C  
HETATM    6  C   UNL     1      -8.713  11.479  68.668  1.00  0.00    -0.103 C  
HETATM    7  CA  UNL     1     -10.026   9.041  65.874  1.00  0.00    -0.099 C  
HETATM    8  S   UNL     1     -10.262  10.915  67.987  1.00  0.00    -0.186 SA 
HETATM    9  N   UNL     1      -8.368  10.252  66.080  1.00  0.00    -0.135 N  
HETATM   10  O   UNL     1      -7.841   8.286  64.825  1.00  0.00    -0.113 OA 
HETATM   11  C   UNL     1      -9.766  10.518  66.308  1.00  0.00    -0.205 C  
HETATM   12  C   UNL     1      -8.540   9.104  65.371  1.00  0.00    -0.169 C  
ENDROOT
BRANCH   5  13
HETATM   13  C   UNL     1      -6.335  12.205  68.564  1.00  0.00    -0.056 C  
BRANCH  13  14
HETATM   14  N   UNL     1      -6.433  13.687  68.732  1.00  0.00    -0.090 NA 
HETATM   15  C   UNL     1      -6.900  15.868  67.880  1.00  0.00    -0.159 A  
HETATM   16  C   UNL     1      -6.156  16.439  68.904  1.00  0.00    -0.141 A  
HETATM   17  C   UNL     1      -7.039  14.481  67.818  1.00  0.00    -0.175 A  
HETATM   18  C   UNL     1      -5.787  14.240  69.786  1.00  0.00    -0.112 A  
HETATM   19  C   UNL     1      -5.615  15.617  69.880  1.00  0.00    -0.132 A  
ENDBRANCH  13  14
ENDBRANCH   5  13
BRANCH   7  20
HETATM   20  N   UNL     1     -10.275   7.984  66.935  1.00  0.00    -0.293 N  
HETATM   21  H   UNL     1     -11.231   7.671  67.104  1.00  0.00     0.000 HD 
HETATM   22  O   UNL     1      -8.078   7.803  67.678  1.00  0.00    -0.121 OA 
HETATM   23  C   UNL     1      -9.248   7.431  67.680  1.00  0.00    -0.127 C  
BRANCH  23  24
HETATM   24  C   UNL     1      -9.559   6.251  68.572  1.00  0.00    -0.126 C  
BRANCH  24  25
HETATM   25  N   UNL     1      -9.896   6.301  69.831  1.00  0.00    -0.165 NA 
HETATM   26  H   UNL     1      -9.260   6.008  70.572  1.00  0.00     0.000 HD 
BRANCH  25  27
HETATM   27  O   UNL     1     -11.182   6.781  70.106  1.00  0.00    -0.288 OA 
HETATM   28  C   UNL     1     -12.920   7.048  71.724  1.00  0.00    -0.356 C  
HETATM   29  C   UNL     1     -10.601   7.859  72.191  1.00  0.00    -0.312 C  
HETATM   30  O   UNL     1     -10.130   4.673  71.725  1.00  0.00    -0.185 OA 
HETATM   31  O   UNL     1     -11.702   5.041  73.283  1.00  0.00    -0.292 OA 
HETATM   32  C   UNL     1     -11.425   6.746  71.530  1.00  0.00    -0.287 C  
HETATM   33  C   UNL     1     -11.129   5.410  72.265  1.00  0.00    -0.196 C  
ENDBRANCH  25  27
ENDBRANCH  24  25
BRANCH  24  34
HETATM   34  C   UNL     1      -9.371   4.899  68.033  1.00  0.00    -0.129 A  
HETATM   35  H2  UNL     1      -9.151   1.911  65.001  1.00  0.00     0.000 HD 
HETATM   36  C   UNL     1      -9.347   3.736  68.783  1.00  0.00    -0.164 A  
HETATM   37  S   UNL     1      -9.223   2.374  67.754  1.00  0.00    -0.173 SA 
HETATM   38  H1  UNL     1      -9.177   3.539  64.329  1.00  0.00     0.000 HD 
HETATM   39  N   UNL     1      -9.180   2.921  65.141  1.00  0.00    -0.148 NA 
HETATM   40  N   UNL     1      -9.260   4.692  66.657  1.00  0.00    -0.122 NA 
HETATM   41  C   UNL     1      -9.220   3.412  66.389  1.00  0.00    -0.163 A  
ENDBRANCH  24  34
ENDBRANCH  23  24
ENDBRANCH   7  20
TORSDOF 7
ENDMDL
MODEL      180
REMARK 921   NORMALIZED FREE ENERGY PREDICTED BY IDOCK:   -3.57 KCAL/MOL
REMARK 922        TOTAL FREE ENERGY PREDICTED BY IDOCK:   -6.58 KCAL/MOL
REMARK 923 INTER-LIGAND FREE ENERGY PREDICTED BY IDOCK:   -7.41 KCAL/MOL
REMARK 924 INTRA-LIGAND FREE ENERGY PREDICTED BY IDOCK:    0.84 KCAL/MOL
REMARK 927      BINDING AFFINITY PREDICTED BY RF-SCORE:    0.00 PKD
ROOT
HETATM    1  O   UNL     1     -10.854   9.329  71.072  1.00  0.00    -0.260 OA 
HETATM    2  C   UNL     1     -10.402   8.685  70.099  1.00  0.00    -0.207 C  
HETATM    3  CA  UNL     1     -10.465   9.389  68.674  1.00  0.00    -0.209 C  
HETATM    4  OXT UNL     1      -9.898   7.519  70.079  1.00  0.00    -0.179 OA 
HETATM    5  C   UNL     1      -9.716   8.914  67.647  1.00  0.00    -0.202 C  
HETATM    6  C   UNL     1      -9.638   9.503  66.263  1.00  0.00    -0.226 C  
HETATM    7  CA  UNL     1     -11.810  12.388  67.823  1.00  0.00    -0.298 C  
HETATM    8  S   UNL     1     -10.791  10.760  65.739  1.00  0.00     0.083 SA 
HETATM    9  N   UNL     1     -11.186  10.531  68.469  1.00  0.00    -0.273 N  
HETATM   10  O   UNL     1     -11.336  12.066  70.296  1.00  0.00    -0.029 OA 
HETATM   11  C   UNL     1     -11.782  10.946  67.224  1.00  0.00     0.379 C  
HETATM   12  C   UNL     1     -11.495  11.653  69.174  1.00  0.00    -0.300 C  
ENDROOT
BRANCH   5  13
HETATM   13  C   UNL     1      -8.756   7.746  67.788  1.00  0.00    -0.123 C  
BRANCH  13  14
HETATM   14  N   UNL     1      -9.033   6.539  66.950  1.00  0.00    -0.122 NA 
HETATM   15  C   UNL     1      -8.623   5.180  65.031  1.00  0.00    -0.151 A  
HETATM   16  C   UNL     1      -9.868   4.582  65.176  1.00  0.00    -0.156 A  
HETATM   17  C   UNL     1      -8.215   6.154  65.943  1.00  0.00    -0.131 A  
HETATM   18  C   UNL     1     -10.206   5.894  67.154  1.00  0.00    -0.203 A  
HETATM   19  C   UNL     1     -10.657   4.926  66.263  1.00  0.00    -0.307 A  
ENDBRANCH  13  14
ENDBRANCH   5  13
BRANCH   7  20
HETATM   20  N   UNL     1     -10.751  13.391  67.403  1.00  0.00    -0.260 N  
HETATM   21  H   UNL     1     -11.006  14.134  66.752  1.00  0.00     0.000 HD 
HETATM   22  O   UNL     1      -8.973  12.425  68.549  1.00  0.00    -0.155 OA 
HETATM   23  C   UNL     1      -9.451  13.331  67.874  1.00  0.00    -0.214 C  
BRANCH  23  24
HETATM   24  C   UNL     1      -8.517  14.478  67.560  1.00  0.00    -0.190 C  
BRANCH  24  25
HETATM   25  N   UNL     1      -8.449  15.134  66.436  1.00  0.00    -0.416 NA 
HETATM   26  H   UNL     1      -8.404  14.658  65.535  1.00  0.00     0.000 HD 
BRANCH  25  27
HETATM   27  O   UNL     1      -8.442  16.531  66.536  1.00  0.00    -0.233 OA 
HETATM   28  C   UNL     1      -9.632  18.572  66.182  1.00  0.00    -0.203 C  
HETATM   29  C   UNL     1     -10.645  16.716  67.517  1.00  0.00    -0.311 C  
HETATM   30  O   UNL     1     -10.176  15.301  64.624  1.00  0.00    -0.191 OA 
HETATM   31  O   UNL     1     -11.348  17.203  64.415  1.00  0.00    -1.115 OA 
HETATM   32  C   UNL     1      -9.772  17.045  66.298  1.00  0.00    -0.283 C  
HETATM   33  C   UNL     1     -10.503  16.554  65.019  1.00  0.00    -0.023 C  
ENDBRANCH  25  27
ENDBRANCH  24  25
BRANCH  24  34
HETATM   34  C   UNL     1      -7.504  14.845  68.556  1.00  0.00    -0.118 A  
HETATM   35  H2  UNL     1      -5.056  17.495  70.827  1.00  0.00     0.000 HD 
HETATM   36  C   UNL     1      -6.613  13.969  69.151  1.00  0.00    -0.113 A  
HETATM   37  S   UNL     1      -5.529  14.824  70.161  1.00  0.00    -0.121 SA 
HETATM   38  H1  UNL     1      -6.326  18.347  69.954  1.00  0.00     0.000 HD 
HETATM   39  N   UNL     1      -5.865  17.473  70.206  1.00  0.00    -0.203 NA 
HETATM   40  N   UNL     1      -7.331  16.178  68.936  1.00  0.00    -0.173 NA 
HETATM   41  C   UNL     1      -6.303  16.295  69.737  1.00  0.00    -0.181 A  
ENDBRANCH  24  34
ENDBRANCH  23  24
ENDBRANCH   7  20
TORSDOF 7
ENDMDL
MODEL      181
REMARK 921   NORMALIZED FREE ENERGY PREDICTED BY IDOCK:   -3.57 KCAL/MOL
REMARK 922        TOTAL FREE ENERGY PREDICTED BY IDOCK:   -6.56 KCAL/MOL
REMARK 923 INTER-LIGAND FREE ENERGY PREDICTED BY IDOCK:   -6.28 KCAL/MOL
REMARK 924 INTRA-LIGAND FREE ENERGY PREDICTED BY IDOCK:   -0.29 KCAL/MOL
REMARK 927      BINDING AFFINITY PREDICTED BY RF-SCORE:    0.00 PKD
ROOT
HETATM    1  O   UNL     1      -5.629   8.742  65.519  1.00  0.00    -0.045 OA 
HETATM    2  C   UNL     1      -6.304   7.698  65.378  1.00  0.00    -0.038 C  
HETATM    3  CA  UNL     1      -7.178   7.230  66.624  1.00  0.00    -0.080 C  
HETATM    4  OXT UNL     1      -6.389   6.932  64.369  1.00  0.00    -0.035 OA 
HETATM    5  C   UNL     1      -8.171   6.321  66.453  1.00  0.00    -0.114 C  
HETATM    6  C   UNL     1      -9.105   5.821  67.524  1.00  0.00    -0.106 C  
HETATM    7  CA  UNL     1      -7.380   8.584  69.731  1.00  0.00    -0.056 C  
HETATM    8  S   UNL     1      -8.796   6.177  69.245  1.00  0.00    -0.124 SA 
HETATM    9  N   UNL     1      -7.025   7.791  67.859  1.00  0.00    -0.075 N  
HETATM   10  O   UNL     1      -6.418  10.103  67.938  1.00  0.00    -0.061 OA 
HETATM   11  C   UNL     1      -7.291   7.149  69.121  1.00  0.00    -0.092 C  
HETATM   12  C   UNL     1      -6.740   9.021  68.365  1.00  0.00    -0.060 C  
ENDROOT
BRANCH   5  13
HETATM   13  C   UNL     1      -8.543   5.738  65.101  1.00  0.00    -0.109 C  
BRANCH  13  14
HETATM   14  N   UNL     1      -8.545   4.247  64.986  1.00  0.00    -0.120 NA 
HETATM   15  C   UNL     1      -7.631   2.207  64.148  1.00  0.00    -0.060 A  
HETATM   16  C   UNL     1      -8.833   1.557  64.390  1.00  0.00    -0.098 A  
HETATM   17  C   UNL     1      -7.501   3.559  64.467  1.00  0.00    -0.072 A  
HETATM   18  C   UNL     1      -9.688   3.598  65.313  1.00  0.00    -0.144 A  
HETATM   19  C   UNL     1      -9.864   2.254  65.001  1.00  0.00     0.280 A  
ENDBRANCH  13  14
ENDBRANCH   5  13
BRANCH   7  20
HETATM   20  N   UNL     1      -8.742   9.197  70.000  1.00  0.00    -0.159 N  
HETATM   21  H   UNL     1      -9.057   9.295  70.965  1.00  0.00     0.000 HD 
HETATM   22  O   UNL     1      -9.383   9.454  67.778  1.00  0.00    -0.129 OA 
HETATM   23  C   UNL     1      -9.571   9.629  68.978  1.00  0.00    -0.168 C  
BRANCH  23  24
HETATM   24  C   UNL     1     -10.818  10.403  69.340  1.00  0.00    -0.248 C  
BRANCH  24  25
HETATM   25  N   UNL     1     -11.181  11.556  68.852  1.00  0.00    -0.224 NA 
HETATM   26  H   UNL     1     -10.955  12.435  69.319  1.00  0.00     0.000 HD 
BRANCH  25  27
HETATM   27  O   UNL     1     -11.897  11.519  67.650  1.00  0.00    -0.595 OA 
HETATM   28  C   UNL     1     -12.380  12.589  65.569  1.00  0.00    -0.364 C  
HETATM   29  C   UNL     1     -10.022  12.081  66.230  1.00  0.00    -0.249 C  
HETATM   30  O   UNL     1     -10.997  14.048  68.633  1.00  0.00    -0.245 OA 
HETATM   31  O   UNL     1     -11.343  14.988  66.625  1.00  0.00    -0.344 OA 
HETATM   32  C   UNL     1     -11.395  12.531  66.749  1.00  0.00    -0.334 C  
HETATM   33  C   UNL     1     -11.263  13.975  67.307  1.00  0.00    -0.312 C  
ENDBRANCH  25  27
ENDBRANCH  24  25
BRANCH  24  34
HETATM   34  C   UNL     1     -11.671   9.888  70.417  1.00  0.00    -0.258 A  
HETATM   35  H2  UNL     1     -13.576   6.898  72.785  1.00  0.00     0.000 HD 
HETATM   36  C   UNL     1     -12.570  10.640  71.154  1.00  0.00    -0.423 A  
HETATM   37  S   UNL     1     -13.444   9.631  72.225  1.00  0.00    -0.311 SA 
HETATM   38  H1  UNL     1     -12.336   6.222  71.732  1.00  0.00     0.000 HD 
HETATM   39  N   UNL     1     -12.848   7.032  72.082  1.00  0.00    -0.131 NA 
HETATM   40  N   UNL     1     -11.669   8.528  70.737  1.00  0.00    -0.250 NA 
HETATM   41  C   UNL     1     -12.583   8.269  71.636  1.00  0.00    -0.327 A  
ENDBRANCH  24  34
ENDBRANCH  23  24
ENDBRANCH   7  20
TORSDOF 7
ENDMDL
MODEL      182
REMARK 921   NORMALIZED FREE ENERGY PREDICTED BY IDOCK:   -3.52 KCAL/MOL
REMARK 922        TOTAL FREE ENERGY PREDICTED BY IDOCK:   -6.51 KCAL/MOL
REMARK 923 INTER-LIGAND FREE ENERGY PREDICTED BY IDOCK:   -5.76 KCAL/MOL
REMARK 924 INTRA-LIGAND FREE ENERGY PREDICTED BY IDOCK:   -0.74 KCAL/MOL
REMARK 927      BINDING AFFINITY PREDICTED BY RF-SCORE:    0.00 PKD
ROOT
HETATM    1  O   UNL     1     -11.271  11.650  64.506  1.00  0.00    -0.315 OA 
HETATM    2  C   UNL     1     -10.148  11.204  64.180  1.00  0.00    -0.333 C  
HETATM    3  CA  UNL     1      -9.095  10.973  65.352  1.00  0.00    -0.195 C  
HETATM    4  OXT UNL     1      -9.709  10.912  63.024  1.00  0.00    -0.309 OA 
HETATM    5  C   UNL     1      -8.000  10.201  65.138  1.00  0.00    -0.146 C  
HETATM    6  C   UNL     1      -6.948   9.857  66.159  1.00  0.00    -0.102 C  
HETATM    7  CA  UNL     1      -9.387  11.663  68.663  1.00  0.00    -0.114 C  
HETATM    8  S   UNL     1      -6.889  10.702  67.729  1.00  0.00    -0.073 SA 
HETATM    9  N   UNL     1      -9.307  11.454  66.612  1.00  0.00    -0.180 N  
HETATM   10  O   UNL     1     -11.572  11.552  67.374  1.00  0.00    -0.495 OA 
HETATM   11  C   UNL     1      -8.288  11.815  67.564  1.00  0.00    -0.154 C  
HETATM   12  C   UNL     1     -10.370  11.644  67.439  1.00  0.00    -0.205 C  
ENDROOT
BRANCH   5  13
HETATM   13  C   UNL     1      -7.731   9.483  63.827  1.00  0.00    -0.126 C  
BRANCH  13  14
HETATM   14  N   UNL     1      -7.730   7.989  63.862  1.00  0.00    -0.132 NA 
HETATM   15  C   UNL     1      -8.619   5.908  64.625  1.00  0.00     0.036 A  
HETATM   16  C   UNL     1      -7.429   5.269  64.301  1.00  0.00    -0.062 A  
HETATM   17  C   UNL     1      -8.756   7.276  64.384  1.00  0.00     0.534 A  
HETATM   18  C   UNL     1      -6.603   7.356  63.456  1.00  0.00    -0.053 A  
HETATM   19  C   UNL     1      -6.421   5.996  63.688  1.00  0.00    -0.029 A  
ENDBRANCH  13  14
ENDBRANCH   5  13
BRANCH   7  20
HETATM   20  N   UNL     1      -9.428  10.403  69.508  1.00  0.00    -0.366 N  
HETATM   21  H   UNL     1      -9.145  10.456  70.487  1.00  0.00     0.000 HD 
HETATM   22  O   UNL     1     -10.073   8.944  67.814  1.00  0.00    -0.185 OA 
HETATM   23  C   UNL     1      -9.835   9.184  68.995  1.00  0.00    -0.174 C  
BRANCH  23  24
HETATM   24  C   UNL     1     -10.032   8.028  69.950  1.00  0.00    -0.189 C  
BRANCH  24  25
HETATM   25  N   UNL     1      -9.171   7.085  70.209  1.00  0.00    -0.156 NA 
HETATM   26  H   UNL     1      -9.328   6.399  70.948  1.00  0.00     0.000 HD 
BRANCH  25  27
HETATM   27  O   UNL     1      -8.018   7.067  69.415  1.00  0.00    -0.114 OA 
HETATM   28  C   UNL     1      -5.646   7.338  69.316  1.00  0.00    -0.015 C  
HETATM   29  C   UNL     1      -6.686   5.753  70.947  1.00  0.00    -0.052 C  
HETATM   30  O   UNL     1      -7.996   8.598  71.829  1.00  0.00    -0.161 OA 
HETATM   31  O   UNL     1      -5.757   8.721  71.770  1.00  0.00    -0.044 OA 
HETATM   32  C   UNL     1      -6.843   7.114  70.256  1.00  0.00    -0.056 C  
HETATM   33  C   UNL     1      -6.791   8.227  71.337  1.00  0.00    -0.062 C  
ENDBRANCH  25  27
ENDBRANCH  24  25
BRANCH  24  34
HETATM   34  C   UNL     1     -11.345   7.863  70.584  1.00  0.00    -0.259 A  
HETATM   35  H2  UNL     1     -14.716   9.023  72.921  1.00  0.00     0.000 HD 
HETATM   36  C   UNL     1     -12.017   6.661  70.728  1.00  0.00    -0.353 A  
HETATM   37  S   UNL     1     -13.455   6.894  71.625  1.00  0.00    -0.072 SA 
HETATM   38  H1  UNL     1     -13.661  10.385  72.554  1.00  0.00     0.000 HD 
HETATM   39  N   UNL     1     -13.879   9.392  72.468  1.00  0.00    -0.401 NA 
HETATM   40  N   UNL     1     -11.998   8.953  71.161  1.00  0.00    -0.294 NA 
HETATM   41  C   UNL     1     -13.088   8.563  71.770  1.00  0.00    -0.355 A  
ENDBRANCH  24  34
ENDBRANCH  23  24
ENDBRANCH   7  20
TORSDOF 7
ENDMDL
MODEL      183
REMARK 921   NORMALIZED FREE ENERGY PREDICTED BY IDOCK:   -3.51 KCAL/MOL
REMARK 922        TOTAL FREE ENERGY PREDICTED BY IDOCK:   -6.48 KCAL/MOL
REMARK 923 INTER-LIGAND FREE ENERGY PREDICTED BY IDOCK:   -6.89 KCAL/MOL
REMARK 924 INTRA-LIGAND FREE ENERGY PREDICTED BY IDOCK:    0.41 KCAL/MOL
REMARK 927      BINDING AFFINITY PREDICTED BY RF-SCORE:    0.00 PKD
ROOT
HETATM    1  O   UNL     1     -12.882  10.566  69.229  1.00  0.00    -0.030 OA 
HETATM    2  C   UNL     1     -11.817   9.959  69.478  1.00  0.00     0.173 C  
HETATM    3  CA  UNL     1     -10.544  10.347  68.606  1.00  0.00    -0.209 C  
HETATM    4  OXT UNL     1     -11.599   9.049  70.337  1.00  0.00    -0.226 OA 
HETATM    5  C   UNL     1      -9.302   9.988  69.019  1.00  0.00    -0.183 C  
HETATM    6  C   UNL     1      -8.008  10.323  68.326  1.00  0.00    -0.106 C  
HETATM    7  CA  UNL     1     -10.306  12.518  66.007  1.00  0.00    -0.256 C  
HETATM    8  S   UNL     1      -8.006  11.004  66.677  1.00  0.00    -0.159 SA 
HETATM    9  N   UNL     1     -10.649  11.122  67.487  1.00  0.00    -0.207 N  
HETATM   10  O   UNL     1     -12.352  12.802  67.483  1.00  0.00    -0.280 OA 
HETATM   11  C   UNL     1      -9.768  11.092  66.347  1.00  0.00    -0.204 C  
HETATM   12  C   UNL     1     -11.406  12.174  67.073  1.00  0.00    -0.337 C  
ENDROOT
BRANCH   5  13
HETATM   13  C   UNL     1      -9.038   9.258  70.325  1.00  0.00    -0.237 C  
BRANCH  13  14
HETATM   14  N   UNL     1      -8.510   7.863  70.224  1.00  0.00    -0.127 NA 
HETATM   15  C   UNL     1      -6.778   6.249  70.528  1.00  0.00    -0.053 A  
HETATM   16  C   UNL     1      -7.381   5.410  69.600  1.00  0.00    -0.065 A  
HETATM   17  C   UNL     1      -7.369   7.474  70.838  1.00  0.00    -0.068 A  
HETATM   18  C   UNL     1      -9.155   7.010  69.391  1.00  0.00    -0.145 A  
HETATM   19  C   UNL     1      -8.595   5.785  69.045  1.00  0.00    -0.106 A  
ENDBRANCH  13  14
ENDBRANCH   5  13
BRANCH   7  20
HETATM   20  N   UNL     1      -9.467  13.735  66.353  1.00  0.00    -0.389 N  
HETATM   21  H   UNL     1      -8.470  13.612  66.531  1.00  0.00     0.000 HD 
HETATM   22  O   UNL     1     -11.205  15.281  66.379  1.00  0.00    -0.315 OA 
HETATM   23  C   UNL     1     -10.011  15.005  66.435  1.00  0.00    -0.279 C  
BRANCH  23  24
HETATM   24  C   UNL     1      -9.073  16.181  66.591  1.00  0.00    -0.252 C  
BRANCH  24  25
HETATM   25  N   UNL     1      -7.777  16.125  66.718  1.00  0.00    -0.248 NA 
HETATM   26  H   UNL     1      -7.218  15.421  66.235  1.00  0.00     0.000 HD 
BRANCH  25  27
HETATM   27  O   UNL     1      -7.197  17.085  67.555  1.00  0.00    -0.144 OA 
HETATM   28  C   UNL     1      -6.063  17.533  69.610  1.00  0.00    -0.249 C  
HETATM   29  C   UNL     1      -5.180  15.829  68.006  1.00  0.00    -0.129 C  
HETATM   30  O   UNL     1      -8.126  14.641  68.710  1.00  0.00    -0.144 OA 
HETATM   31  O   UNL     1      -6.944  15.036  70.576  1.00  0.00     0.055 OA 
HETATM   32  C   UNL     1      -6.455  16.432  68.610  1.00  0.00    -0.135 C  
HETATM   33  C   UNL     1      -7.193  15.326  69.413  1.00  0.00    -0.201 C  
ENDBRANCH  25  27
ENDBRANCH  24  25
BRANCH  24  34
HETATM   34  C   UNL     1      -9.653  17.522  66.723  1.00  0.00    -0.282 A  
HETATM   35  H2  UNL     1     -11.649  21.050  65.403  1.00  0.00     0.000 HD 
HETATM   36  C   UNL     1      -9.448  18.380  67.790  1.00  0.00    -0.280 A  
HETATM   37  S   UNL     1     -10.208  19.884  67.492  1.00  0.00    -0.419 SA 
HETATM   38  H1  UNL     1     -11.761  19.743  64.227  1.00  0.00     0.000 HD 
HETATM   39  N   UNL     1     -11.440  20.089  65.131  1.00  0.00     0.354 NA 
HETATM   40  N   UNL     1     -10.436  18.062  65.701  1.00  0.00    -0.621 NA 
HETATM   41  C   UNL     1     -10.748  19.304  65.971  1.00  0.00    -0.386 A  
ENDBRANCH  24  34
ENDBRANCH  23  24
ENDBRANCH   7  20
TORSDOF 7
ENDMDL
MODEL      184
REMARK 921   NORMALIZED FREE ENERGY PREDICTED BY IDOCK:   -3.46 KCAL/MOL
REMARK 922        TOTAL FREE ENERGY PREDICTED BY IDOCK:   -6.42 KCAL/MOL
REMARK 923 INTER-LIGAND FREE ENERGY PREDICTED BY IDOCK:   -5.96 KCAL/MOL
REMARK 924 INTRA-LIGAND FREE ENERGY PREDICTED BY IDOCK:   -0.46 KCAL/MOL
REMARK 927      BINDING AFFINITY PREDICTED BY RF-SCORE:    0.00 PKD
ROOT
HETATM    1  O   UNL     1      -6.215   9.616  65.103  1.00  0.00    -0.072 OA 
HETATM    2  C   UNL     1      -6.509  10.459  65.980  1.00  0.00    -0.119 C  
HETATM    3  CA  UNL     1      -7.841  10.200  66.812  1.00  0.00    -0.108 C  
HETATM    4  OXT UNL     1      -5.894  11.522  66.304  1.00  0.00    -0.153 OA 
HETATM    5  C   UNL     1      -8.055  10.866  67.975  1.00  0.00    -0.119 C  
HETATM    6  C   UNL     1      -9.240  10.692  68.888  1.00  0.00    -0.183 C  
HETATM    7  CA  UNL     1     -10.142   7.729  66.463  1.00  0.00    -0.154 C  
HETATM    8  S   UNL     1     -10.671   9.766  68.361  1.00  0.00    -0.199 SA 
HETATM    9  N   UNL     1      -8.746   9.248  66.441  1.00  0.00    -0.129 N  
HETATM   10  O   UNL     1      -7.886   7.280  65.388  1.00  0.00    -0.103 OA 
HETATM   11  C   UNL     1     -10.161   9.270  66.713  1.00  0.00    -0.255 C  
HETATM   12  C   UNL     1      -8.714   8.011  65.875  1.00  0.00    -0.157 C  
ENDROOT
BRANCH   5  13
HETATM   13  C   UNL     1      -7.053  11.837  68.575  1.00  0.00    -0.091 C  
BRANCH  13  14
HETATM   14  N   UNL     1      -7.393  13.291  68.500  1.00  0.00    -0.111 NA 
HETATM   15  C   UNL     1      -7.350  15.504  69.395  1.00  0.00    -0.215 A  
HETATM   16  C   UNL     1      -8.425  15.861  68.592  1.00  0.00    -0.200 A  
HETATM   17  C   UNL     1      -6.835  14.209  69.324  1.00  0.00    -0.118 A  
HETATM   18  C   UNL     1      -8.378  13.658  67.646  1.00  0.00    -0.182 A  
HETATM   19  C   UNL     1      -8.928  14.935  67.692  1.00  0.00    -0.181 A  
ENDBRANCH  13  14
ENDBRANCH   5  13
BRANCH   7  20
HETATM   20  N   UNL     1     -10.147   6.781  67.648  1.00  0.00    -0.149 N  
HETATM   21  H   UNL     1     -10.993   6.246  67.847  1.00  0.00     0.000 HD 
HETATM   22  O   UNL     1      -8.015   7.287  68.427  1.00  0.00    -0.120 OA 
HETATM   23  C   UNL     1      -9.043   6.618  68.466  1.00  0.00    -0.128 C  
BRANCH  23  24
HETATM   24  C   UNL     1      -9.068   5.514  69.500  1.00  0.00    -0.120 C  
BRANCH  24  25
HETATM   25  N   UNL     1      -9.925   5.387  70.474  1.00  0.00    -0.205 NA 
HETATM   26  H   UNL     1     -10.716   4.745  70.416  1.00  0.00     0.000 HD 
BRANCH  25  27
HETATM   27  O   UNL     1      -9.699   6.183  71.603  1.00  0.00    -0.159 OA 
HETATM   28  C   UNL     1     -10.653   7.515  73.342  1.00  0.00    -0.409 C  
HETATM   29  C   UNL     1     -11.412   5.161  72.970  1.00  0.00    -0.349 C  
HETATM   30  O   UNL     1     -12.112   6.564  70.119  1.00  0.00    -0.323 OA 
HETATM   31  O   UNL     1     -13.021   7.701  71.826  1.00  0.00    -0.330 OA 
HETATM   32  C   UNL     1     -10.951   6.449  72.274  1.00  0.00    -0.254 C  
HETATM   33  C   UNL     1     -12.120   6.987  71.405  1.00  0.00    -0.355 C  
ENDBRANCH  25  27
ENDBRANCH  24  25
BRANCH  24  34
HETATM   34  C   UNL     1      -7.976   4.535  69.501  1.00  0.00    -0.061 A  
HETATM   35  H2  UNL     1      -4.413   2.675  70.922  1.00  0.00     0.000 HD 
HETATM   36  C   UNL     1      -7.660   3.689  68.452  1.00  0.00    -0.057 A  
HETATM   37  S   UNL     1      -6.249   2.793  68.821  1.00  0.00    -0.029 SA 
HETATM   38  H1  UNL     1      -5.075   3.819  72.086  1.00  0.00     0.000 HD 
HETATM   39  N   UNL     1      -5.136   3.346  71.184  1.00  0.00     0.000 NA 
HETATM   40  N   UNL     1      -7.112   4.435  70.593  1.00  0.00    -0.040 NA 
HETATM   41  C   UNL     1      -6.147   3.589  70.337  1.00  0.00    -0.019 A  
ENDBRANCH  24  34
ENDBRANCH  23  24
ENDBRANCH   7  20
TORSDOF 7
ENDMDL
MODEL      185
REMARK 921   NORMALIZED FREE ENERGY PREDICTED BY IDOCK:   -3.41 KCAL/MOL
REMARK 922        TOTAL FREE ENERGY PREDICTED BY IDOCK:   -6.35 KCAL/MOL
REMARK 923 INTER-LIGAND FREE ENERGY PREDICTED BY IDOCK:   -5.23 KCAL/MOL
REMARK 924 INTRA-LIGAND FREE ENERGY PREDICTED BY IDOCK:   -1.12 KCAL/MOL
REMARK 927      BINDING AFFINITY PREDICTED BY RF-SCORE:    0.00 PKD
ROOT
HETATM    1  O   UNL     1      -6.032   6.684  65.664  1.00  0.00    -0.032 OA 
HETATM    2  C   UNL     1      -6.770   6.371  66.625  1.00  0.00    -0.060 C  
HETATM    3  CA  UNL     1      -7.088   7.509  67.691  1.00  0.00    -0.085 C  
HETATM    4  OXT UNL     1      -7.307   5.250  66.887  1.00  0.00    -0.083 OA 
HETATM    5  C   UNL     1      -8.119   7.356  68.560  1.00  0.00    -0.125 C  
HETATM    6  C   UNL     1      -8.565   8.363  69.587  1.00  0.00    -0.132 C  
HETATM    7  CA  UNL     1      -5.920  10.693  67.842  1.00  0.00    -0.043 C  
HETATM    8  S   UNL     1      -7.560   9.787  69.968  1.00  0.00    -0.175 SA 
HETATM    9  N   UNL     1      -6.410   8.694  67.700  1.00  0.00    -0.053 N  
HETATM   10  O   UNL     1      -5.678   9.547  65.589  1.00  0.00    -0.051 OA 
HETATM   11  C   UNL     1      -6.178   9.530  68.851  1.00  0.00    -0.042 C  
HETATM   12  C   UNL     1      -5.866   9.536  66.781  1.00  0.00    -0.055 C  
ENDROOT
BRANCH   5  13
HETATM   13  C   UNL     1      -9.046   6.153  68.548  1.00  0.00    -0.117 C  
BRANCH  13  14
HETATM   14  N   UNL     1      -9.228   5.429  69.844  1.00  0.00    -0.134 NA 
HETATM   15  C   UNL     1     -10.244   5.196  71.991  1.00  0.00    -0.260 A  
HETATM   16  C   UNL     1      -9.209   4.366  72.402  1.00  0.00    -0.150 A  
HETATM   17  C   UNL     1     -10.243   5.710  70.695  1.00  0.00    -0.227 A  
HETATM   18  C   UNL     1      -8.267   4.545  70.205  1.00  0.00    -0.067 A  
HETATM   19  C   UNL     1      -8.224   4.018  71.491  1.00  0.00    -0.079 A  
ENDBRANCH  13  14
ENDBRANCH   5  13
BRANCH   7  20
HETATM   20  N   UNL     1      -7.012  11.716  67.586  1.00  0.00    -0.087 N  
HETATM   21  H   UNL     1      -7.986  11.410  67.596  1.00  0.00     0.000 HD 
HETATM   22  O   UNL     1      -5.614  13.527  67.165  1.00  0.00    -0.288 OA 
HETATM   23  C   UNL     1      -6.731  13.048  67.339  1.00  0.00    -0.115 C  
BRANCH  23  24
HETATM   24  C   UNL     1      -7.880  14.030  67.289  1.00  0.00    -0.122 C  
BRANCH  24  25
HETATM   25  N   UNL     1      -9.114  13.760  66.968  1.00  0.00    -0.238 NA 
HETATM   26  H   UNL     1      -9.366  12.912  66.460  1.00  0.00     0.000 HD 
BRANCH  25  27
HETATM   27  O   UNL     1     -10.073  14.701  67.359  1.00  0.00    -0.231 OA 
HETATM   28  C   UNL     1     -12.214  15.677  66.940  1.00  0.00     1.103 C  
HETATM   29  C   UNL     1     -11.965  13.202  67.201  1.00  0.00    -0.397 C  
HETATM   30  O   UNL     1     -10.051  13.815  64.642  1.00  0.00    -0.363 OA 
HETATM   31  O   UNL     1     -12.117  14.633  64.324  1.00  0.00    -0.475 OA 
HETATM   32  C   UNL     1     -11.307  14.471  66.642  1.00  0.00    -0.356 C  
HETATM   33  C   UNL     1     -11.214  14.339  65.097  1.00  0.00    -0.345 C  
ENDBRANCH  25  27
ENDBRANCH  24  25
BRANCH  24  34
HETATM   34  C   UNL     1      -7.593  15.451  67.516  1.00  0.00    -0.181 A  
HETATM   35  H2  UNL     1      -6.851  19.500  66.407  1.00  0.00     0.000 HD 
HETATM   36  C   UNL     1      -7.170  16.000  68.714  1.00  0.00    -0.157 A  
HETATM   37  S   UNL     1      -6.840  17.667  68.515  1.00  0.00    -0.233 SA 
HETATM   38  H1  UNL     1      -7.436  18.537  65.054  1.00  0.00     0.000 HD 
HETATM   39  N   UNL     1      -7.180  18.607  66.039  1.00  0.00    -0.307 NA 
HETATM   40  N   UNL     1      -7.678  16.370  66.467  1.00  0.00    -0.272 NA 
HETATM   41  C   UNL     1      -7.268  17.549  66.858  1.00  0.00    -0.197 A  
ENDBRANCH  24  34
ENDBRANCH  23  24
ENDBRANCH   7  20
TORSDOF 7
ENDMDL
MODEL      186
REMARK 921   NORMALIZED FREE ENERGY PREDICTED BY IDOCK:   -3.40 KCAL/MOL
REMARK 922        TOTAL FREE ENERGY PREDICTED BY IDOCK:   -6.33 KCAL/MOL
REMARK 923 INTER-LIGAND FREE ENERGY PREDICTED BY IDOCK:   -7.40 KCAL/MOL
REMARK 924 INTRA-LIGAND FREE ENERGY PREDICTED BY IDOCK:    1.06 KCAL/MOL
REMARK 927      BINDING AFFINITY PREDICTED BY RF-SCORE:    0.00 PKD
ROOT
HETATM    1  O   UNL     1     -11.231  12.577  64.327  1.00  0.00    -0.313 OA 
HETATM    2  C   UNL     1     -10.932  11.695  65.163  1.00  0.00    -0.266 C  
HETATM    3  CA  UNL     1      -9.898  12.102  66.303  1.00  0.00    -0.234 C  
HETATM    4  OXT UNL     1     -11.332  10.491  65.231  1.00  0.00     0.534 OA 
HETATM    5  C   UNL     1      -9.776  11.332  67.414  1.00  0.00    -0.190 C  
HETATM    6  C   UNL     1      -8.878  11.616  68.590  1.00  0.00    -0.082 C  
HETATM    7  CA  UNL     1      -8.225  15.024  66.737  1.00  0.00    -0.089 C  
HETATM    8  S   UNL     1      -7.630  12.887  68.501  1.00  0.00    -0.093 SA 
HETATM    9  N   UNL     1      -9.188  13.266  66.245  1.00  0.00    -0.123 N  
HETATM   10  O   UNL     1     -10.254  15.143  65.215  1.00  0.00    -0.358 OA 
HETATM   11  C   UNL     1      -7.894  13.501  66.835  1.00  0.00     0.281 C  
HETATM   12  C   UNL     1      -9.395  14.538  65.809  1.00  0.00     0.000 C  
ENDROOT
BRANCH   5  13
HETATM   13  C   UNL     1     -10.621  10.097  67.668  1.00  0.00    -0.265 C  
BRANCH  13  14
HETATM   14  N   UNL     1     -11.337  10.026  68.979  1.00  0.00    -0.141 NA 
HETATM   15  C   UNL     1     -12.611  11.031  70.730  1.00  0.00    -0.463 A  
HETATM   16  C   UNL     1     -12.240  10.013  71.598  1.00  0.00    -0.456 A  
HETATM   17  C   UNL     1     -12.157  11.013  69.411  1.00  0.00    -0.318 A  
HETATM   18  C   UNL     1     -11.050   8.981  69.791  1.00  0.00    -0.104 A  
HETATM   19  C   UNL     1     -11.471   8.965  71.117  1.00  0.00    -0.364 A  
ENDBRANCH  13  14
ENDBRANCH   5  13
BRANCH   7  20
HETATM   20  N   UNL     1      -8.687  15.769  67.976  1.00  0.00    -0.170 N  
HETATM   21  H   UNL     1      -8.014  16.340  68.487  1.00  0.00     0.000 HD 
HETATM   22  O   UNL     1     -10.866  14.953  68.004  1.00  0.00    -0.251 OA 
HETATM   23  C   UNL     1      -9.991  15.698  68.435  1.00  0.00    -0.210 C  
BRANCH  23  24
HETATM   24  C   UNL     1     -10.412  16.621  69.557  1.00  0.00    -0.281 C  
BRANCH  24  25
HETATM   25  N   UNL     1      -9.859  17.760  69.869  1.00  0.00     0.635 NA 
HETATM   26  H   UNL     1      -9.051  17.815  70.489  1.00  0.00     0.000 HD 
BRANCH  25  27
HETATM   27  O   UNL     1     -10.437  18.902  69.303  1.00  0.00     0.016 OA 
HETATM   28  C   UNL     1     -10.205  20.715  67.764  1.00  0.00    -0.193 C  
HETATM   29  C   UNL     1      -9.878  18.351  67.015  1.00  0.00    -0.335 C  
HETATM   30  O   UNL     1      -7.588  18.666  69.306  1.00  0.00    -0.162 OA 
HETATM   31  O   UNL     1      -7.420  20.287  67.764  1.00  0.00    -0.290 OA 
HETATM   32  C   UNL     1      -9.653  19.338  68.169  1.00  0.00    -0.353 C  
HETATM   33  C   UNL     1      -8.125  19.504  68.387  1.00  0.00    -0.342 C  
ENDBRANCH  25  27
ENDBRANCH  24  25
BRANCH  24  34
HETATM   34  C   UNL     1     -11.472  16.175  70.467  1.00  0.00    -0.343 A  
HETATM   35  H2  UNL     1     -13.349  15.523  74.238  1.00  0.00     0.000 HD 
HETATM   36  C   UNL     1     -12.535  15.361  70.117  1.00  0.00    -0.335 A  
HETATM   37  S   UNL     1     -13.472  14.988  71.500  1.00  0.00    -0.476 SA 
HETATM   38  H1  UNL     1     -11.938  16.570  74.370  1.00  0.00     0.000 HD 
HETATM   39  N   UNL     1     -12.572  16.015  73.795  1.00  0.00    -0.561 NA 
HETATM   40  N   UNL     1     -11.437  16.516  71.820  1.00  0.00    -0.216 NA 
HETATM   41  C   UNL     1     -12.405  15.920  72.467  1.00  0.00    -0.483 A  
ENDBRANCH  24  34
ENDBRANCH  23  24
ENDBRANCH   7  20
TORSDOF 7
ENDMDL
MODEL      187
REMARK 921   NORMALIZED FREE ENERGY PREDICTED BY IDOCK:   -3.37 KCAL/MOL
REMARK 922        TOTAL FREE ENERGY PREDICTED BY IDOCK:   -6.29 KCAL/MOL
REMARK 923 INTER-LIGAND FREE ENERGY PREDICTED BY IDOCK:   -5.65 KCAL/MOL
REMARK 924 INTRA-LIGAND FREE ENERGY PREDICTED BY IDOCK:   -0.64 KCAL/MOL
REMARK 927      BINDING AFFINITY PREDICTED BY RF-SCORE:    0.00 PKD
ROOT
HETATM    1  O   UNL     1      -6.168   9.783  65.163  1.00  0.00    -0.079 OA 
HETATM    2  C   UNL     1      -6.462  10.690  65.973  1.00  0.00    -0.129 C  
HETATM    3  CA  UNL     1      -7.812  10.513  66.797  1.00  0.00    -0.121 C  
HETATM    4  OXT UNL     1      -5.833  11.762  66.233  1.00  0.00    -0.192 OA 
HETATM    5  C   UNL     1      -8.033  11.262  67.907  1.00  0.00    -0.118 C  
HETATM    6  C   UNL     1      -9.236  11.172  68.809  1.00  0.00    -0.145 C  
HETATM    7  CA  UNL     1     -10.151   8.062  66.580  1.00  0.00    -0.200 C  
HETATM    8  S   UNL     1     -10.675  10.236  68.321  1.00  0.00    -0.255 SA 
HETATM    9  N   UNL     1      -8.727   9.552  66.477  1.00  0.00    -0.133 N  
HETATM   10  O   UNL     1      -7.886   7.501  65.579  1.00  0.00    -0.099 OA 
HETATM   11  C   UNL     1     -10.146   9.617  66.721  1.00  0.00    -0.236 C  
HETATM   12  C   UNL     1      -8.708   8.278  66.000  1.00  0.00    -0.155 C  
ENDROOT
BRANCH   5  13
HETATM   13  C   UNL     1      -7.024  12.255  68.455  1.00  0.00    -0.092 C  
BRANCH  13  14
HETATM   14  N   UNL     1      -7.401  13.701  68.401  1.00  0.00    -0.109 NA 
HETATM   15  C   UNL     1      -7.694  15.832  69.436  1.00  0.00    -0.213 A  
HETATM   16  C   UNL     1      -8.542  16.226  68.410  1.00  0.00    -0.200 A  
HETATM   17  C   UNL     1      -7.118  14.562  69.407  1.00  0.00    -0.140 A  
HETATM   18  C   UNL     1      -8.150  14.111  67.350  1.00  0.00    -0.189 A  
HETATM   19  C   UNL     1      -8.753  15.365  67.344  1.00  0.00    -0.194 A  
ENDBRANCH  13  14
ENDBRANCH   5  13
BRANCH   7  20
HETATM   20  N   UNL     1     -10.193   7.199  67.828  1.00  0.00    -0.171 N  
HETATM   21  H   UNL     1     -11.052   6.696  68.051  1.00  0.00     0.000 HD 
HETATM   22  O   UNL     1      -8.061   7.715  68.603  1.00  0.00    -0.124 OA 
HETATM   23  C   UNL     1      -9.104   7.071  68.673  1.00  0.00    -0.132 C  
BRANCH  23  24
HETATM   24  C   UNL     1      -9.167   6.044  69.780  1.00  0.00    -0.143 C  
BRANCH  24  25
HETATM   25  N   UNL     1      -9.101   6.282  71.060  1.00  0.00    -0.153 NA 
HETATM   26  H   UNL     1      -9.924   6.546  71.603  1.00  0.00     0.000 HD 
BRANCH  25  27
HETATM   27  O   UNL     1      -7.837   6.156  71.647  1.00  0.00    -0.100 OA 
HETATM   28  C   UNL     1      -6.413   6.713  73.483  1.00  0.00    -0.064 C  
HETATM   29  C   UNL     1      -8.648   5.661  73.872  1.00  0.00    -0.118 C  
HETATM   30  O   UNL     1      -9.447   8.416  72.334  1.00  0.00    -0.252 OA 
HETATM   31  O   UNL     1      -8.159   8.831  74.124  1.00  0.00    -0.355 OA 
HETATM   32  C   UNL     1      -7.872   6.660  73.002  1.00  0.00    -0.099 C  
HETATM   33  C   UNL     1      -8.477   8.074  73.215  1.00  0.00    -0.224 C  
ENDBRANCH  25  27
ENDBRANCH  24  25
BRANCH  24  34
HETATM   34  C   UNL     1      -9.199   4.624  69.414  1.00  0.00    -0.119 A  
HETATM   35  H2  UNL     1      -9.307   1.287  66.763  1.00  0.00     0.000 HD 
HETATM   36  C   UNL     1      -9.461   3.580  70.283  1.00  0.00    -0.183 A  
HETATM   37  S   UNL     1      -9.518   2.099  69.427  1.00  0.00     0.014 SA 
HETATM   38  H1  UNL     1      -8.963   2.795  65.920  1.00  0.00     0.000 HD 
HETATM   39  N   UNL     1      -9.152   2.295  66.789  1.00  0.00    -0.113 NA 
HETATM   40  N   UNL     1      -9.015   4.228  68.087  1.00  0.00    -0.115 NA 
HETATM   41  C   UNL     1      -9.201   2.939  67.965  1.00  0.00    -0.198 A  
ENDBRANCH  24  34
ENDBRANCH  23  24
ENDBRANCH   7  20
TORSDOF 7
ENDMDL
MODEL      188
REMARK 921   NORMALIZED FREE ENERGY PREDICTED BY IDOCK:   -3.15 KCAL/MOL
REMARK 922        TOTAL FREE ENERGY PREDICTED BY IDOCK:   -5.98 KCAL/MOL
REMARK 923 INTER-LIGAND FREE ENERGY PREDICTED BY IDOCK:   -6.88 KCAL/MOL
REMARK 924 INTRA-LIGAND FREE ENERGY PREDICTED BY IDOCK:    0.90 KCAL/MOL
REMARK 927      BINDING AFFINITY PREDICTED BY RF-SCORE:    0.00 PKD
ROOT
HETATM    1  O   UNL     1      -5.269  11.046  67.597  1.00  0.00    -0.039 OA 
HETATM    2  C   UNL     1      -5.794  10.526  66.588  1.00  0.00    -0.066 C  
HETATM    3  CA  UNL     1      -7.356  10.230  66.658  1.00  0.00    -0.109 C  
HETATM    4  OXT UNL     1      -5.249  10.181  65.493  1.00  0.00    -0.049 OA 
HETATM    5  C   UNL     1      -8.052   9.982  65.519  1.00  0.00    -0.137 C  
HETATM    6  C   UNL     1      -9.534   9.732  65.426  1.00  0.00    -0.269 C  
HETATM    7  CA  UNL     1      -9.507  10.667  69.247  1.00  0.00    -0.133 C  
HETATM    8  S   UNL     1     -10.505   9.443  66.894  1.00  0.00    -0.173 SA 
HETATM    9  N   UNL     1      -8.050  10.312  67.830  1.00  0.00    -0.102 N  
HETATM   10  O   UNL     1      -7.320  11.946  69.416  1.00  0.00     0.018 OA 
HETATM   11  C   UNL     1      -9.243   9.575  68.164  1.00  0.00    -0.129 C  
HETATM   12  C   UNL     1      -8.021  11.080  68.952  1.00  0.00    -0.138 C  
ENDROOT
BRANCH   5  13
HETATM   13  C   UNL     1      -7.425  10.016  64.137  1.00  0.00    -0.132 C  
BRANCH  13  14
HETATM   14  N   UNL     1      -7.139   8.697  63.492  1.00  0.00    -0.089 NA 
HETATM   15  C   UNL     1      -7.676   6.411  63.065  1.00  0.00    -0.090 A  
HETATM   16  C   UNL     1      -6.361   6.159  62.698  1.00  0.00    -0.029 A  
HETATM   17  C   UNL     1      -8.051   7.699  63.449  1.00  0.00    -0.044 A  
HETATM   18  C   UNL     1      -5.878   8.482  63.045  1.00  0.00    -0.078 A  
HETATM   19  C   UNL     1      -5.459   7.212  62.665  1.00  0.00    -0.037 A  
ENDBRANCH  13  14
ENDBRANCH   5  13
BRANCH   7  20
HETATM   20  N   UNL     1     -10.520  11.764  68.970  1.00  0.00    -0.380 N  
HETATM   21  H   UNL     1     -11.508  11.577  69.142  1.00  0.00     0.000 HD 
HETATM   22  O   UNL     1      -9.023  13.327  68.118  1.00  0.00    -0.186 OA 
HETATM   23  C   UNL     1     -10.147  13.008  68.493  1.00  0.00    -0.192 C  
BRANCH  23  24
HETATM   24  C   UNL     1     -11.192  14.099  68.431  1.00  0.00    -0.265 C  
BRANCH  24  25
HETATM   25  N   UNL     1     -12.372  14.072  68.986  1.00  0.00    -0.501 NA 
HETATM   26  H   UNL     1     -13.006  13.283  68.865  1.00  0.00     0.000 HD 
BRANCH  25  27
HETATM   27  O   UNL     1     -12.717  15.188  69.757  1.00  0.00    -0.165 OA 
HETATM   28  C   UNL     1     -13.216  16.048  71.930  1.00  0.00    -0.144 C  
HETATM   29  C   UNL     1     -11.099  14.784  71.510  1.00  0.00     0.211 C  
HETATM   30  O   UNL     1     -13.373  12.585  70.741  1.00  0.00     0.277 OA 
HETATM   31  O   UNL     1     -13.708  13.413  72.800  1.00  0.00    -0.697 OA 
HETATM   32  C   UNL     1     -12.592  14.871  71.162  1.00  0.00    -0.335 C  
HETATM   33  C   UNL     1     -13.292  13.577  71.660  1.00  0.00    -0.340 C  
ENDBRANCH  25  27
ENDBRANCH  24  25
BRANCH  24  34
HETATM   34  C   UNL     1     -10.929  15.271  67.589  1.00  0.00    -0.311 A  
HETATM   35  H2  UNL     1     -10.724  17.487  63.953  1.00  0.00     0.000 HD 
HETATM   36  C   UNL     1     -10.226  16.397  67.982  1.00  0.00    -0.264 A  
HETATM   37  S   UNL     1     -10.048  17.472  66.662  1.00  0.00    -0.338 SA 
HETATM   38  H1  UNL     1     -11.603  15.972  63.760  1.00  0.00     0.000 HD 
HETATM   39  N   UNL     1     -11.094  16.625  64.356  1.00  0.00    -1.019 NA 
HETATM   40  N   UNL     1     -11.341  15.294  66.255  1.00  0.00    -0.226 NA 
HETATM   41  C   UNL     1     -10.903  16.374  65.660  1.00  0.00    -0.178 A  
ENDBRANCH  24  34
ENDBRANCH  23  24
ENDBRANCH   7  20
TORSDOF 7
ENDMDL
MODEL      189
REMARK 921   NORMALIZED FREE ENERGY PREDICTED BY IDOCK:   -3.15 KCAL/MOL
REMARK 922        TOTAL FREE ENERGY PREDICTED BY IDOCK:   -5.97 KCAL/MOL
REMARK 923 INTER-LIGAND FREE ENERGY PREDICTED BY IDOCK:   -7.07 KCAL/MOL
REMARK 924 INTRA-LIGAND FREE ENERGY PREDICTED BY IDOCK:    1.10 KCAL/MOL
REMARK 927      BINDING AFFINITY PREDICTED BY RF-SCORE:    0.00 PKD
ROOT
HETATM    1  O   UNL     1      -5.783  13.389  67.167  1.00  0.00    -0.302 OA 
HETATM    2  C   UNL     1      -6.741  14.083  67.572  1.00  0.00    -0.108 C  
HETATM    3  CA  UNL     1      -8.137  13.343  67.767  1.00  0.00    -0.173 C  
HETATM    4  OXT UNL     1      -6.770  15.323  67.846  1.00  0.00    -0.121 OA 
HETATM    5  C   UNL     1      -9.119  13.928  68.499  1.00  0.00    -0.143 C  
HETATM    6  C   UNL     1     -10.466  13.329  68.807  1.00  0.00    -0.169 C  
HETATM    7  CA  UNL     1      -8.968  10.121  67.093  1.00  0.00    -0.135 C  
HETATM    8  S   UNL     1     -11.029  11.862  67.963  1.00  0.00    -0.242 SA 
HETATM    9  N   UNL     1      -8.351  12.080  67.296  1.00  0.00    -0.169 N  
HETATM   10  O   UNL     1      -6.480  10.591  67.280  1.00  0.00    -0.067 OA 
HETATM   11  C   UNL     1      -9.622  11.526  66.900  1.00  0.00    -0.187 C  
HETATM   12  C   UNL     1      -7.628  10.938  67.145  1.00  0.00    -0.109 C  
ENDROOT
BRANCH   5  13
HETATM   13  C   UNL     1      -8.949  15.261  69.205  1.00  0.00    -0.233 C  
BRANCH  13  14
HETATM   14  N   UNL     1      -9.384  16.481  68.457  1.00  0.00    -0.221 NA 
HETATM   15  C   UNL     1     -10.334  17.537  66.539  1.00  0.00    -0.325 A  
HETATM   16  C   UNL     1      -9.742  18.741  66.896  1.00  0.00    -0.344 A  
HETATM   17  C   UNL     1     -10.153  16.414  67.346  1.00  0.00    -0.262 A  
HETATM   18  C   UNL     1      -8.882  17.672  68.862  1.00  0.00    -0.124 A  
HETATM   19  C   UNL     1      -9.028  18.815  68.082  1.00  0.00    -0.337 A  
ENDBRANCH  13  14
ENDBRANCH   5  13
BRANCH   7  20
HETATM   20  N   UNL     1      -9.259   9.330  68.355  1.00  0.00    -0.132 N  
HETATM   21  H   UNL     1      -9.969   8.598  68.325  1.00  0.00     0.000 HD 
HETATM   22  O   UNL     1      -7.820  10.496  69.761  1.00  0.00    -0.139 OA 
HETATM   23  C   UNL     1      -8.593   9.569  69.545  1.00  0.00    -0.169 C  
BRANCH  23  24
HETATM   24  C   UNL     1      -8.804   8.609  70.694  1.00  0.00    -0.167 C  
BRANCH  24  25
HETATM   25  N   UNL     1      -9.767   8.654  71.572  1.00  0.00    -0.235 NA 
HETATM   26  H   UNL     1     -10.215   9.532  71.837  1.00  0.00     0.000 HD 
BRANCH  25  27
HETATM   27  O   UNL     1     -10.152   7.429  72.128  1.00  0.00    -0.184 OA 
HETATM   28  C   UNL     1     -11.928   5.886  72.548  1.00  0.00    -0.173 C  
HETATM   29  C   UNL     1     -11.460   6.698  70.229  1.00  0.00    -0.449 C  
HETATM   30  O   UNL     1     -12.129   9.468  71.801  1.00  0.00    -0.370 OA 
HETATM   31  O   UNL     1     -13.772   7.964  72.073  1.00  0.00    -0.302 OA 
HETATM   32  C   UNL     1     -11.497   7.101  71.710  1.00  0.00    -0.267 C  
HETATM   33  C   UNL     1     -12.583   8.196  71.897  1.00  0.00    -0.335 C  
ENDBRANCH  25  27
ENDBRANCH  24  25
BRANCH  24  34
HETATM   34  C   UNL     1      -7.789   7.579  70.938  1.00  0.00    -0.094 A  
HETATM   35  H2  UNL     1      -5.572   4.766  73.250  1.00  0.00     0.000 HD 
HETATM   36  C   UNL     1      -6.757   7.253  70.075  1.00  0.00    -0.051 A  
HETATM   37  S   UNL     1      -5.733   6.085  70.794  1.00  0.00    -0.018 SA 
HETATM   38  H1  UNL     1      -6.993   5.357  74.106  1.00  0.00     0.000 HD 
HETATM   39  N   UNL     1      -6.408   5.351  73.271  1.00  0.00    -0.055 NA 
HETATM   40  N   UNL     1      -7.767   6.873  72.143  1.00  0.00    -0.093 NA 
HETATM   41  C   UNL     1      -6.717   6.096  72.199  1.00  0.00    -0.068 A  
ENDBRANCH  24  34
ENDBRANCH  23  24
ENDBRANCH   7  20
TORSDOF 7
ENDMDL
MODEL      190
REMARK 921   NORMALIZED FREE ENERGY PREDICTED BY IDOCK:   -3.12 KCAL/MOL
REMARK 922        TOTAL FREE ENERGY PREDICTED BY IDOCK:   -5.93 KCAL/MOL
REMARK 923 INTER-LIGAND FREE ENERGY PREDICTED BY IDOCK:   -5.25 KCAL/MOL
REMARK 924 INTRA-LIGAND FREE ENERGY PREDICTED BY IDOCK:   -0.68 KCAL/MOL
REMARK 927      BINDING AFFINITY PREDICTED BY RF-SCORE:    0.00 PKD
ROOT
HETATM    1  O   UNL     1     -10.431   5.564  69.912  1.00  0.00    -0.269 OA 
HETATM    2  C   UNL     1      -9.674   5.395  68.930  1.00  0.00    -0.151 C  
HETATM    3  CA  UNL     1      -9.571   6.591  67.885  1.00  0.00    -0.118 C  
HETATM    4  OXT UNL     1      -8.968   4.383  68.631  1.00  0.00    -0.103 OA 
HETATM    5  C   UNL     1      -8.549   6.626  66.992  1.00  0.00    -0.113 C  
HETATM    6  C   UNL     1      -8.297   7.713  65.980  1.00  0.00    -0.135 C  
HETATM    7  CA  UNL     1     -11.246   9.543  67.832  1.00  0.00     0.179 C  
HETATM    8  S   UNL     1      -9.531   8.960  65.653  1.00  0.00    -0.078 SA 
HETATM    9  N   UNL     1     -10.433   7.649  67.917  1.00  0.00    -0.218 N  
HETATM   10  O   UNL     1     -11.245   8.329  70.061  1.00  0.00    -0.203 OA 
HETATM   11  C   UNL     1     -10.825   8.458  66.791  1.00  0.00     0.206 C  
HETATM   12  C   UNL     1     -11.086   8.372  68.865  1.00  0.00     0.296 C  
ENDROOT
BRANCH   5  13
HETATM   13  C   UNL     1      -7.439   5.591  66.957  1.00  0.00    -0.088 C  
BRANCH  13  14
HETATM   14  N   UNL     1      -7.416   4.664  65.785  1.00  0.00    -0.080 NA 
HETATM   15  C   UNL     1      -6.249   3.443  64.098  1.00  0.00    -0.023 A  
HETATM   16  C   UNL     1      -7.413   3.345  63.348  1.00  0.00    -0.058 A  
HETATM   17  C   UNL     1      -6.274   4.100  65.329  1.00  0.00    -0.027 A  
HETATM   18  C   UNL     1      -8.575   4.489  65.105  1.00  0.00    -0.131 A  
HETATM   19  C   UNL     1      -8.593   3.853  63.869  1.00  0.00    -0.096 A  
ENDBRANCH  13  14
ENDBRANCH   5  13
BRANCH   7  20
HETATM   20  N   UNL     1     -10.330  10.726  68.090  1.00  0.00    -0.164 N  
HETATM   21  H   UNL     1      -9.348  10.551  68.304  1.00  0.00     0.000 HD 
HETATM   22  O   UNL     1     -11.953  12.384  67.931  1.00  0.00    -0.404 OA 
HETATM   23  C   UNL     1     -10.782  12.033  68.044  1.00  0.00    -0.212 C  
BRANCH  23  24
HETATM   24  C   UNL     1      -9.767  13.151  68.119  1.00  0.00    -0.228 C  
BRANCH  24  25
HETATM   25  N   UNL     1      -8.680  13.160  68.839  1.00  0.00    -0.360 NA 
HETATM   26  H   UNL     1      -8.707  13.233  69.856  1.00  0.00     0.000 HD 
BRANCH  25  27
HETATM   27  O   UNL     1      -7.473  13.064  68.135  1.00  0.00    -0.106 OA 
HETATM   28  C   UNL     1      -5.165  13.669  68.020  1.00  0.00    -0.108 C  
HETATM   29  C   UNL     1      -6.101  12.580  70.068  1.00  0.00    -0.117 C  
HETATM   30  O   UNL     1      -7.875  15.301  69.869  1.00  0.00    -0.152 OA 
HETATM   31  O   UNL     1      -5.679  15.760  69.838  1.00  0.00    -0.131 OA 
HETATM   32  C   UNL     1      -6.392  13.582  68.943  1.00  0.00    -0.098 C  
HETATM   33  C   UNL     1      -6.591  14.988  69.573  1.00  0.00    -0.155 C  
ENDBRANCH  25  27
ENDBRANCH  24  25
BRANCH  24  34
HETATM   34  C   UNL     1     -10.053  14.402  67.409  1.00  0.00    -0.243 A  
HETATM   35  H2  UNL     1     -10.928  16.853  64.033  1.00  0.00     0.000 HD 
HETATM   36  C   UNL     1      -9.880  15.673  67.929  1.00  0.00    -0.217 A  
HETATM   37  S   UNL     1     -10.218  16.850  66.734  1.00  0.00    -0.302 SA 
HETATM   38  H1  UNL     1     -11.089  15.137  63.669  1.00  0.00     0.000 HD 
HETATM   39  N   UNL     1     -10.885  15.880  64.338  1.00  0.00    -0.387 NA 
HETATM   40  N   UNL     1     -10.481  14.384  66.081  1.00  0.00    -0.284 NA 
HETATM   41  C   UNL     1     -10.561  15.602  65.609  1.00  0.00    -0.378 A  
ENDBRANCH  24  34
ENDBRANCH  23  24
ENDBRANCH   7  20
TORSDOF 7
ENDMDL
MODEL      191
REMARK 921   NORMALIZED FREE ENERGY PREDICTED BY IDOCK:   -3.07 KCAL/MOL
REMARK 922        TOTAL FREE ENERGY PREDICTED BY IDOCK:   -5.86 KCAL/MOL
REMARK 923 INTER-LIGAND FREE ENERGY PREDICTED BY IDOCK:   -6.37 KCAL/MOL
REMARK 924 INTRA-LIGAND FREE ENERGY PREDICTED BY IDOCK:    0.51 KCAL/MOL
REMARK 927      BINDING AFFINITY PREDICTED BY RF-SCORE:    0.00 PKD
ROOT
HETATM    1  O   UNL     1     -10.772   7.941  66.351  1.00  0.00     0.111 OA 
HETATM    2  C   UNL     1     -10.230   7.654  67.441  1.00  0.00    -0.251 C  
HETATM    3  CA  UNL     1      -9.142   8.674  67.998  1.00  0.00    -0.140 C  
HETATM    4  OXT UNL     1     -10.416   6.639  68.183  1.00  0.00    -0.176 OA 
HETATM    5  C   UNL     1      -8.757   8.614  69.298  1.00  0.00    -0.133 C  
HETATM    6  C   UNL     1      -7.778   9.538  69.972  1.00  0.00    -0.142 C  
HETATM    7  CA  UNL     1      -7.929  11.505  66.569  1.00  0.00    -0.095 C  
HETATM    8  S   UNL     1      -6.776  10.663  69.017  1.00  0.00    -0.074 SA 
HETATM    9  N   UNL     1      -8.645   9.684  67.226  1.00  0.00    -0.131 N  
HETATM   10  O   UNL     1     -10.125  10.656  65.617  1.00  0.00    -0.249 OA 
HETATM   11  C   UNL     1      -7.344  10.289  67.355  1.00  0.00    -0.093 C  
HETATM   12  C   UNL     1      -9.111  10.518  66.258  1.00  0.00    -0.164 C  
ENDROOT
BRANCH   5  13
HETATM   13  C   UNL     1      -9.350   7.636  70.297  1.00  0.00    -0.157 C  
BRANCH  13  14
HETATM   14  N   UNL     1     -10.638   8.030  70.945  1.00  0.00    -0.211 NA 
HETATM   15  C   UNL     1     -12.579   9.413  71.084  1.00  0.00    -0.357 A  
HETATM   16  C   UNL     1     -12.754   9.051  72.413  1.00  0.00    -0.433 A  
HETATM   17  C   UNL     1     -11.515   8.878  70.357  1.00  0.00    -0.157 A  
HETATM   18  C   UNL     1     -10.858   7.598  72.210  1.00  0.00    -0.267 A  
HETATM   19  C   UNL     1     -11.899   8.116  72.973  1.00  0.00     0.086 A  
ENDBRANCH  13  14
ENDBRANCH   5  13
BRANCH   7  20
HETATM   20  N   UNL     1      -8.348  12.752  67.326  1.00  0.00    -0.185 N  
HETATM   21  H   UNL     1      -9.334  12.885  67.549  1.00  0.00     0.000 HD 
HETATM   22  O   UNL     1      -6.250  13.752  67.409  1.00  0.00    -0.332 OA 
HETATM   23  C   UNL     1      -7.436  13.714  67.722  1.00  0.00    -0.168 C  
BRANCH  23  24
HETATM   24  C   UNL     1      -7.908  14.822  68.637  1.00  0.00    -0.140 C  
BRANCH  24  25
HETATM   25  N   UNL     1      -9.056  15.437  68.578  1.00  0.00    -0.189 NA 
HETATM   26  H   UNL     1      -9.890  14.987  68.198  1.00  0.00     0.000 HD 
BRANCH  25  27
HETATM   27  O   UNL     1      -9.079  16.749  69.065  1.00  0.00    -0.256 OA 
HETATM   28  C   UNL     1      -9.558  19.046  68.617  1.00  0.00    -0.458 C  
HETATM   29  C   UNL     1     -11.287  17.280  68.233  1.00  0.00     0.289 C  
HETATM   30  O   UNL     1      -8.892  16.337  66.242  1.00  0.00    -0.279 OA 
HETATM   31  O   UNL     1      -9.471  18.470  65.859  1.00  0.00    -0.488 OA 
HETATM   32  C   UNL     1      -9.789  17.603  68.139  1.00  0.00    -0.318 C  
HETATM   33  C   UNL     1      -9.362  17.540  66.648  1.00  0.00    -0.262 C  
ENDBRANCH  25  27
ENDBRANCH  24  25
BRANCH  24  34
HETATM   34  C   UNL     1      -6.970  15.353  69.632  1.00  0.00    -0.184 A  
HETATM   35  H2  UNL     1      -4.605  18.334  71.555  1.00  0.00     0.000 HD 
HETATM   36  C   UNL     1      -6.178  14.589  70.472  1.00  0.00    -0.165 A  
HETATM   37  S   UNL     1      -5.147  15.599  71.391  1.00  0.00    -0.062 SA 
HETATM   38  H1  UNL     1      -5.751  19.029  70.412  1.00  0.00     0.000 HD 
HETATM   39  N   UNL     1      -5.357  18.210  70.876  1.00  0.00    -0.263 NA 
HETATM   40  N   UNL     1      -6.766  16.729  69.754  1.00  0.00    -0.090 NA 
HETATM   41  C   UNL     1      -5.808  16.975  70.610  1.00  0.00     0.213 A  
ENDBRANCH  24  34
ENDBRANCH  23  24
ENDBRANCH   7  20
TORSDOF 7
ENDMDL
MODEL      192
REMARK 921   NORMALIZED FREE ENERGY PREDICTED BY IDOCK:   -2.99 KCAL/MOL
REMARK 922        TOTAL FREE ENERGY PREDICTED BY IDOCK:   -5.75 KCAL/MOL
REMARK 923 INTER-LIGAND FREE ENERGY PREDICTED BY IDOCK:   -5.05 KCAL/MOL
REMARK 924 INTRA-LIGAND FREE ENERGY PREDICTED BY IDOCK:   -0.70 KCAL/MOL
REMARK 927      BINDING AFFINITY PREDICTED BY RF-SCORE:    0.00 PKD
ROOT
HETATM    1  O   UNL     1      -6.930   6.047  70.866  1.00  0.00    -0.063 OA 
HETATM    2  C   UNL     1      -7.099   5.500  69.753  1.00  0.00    -0.063 C  
HETATM    3  CA  UNL     1      -8.282   6.057  68.846  1.00  0.00    -0.104 C  
HETATM    4  OXT UNL     1      -6.456   4.536  69.232  1.00  0.00    -0.034 OA 
HETATM    5  C   UNL     1      -8.324   5.755  67.524  1.00  0.00    -0.104 C  
HETATM    6  C   UNL     1      -9.352   6.246  66.538  1.00  0.00    -0.151 C  
HETATM    7  CA  UNL     1     -10.572   8.463  69.549  1.00  0.00    -0.213 C  
HETATM    8  S   UNL     1     -10.833   7.069  67.095  1.00  0.00    -0.303 SA 
HETATM    9  N   UNL     1      -9.219   6.919  69.339  1.00  0.00    -0.147 N  
HETATM   10  O   UNL     1      -8.502   8.462  71.020  1.00  0.00    -0.120 OA 
HETATM   11  C   UNL     1     -10.576   7.056  68.872  1.00  0.00    -0.215 C  
HETATM   12  C   UNL     1      -9.256   7.945  70.231  1.00  0.00    -0.152 C  
ENDROOT
BRANCH   5  13
HETATM   13  C   UNL     1      -7.257   4.934  66.823  1.00  0.00    -0.080 C  
BRANCH  13  14
HETATM   14  N   UNL     1      -6.674   5.509  65.572  1.00  0.00    -0.041 NA 
HETATM   15  C   UNL     1      -5.968   5.306  63.301  1.00  0.00    -0.021 A  
HETATM   16  C   UNL     1      -5.171   6.435  63.436  1.00  0.00    -0.018 A  
HETATM   17  C   UNL     1      -6.728   4.863  64.384  1.00  0.00    -0.044 A  
HETATM   18  C   UNL     1      -5.975   6.664  65.684  1.00  0.00    -0.034 A  
HETATM   19  C   UNL     1      -5.194   7.134  64.633  1.00  0.00    -0.028 A  
ENDBRANCH  13  14
ENDBRANCH   5  13
BRANCH   7  20
HETATM   20  N   UNL     1     -10.380   9.702  68.695  1.00  0.00    -0.196 N  
HETATM   21  H   UNL     1     -11.181  10.311  68.523  1.00  0.00     0.000 HD 
HETATM   22  O   UNL     1      -8.149   9.332  68.153  1.00  0.00    -0.106 OA 
HETATM   23  C   UNL     1      -9.156  10.034  68.142  1.00  0.00    -0.121 C  
BRANCH  23  24
HETATM   24  C   UNL     1      -9.008  11.381  67.471  1.00  0.00    -0.150 C  
BRANCH  24  25
HETATM   25  N   UNL     1      -8.372  11.626  66.360  1.00  0.00    -0.326 NA 
HETATM   26  H   UNL     1      -7.360  11.522  66.284  1.00  0.00     0.000 HD 
BRANCH  25  27
HETATM   27  O   UNL     1      -9.157  12.038  65.277  1.00  0.00     0.060 OA 
HETATM   28  C   UNL     1      -9.903  11.585  63.053  1.00  0.00    -0.367 C  
HETATM   29  C   UNL     1     -10.153   9.874  64.859  1.00  0.00    -0.055 C  
HETATM   30  O   UNL     1      -6.930  10.317  64.778  1.00  0.00    -0.138 OA 
HETATM   31  O   UNL     1      -7.731   9.816  62.743  1.00  0.00    -0.117 OA 
HETATM   32  C   UNL     1      -9.242  10.975  64.301  1.00  0.00    -0.152 C  
HETATM   33  C   UNL     1      -7.907  10.328  63.841  1.00  0.00    -0.115 C  
ENDBRANCH  25  27
ENDBRANCH  24  25
BRANCH  24  34
HETATM   34  C   UNL     1      -9.528  12.565  68.163  1.00  0.00    -0.214 A  
HETATM   35  H2  UNL     1     -12.507  15.042  69.944  1.00  0.00     0.000 HD 
HETATM   36  C   UNL     1      -8.839  13.751  68.345  1.00  0.00    -0.165 A  
HETATM   37  S   UNL     1      -9.849  14.912  69.096  1.00  0.00    -0.163 SA 
HETATM   38  H1  UNL     1     -13.105  13.420  69.607  1.00  0.00     0.000 HD 
HETATM   39  N   UNL     1     -12.343  14.098  69.592  1.00  0.00    -0.309 NA 
HETATM   40  N   UNL     1     -10.837  12.587  68.650  1.00  0.00    -0.242 NA 
HETATM   41  C   UNL     1     -11.130  13.772  69.120  1.00  0.00    -0.240 A  
ENDBRANCH  24  34
ENDBRANCH  23  24
ENDBRANCH   7  20
TORSDOF 7
ENDMDL
MODEL      193
REMARK 921   NORMALIZED FREE ENERGY PREDICTED BY IDOCK:   -2.94 KCAL/MOL
REMARK 922        TOTAL FREE ENERGY PREDICTED BY IDOCK:   -5.68 KCAL/MOL
REMARK 923 INTER-LIGAND FREE ENERGY PREDICTED BY IDOCK:   -5.85 KCAL/MOL
REMARK 924 INTRA-LIGAND FREE ENERGY PREDICTED BY IDOCK:    0.18 KCAL/MOL
REMARK 927      BINDING AFFINITY PREDICTED BY RF-SCORE:    0.00 PKD
ROOT
HETATM    1  O   UNL     1     -11.498   8.383  72.692  1.00  0.00    -0.380 OA 
HETATM    2  C   UNL     1     -10.389   7.817  72.809  1.00  0.00    -0.313 C  
HETATM    3  CA  UNL     1      -9.616   7.457  71.464  1.00  0.00    -0.151 C  
HETATM    4  OXT UNL     1      -9.777   7.470  73.867  1.00  0.00    -0.281 OA 
HETATM    5  C   UNL     1      -8.294   7.153  71.501  1.00  0.00    -0.111 C  
HETATM    6  C   UNL     1      -7.426   6.839  70.311  1.00  0.00    -0.090 C  
HETATM    7  CA  UNL     1     -10.613   7.863  68.245  1.00  0.00    -0.109 C  
HETATM    8  S   UNL     1      -8.148   6.543  68.707  1.00  0.00    -0.119 SA 
HETATM    9  N   UNL     1     -10.224   7.536  70.244  1.00  0.00    -0.202 N  
HETATM   10  O   UNL     1     -11.882   9.237  69.962  1.00  0.00    -0.006 OA 
HETATM   11  C   UNL     1      -9.892   6.757  69.078  1.00  0.00    -0.149 C  
HETATM   12  C   UNL     1     -11.150   8.331  69.644  1.00  0.00    -0.001 C  
ENDROOT
BRANCH   5  13
HETATM   13  C   UNL     1      -7.469   7.182  72.776  1.00  0.00    -0.079 C  
BRANCH  13  14
HETATM   14  N   UNL     1      -6.797   5.907  73.174  1.00  0.00    -0.078 NA 
HETATM   15  C   UNL     1      -5.244   4.139  72.771  1.00  0.00     0.000 A  
HETATM   16  C   UNL     1      -5.914   3.330  73.679  1.00  0.00    -0.004 A  
HETATM   17  C   UNL     1      -5.697   5.439  72.541  1.00  0.00    -0.022 A  
HETATM   18  C   UNL     1      -7.398   5.158  74.130  1.00  0.00    -0.083 A  
HETATM   19  C   UNL     1      -6.987   3.853  74.383  1.00  0.00    -0.059 A  
ENDBRANCH  13  14
ENDBRANCH   5  13
BRANCH   7  20
HETATM   20  N   UNL     1      -9.787   8.908  67.517  1.00  0.00    -0.173 N  
HETATM   21  H   UNL     1      -9.619   8.795  66.518  1.00  0.00     0.000 HD 
HETATM   22  O   UNL     1      -9.263  10.202  69.378  1.00  0.00    -0.197 OA 
HETATM   23  C   UNL     1      -9.255  10.009  68.166  1.00  0.00    -0.128 C  
BRANCH  23  24
HETATM   24  C   UNL     1      -8.615  11.097  67.334  1.00  0.00    -0.137 C  
BRANCH  24  25
HETATM   25  N   UNL     1      -8.831  12.378  67.438  1.00  0.00    -0.179 NA 
HETATM   26  H   UNL     1      -8.379  13.054  66.822  1.00  0.00     0.000 HD 
BRANCH  25  27
HETATM   27  O   UNL     1      -9.719  12.774  68.446  1.00  0.00    -0.223 OA 
HETATM   28  C   UNL     1     -11.503  14.226  69.090  1.00  0.00    -0.330 C  
HETATM   29  C   UNL     1     -11.686  12.807  67.039  1.00  0.00    -0.440 C  
HETATM   30  O   UNL     1      -9.078  14.636  66.374  1.00  0.00    -0.264 OA 
HETATM   31  O   UNL     1     -10.841  15.909  66.928  1.00  0.00    -0.314 OA 
HETATM   32  C   UNL     1     -10.729  13.648  67.894  1.00  0.00    -0.247 C  
HETATM   33  C   UNL     1     -10.235  14.851  67.044  1.00  0.00    -0.256 C  
ENDBRANCH  25  27
ENDBRANCH  24  25
BRANCH  24  34
HETATM   34  C   UNL     1      -7.742  10.702  66.223  1.00  0.00    -0.143 A  
HETATM   35  H2  UNL     1      -6.617   8.518  62.739  1.00  0.00     0.000 HD 
HETATM   36  C   UNL     1      -6.401  11.026  66.106  1.00  0.00    -0.096 A  
HETATM   37  S   UNL     1      -5.731  10.272  64.724  1.00  0.00    -0.134 SA 
HETATM   38  H1  UNL     1      -8.321   8.310  63.133  1.00  0.00     0.000 HD 
HETATM   39  N   UNL     1      -7.415   8.732  63.338  1.00  0.00    -0.104 NA 
HETATM   40  N   UNL     1      -8.222   9.887  65.196  1.00  0.00    -0.137 NA 
HETATM   41  C   UNL     1      -7.253   9.562  64.379  1.00  0.00    -0.111 A  
ENDBRANCH  24  34
ENDBRANCH  23  24
ENDBRANCH   7  20
TORSDOF 7
ENDMDL
MODEL      194
REMARK 921   NORMALIZED FREE ENERGY PREDICTED BY IDOCK:   -2.93 KCAL/MOL
REMARK 922        TOTAL FREE ENERGY PREDICTED BY IDOCK:   -5.67 KCAL/MOL
REMARK 923 INTER-LIGAND FREE ENERGY PREDICTED BY IDOCK:   -5.42 KCAL/MOL
REMARK 924 INTRA-LIGAND FREE ENERGY PREDICTED BY IDOCK:   -0.25 KCAL/MOL
REMARK 927      BINDING AFFINITY PREDICTED BY RF-SCORE:    0.00 PKD
ROOT
HETATM    1  O   UNL     1     -10.977   8.299  67.150  1.00  0.00    -0.142 OA 
HETATM    2  C   UNL     1     -10.052   7.880  67.881  1.00  0.00    -0.191 C  
HETATM    3  CA  UNL     1      -8.855   8.886  68.177  1.00  0.00    -0.134 C  
HETATM    4  OXT UNL     1      -9.919   6.740  68.425  1.00  0.00    -0.144 OA 
HETATM    5  C   UNL     1      -7.999   8.639  69.201  1.00  0.00    -0.110 C  
HETATM    6  C   UNL     1      -6.854   9.520  69.627  1.00  0.00    -0.063 C  
HETATM    7  CA  UNL     1      -8.341  12.020  66.979  1.00  0.00    -0.178 C  
HETATM    8  S   UNL     1      -6.319  10.880  68.605  1.00  0.00    -0.051 SA 
HETATM    9  N   UNL     1      -8.713  10.056  67.488  1.00  0.00    -0.125 N  
HETATM   10  O   UNL     1     -10.716  11.148  66.771  1.00  0.00    -0.256 OA 
HETATM   11  C   UNL     1      -7.474  10.748  67.237  1.00  0.00    -0.101 C  
HETATM   12  C   UNL     1      -9.531  10.997  66.946  1.00  0.00    -0.177 C  
ENDROOT
BRANCH   5  13
HETATM   13  C   UNL     1      -8.142   7.453  70.138  1.00  0.00    -0.131 C  
BRANCH  13  14
HETATM   14  N   UNL     1      -7.306   6.250  69.839  1.00  0.00    -0.077 NA 
HETATM   15  C   UNL     1      -6.643   3.997  70.268  1.00  0.00    -0.032 A  
HETATM   16  C   UNL     1      -5.445   4.211  69.599  1.00  0.00    -0.015 A  
HETATM   17  C   UNL     1      -7.573   5.033  70.366  1.00  0.00    -0.063 A  
HETATM   18  C   UNL     1      -6.183   6.438  69.104  1.00  0.00    -0.034 A  
HETATM   19  C   UNL     1      -5.224   5.437  68.990  1.00  0.00     0.000 A  
ENDBRANCH  13  14
ENDBRANCH   5  13
BRANCH   7  20
HETATM   20  N   UNL     1      -8.461  13.074  68.065  1.00  0.00    -0.172 N  
HETATM   21  H   UNL     1      -7.686  13.202  68.715  1.00  0.00     0.000 HD 
HETATM   22  O   UNL     1     -10.638  13.735  67.580  1.00  0.00    -0.239 OA 
HETATM   23  C   UNL     1      -9.588  13.868  68.200  1.00  0.00    -0.218 C  
BRANCH  23  24
HETATM   24  C   UNL     1      -9.545  15.019  69.179  1.00  0.00    -0.202 C  
BRANCH  24  25
HETATM   25  N   UNL     1      -8.611  15.924  69.267  1.00  0.00    -0.256 NA 
HETATM   26  H   UNL     1      -8.684  16.715  69.908  1.00  0.00     0.000 HD 
BRANCH  25  27
HETATM   27  O   UNL     1      -7.501  15.749  68.432  1.00  0.00    -0.117 OA 
HETATM   28  C   UNL     1      -5.492  16.688  67.542  1.00  0.00    -0.161 C  
HETATM   29  C   UNL     1      -5.871  16.583  70.012  1.00  0.00    -0.200 C  
HETATM   30  O   UNL     1      -8.373  18.409  69.014  1.00  0.00    -0.203 OA 
HETATM   31  O   UNL     1      -6.420  19.242  68.288  1.00  0.00    -0.226 OA 
HETATM   32  C   UNL     1      -6.548  16.812  68.654  1.00  0.00    -0.169 C  
HETATM   33  C   UNL     1      -7.088  18.268  68.611  1.00  0.00    -0.275 C  
ENDBRANCH  25  27
ENDBRANCH  24  25
BRANCH  24  34
HETATM   34  C   UNL     1     -10.583  15.095  70.212  1.00  0.00    -0.166 A  
HETATM   35  H2  UNL     1     -14.159  13.953  72.233  1.00  0.00     0.000 HD 
HETATM   36  C   UNL     1     -10.766  16.154  71.085  1.00  0.00     0.528 A  
HETATM   37  S   UNL     1     -12.158  15.893  72.046  1.00  0.00    -0.545 SA 
HETATM   38  H1  UNL     1     -13.656  12.756  71.044  1.00  0.00     0.000 HD 
HETATM   39  N   UNL     1     -13.495  13.642  71.523  1.00  0.00    -0.300 NA 
HETATM   40  N   UNL     1     -11.532  14.079  70.344  1.00  0.00    -0.123 NA 
HETATM   41  C   UNL     1     -12.429  14.404  71.239  1.00  0.00    -0.352 A  
ENDBRANCH  24  34
ENDBRANCH  23  24
ENDBRANCH   7  20
TORSDOF 7
ENDMDL
MODEL      195
REMARK 921   NORMALIZED FREE ENERGY PREDICTED BY IDOCK:   -2.91 KCAL/MOL
REMARK 922        TOTAL FREE ENERGY PREDICTED BY IDOCK:   -5.64 KCAL/MOL
REMARK 923 INTER-LIGAND FREE ENERGY PREDICTED BY IDOCK:   -6.54 KCAL/MOL
REMARK 924 INTRA-LIGAND FREE ENERGY PREDICTED BY IDOCK:    0.90 KCAL/MOL
REMARK 927      BINDING AFFINITY PREDICTED BY RF-SCORE:    0.00 PKD
ROOT
HETATM    1  O   UNL     1      -5.134  10.100  67.585  1.00  0.00    -0.034 OA 
HETATM    2  C   UNL     1      -5.780   9.411  66.764  1.00  0.00    -0.051 C  
HETATM    3  CA  UNL     1      -7.221   8.910  67.218  1.00  0.00    -0.083 C  
HETATM    4  OXT UNL     1      -5.443   9.032  65.600  1.00  0.00    -0.040 OA 
HETATM    5  C   UNL     1      -8.103   8.452  66.294  1.00  0.00    -0.105 C  
HETATM    6  C   UNL     1      -9.511   7.992  66.568  1.00  0.00    -0.214 C  
HETATM    7  CA  UNL     1      -8.789   9.312  70.202  1.00  0.00    -0.213 C  
HETATM    8  S   UNL     1     -10.075   7.724  68.239  1.00  0.00    -0.197 SA 
HETATM    9  N   UNL     1      -7.643   9.016  68.512  1.00  0.00    -0.092 N  
HETATM   10  O   UNL     1      -6.849  10.892  69.767  1.00  0.00    -0.129 OA 
HETATM   11  C   UNL     1      -8.601   8.160  69.165  1.00  0.00    -0.136 C  
HETATM   12  C   UNL     1      -7.489   9.893  69.540  1.00  0.00    -0.112 C  
ENDROOT
BRANCH   5  13
HETATM   13  C   UNL     1      -7.810   8.429  64.804  1.00  0.00    -0.128 C  
BRANCH  13  14
HETATM   14  N   UNL     1      -7.411   7.114  64.214  1.00  0.00    -0.079 NA 
HETATM   15  C   UNL     1      -6.962   5.706  62.340  1.00  0.00    -0.036 A  
HETATM   16  C   UNL     1      -7.142   4.579  63.130  1.00  0.00    -0.044 A  
HETATM   17  C   UNL     1      -7.089   6.974  62.907  1.00  0.00    -0.060 A  
HETATM   18  C   UNL     1      -7.493   6.022  65.012  1.00  0.00    -0.084 A  
HETATM   19  C   UNL     1      -7.385   4.739  64.485  1.00  0.00    -0.067 A  
ENDBRANCH  13  14
ENDBRANCH   5  13
BRANCH   7  20
HETATM   20  N   UNL     1      -9.998  10.223  70.095  1.00  0.00    -0.423 N  
HETATM   21  H   UNL     1     -10.752  10.125  70.776  1.00  0.00     0.000 HD 
HETATM   22  O   UNL     1      -9.354  11.323  68.149  1.00  0.00    -0.167 OA 
HETATM   23  C   UNL     1     -10.112  11.183  69.104  1.00  0.00    -0.112 C  
BRANCH  23  24
HETATM   24  C   UNL     1     -11.252  12.173  69.187  1.00  0.00    -0.244 C  
BRANCH  24  25
HETATM   25  N   UNL     1     -11.448  13.194  68.400  1.00  0.00    -0.292 NA 
HETATM   26  H   UNL     1     -12.384  13.534  68.181  1.00  0.00     0.000 HD 
BRANCH  25  27
HETATM   27  O   UNL     1     -10.299  13.796  67.873  1.00  0.00    -0.236 OA 
HETATM   28  C   UNL     1      -9.163  14.587  65.925  1.00  0.00    -0.003 C  
HETATM   29  C   UNL     1     -11.474  15.375  66.467  1.00  0.00    -0.015 C  
HETATM   30  O   UNL     1     -11.902  12.164  66.158  1.00  0.00    -0.543 OA 
HETATM   31  O   UNL     1     -10.899  13.026  64.346  1.00  0.00    -0.344 OA 
HETATM   32  C   UNL     1     -10.529  14.166  66.494  1.00  0.00    -0.280 C  
HETATM   33  C   UNL     1     -11.100  13.071  65.553  1.00  0.00    -0.275 C  
ENDBRANCH  25  27
ENDBRANCH  24  25
BRANCH  24  34
HETATM   34  C   UNL     1     -12.187  12.069  70.313  1.00  0.00    -0.266 A  
HETATM   35  H2  UNL     1     -14.357  13.444  73.714  1.00  0.00     0.000 HD 
HETATM   36  C   UNL     1     -12.698  10.887  70.820  1.00  0.00    -0.340 A  
HETATM   37  S   UNL     1     -13.656  11.203  72.202  1.00  0.00     0.302 SA 
HETATM   38  H1  UNL     1     -13.593  14.765  72.835  1.00  0.00     0.000 HD 
HETATM   39  N   UNL     1     -13.791  13.769  72.930  1.00  0.00    -0.563 NA 
HETATM   40  N   UNL     1     -12.588  13.209  71.012  1.00  0.00    -0.353 NA 
HETATM   41  C   UNL     1     -13.322  12.878  72.043  1.00  0.00    -0.482 A  
ENDBRANCH  24  34
ENDBRANCH  23  24
ENDBRANCH   7  20
TORSDOF 7
ENDMDL
MODEL      196
REMARK 921   NORMALIZED FREE ENERGY PREDICTED BY IDOCK:   -2.66 KCAL/MOL
REMARK 922        TOTAL FREE ENERGY PREDICTED BY IDOCK:   -5.29 KCAL/MOL
REMARK 923 INTER-LIGAND FREE ENERGY PREDICTED BY IDOCK:   -4.35 KCAL/MOL
REMARK 924 INTRA-LIGAND FREE ENERGY PREDICTED BY IDOCK:   -0.94 KCAL/MOL
REMARK 927      BINDING AFFINITY PREDICTED BY RF-SCORE:    0.00 PKD
ROOT
HETATM    1  O   UNL     1      -6.606   5.875  71.028  1.00  0.00    -0.042 OA 
HETATM    2  C   UNL     1      -7.548   5.425  70.339  1.00  0.00    -0.076 C  
HETATM    3  CA  UNL     1      -8.639   6.470  69.837  1.00  0.00    -0.139 C  
HETATM    4  OXT UNL     1      -7.775   4.227  69.981  1.00  0.00    -0.052 OA 
HETATM    5  C   UNL     1      -9.489   6.135  68.833  1.00  0.00    -0.131 C  
HETATM    6  C   UNL     1     -10.535   7.032  68.225  1.00  0.00    -0.202 C  
HETATM    7  CA  UNL     1      -8.886   9.792  70.491  1.00  0.00     0.020 C  
HETATM    8  S   UNL     1     -10.966   8.584  68.993  1.00  0.00     0.222 SA 
HETATM    9  N   UNL     1      -8.687   7.745  70.321  1.00  0.00    -0.142 N  
HETATM   10  O   UNL     1      -6.608   8.759  70.931  1.00  0.00    -0.043 OA 
HETATM   11  C   UNL     1      -9.862   8.576  70.408  1.00  0.00    -0.179 C  
HETATM   12  C   UNL     1      -7.797   8.687  70.736  1.00  0.00    -0.107 C  
ENDROOT
BRANCH   5  13
HETATM   13  C   UNL     1      -9.435   4.803  68.106  1.00  0.00    -0.141 C  
BRANCH  13  14
HETATM   14  N   UNL     1      -9.092   4.841  66.651  1.00  0.00    -0.114 NA 
HETATM   15  C   UNL     1      -9.439   4.139  64.396  1.00  0.00    -0.163 A  
HETATM   16  C   UNL     1      -8.157   4.552  64.060  1.00  0.00    -0.098 A  
HETATM   17  C   UNL     1      -9.897   4.305  65.704  1.00  0.00    -0.218 A  
HETATM   18  C   UNL     1      -7.877   5.333  66.309  1.00  0.00    -0.103 A  
HETATM   19  C   UNL     1      -7.378   5.177  65.021  1.00  0.00    -0.068 A  
ENDBRANCH  13  14
ENDBRANCH   5  13
BRANCH   7  20
HETATM   20  N   UNL     1      -8.641  10.638  69.255  1.00  0.00    -0.315 N  
HETATM   21  H   UNL     1      -8.999  11.593  69.232  1.00  0.00     0.000 HD 
HETATM   22  O   UNL     1      -7.579   8.998  67.993  1.00  0.00    -0.091 OA 
HETATM   23  C   UNL     1      -7.947  10.157  68.158  1.00  0.00    -0.104 C  
BRANCH  23  24
HETATM   24  C   UNL     1      -7.580  11.125  67.056  1.00  0.00    -0.135 C  
BRANCH  24  25
HETATM   25  N   UNL     1      -7.287  10.817  65.823  1.00  0.00    -0.299 NA 
HETATM   26  H   UNL     1      -6.356  10.498  65.554  1.00  0.00     0.000 HD 
BRANCH  25  27
HETATM   27  O   UNL     1      -8.322  10.950  64.891  1.00  0.00    -0.077 OA 
HETATM   28  C   UNL     1      -9.503   9.981  63.053  1.00  0.00    -0.225 C  
HETATM   29  C   UNL     1      -9.211   8.721  65.194  1.00  0.00    -0.029 C  
HETATM   30  O   UNL     1      -6.131   9.222  64.270  1.00  0.00    -0.073 OA 
HETATM   31  O   UNL     1      -7.319   8.248  62.635  1.00  0.00    -0.094 OA 
HETATM   32  C   UNL     1      -8.536   9.690  64.214  1.00  0.00    -0.191 C  
HETATM   33  C   UNL     1      -7.289   8.992  63.607  1.00  0.00    -0.100 C  
ENDBRANCH  25  27
ENDBRANCH  24  25
BRANCH  24  34
HETATM   34  C   UNL     1      -7.428  12.544  67.395  1.00  0.00    -0.153 A  
HETATM   35  H2  UNL     1      -5.466  15.981  68.980  1.00  0.00     0.000 HD 
HETATM   36  C   UNL     1      -8.444  13.483  67.377  1.00  0.00    -0.200 A  
HETATM   37  S   UNL     1      -7.866  14.988  67.952  1.00  0.00    -0.151 SA 
HETATM   38  H1  UNL     1      -4.387  14.594  68.862  1.00  0.00     0.000 HD 
HETATM   39  N   UNL     1      -5.309  15.007  68.719  1.00  0.00    -0.086 NA 
HETATM   40  N   UNL     1      -6.200  13.042  67.835  1.00  0.00    -0.118 NA 
HETATM   41  C   UNL     1      -6.316  14.294  68.194  1.00  0.00    -0.132 A  
ENDBRANCH  24  34
ENDBRANCH  23  24
ENDBRANCH   7  20
TORSDOF 7
ENDMDL
MODEL      197
REMARK 921   NORMALIZED FREE ENERGY PREDICTED BY IDOCK:   -2.62 KCAL/MOL
REMARK 922        TOTAL FREE ENERGY PREDICTED BY IDOCK:   -5.23 KCAL/MOL
REMARK 923 INTER-LIGAND FREE ENERGY PREDICTED BY IDOCK:   -4.72 KCAL/MOL
REMARK 924 INTRA-LIGAND FREE ENERGY PREDICTED BY IDOCK:   -0.52 KCAL/MOL
REMARK 927      BINDING AFFINITY PREDICTED BY RF-SCORE:    0.00 PKD
ROOT
HETATM    1  O   UNL     1      -6.807   9.711  65.143  1.00  0.00    -0.088 OA 
HETATM    2  C   UNL     1      -6.740  10.381  66.197  1.00  0.00    -0.117 C  
HETATM    3  CA  UNL     1      -7.855  10.106  67.299  1.00  0.00    -0.103 C  
HETATM    4  OXT UNL     1      -5.901  11.278  66.521  1.00  0.00    -0.124 OA 
HETATM    5  C   UNL     1      -7.670  10.536  68.573  1.00  0.00    -0.104 C  
HETATM    6  C   UNL     1      -8.611  10.309  69.727  1.00  0.00    -0.056 C  
HETATM    7  CA  UNL     1     -10.540   8.034  67.162  1.00  0.00    -0.297 C  
HETATM    8  S   UNL     1     -10.258   9.679  69.453  1.00  0.00    -0.224 SA 
HETATM    9  N   UNL     1      -8.964   9.358  67.027  1.00  0.00    -0.129 N  
HETATM   10  O   UNL     1      -8.715   7.569  65.460  1.00  0.00    -0.127 OA 
HETATM   11  C   UNL     1     -10.249   9.482  67.668  1.00  0.00    -0.220 C  
HETATM   12  C   UNL     1      -9.270   8.270  66.270  1.00  0.00    -0.203 C  
ENDROOT
BRANCH   5  13
HETATM   13  C   UNL     1      -6.410  11.242  69.039  1.00  0.00    -0.060 C  
BRANCH  13  14
HETATM   14  N   UNL     1      -6.543  12.684  69.414  1.00  0.00    -0.098 NA 
HETATM   15  C   UNL     1      -7.133  14.939  68.900  1.00  0.00    -0.117 A  
HETATM   16  C   UNL     1      -6.340  15.395  69.945  1.00  0.00    -0.158 A  
HETATM   17  C   UNL     1      -7.233  13.569  68.658  1.00  0.00    -0.107 A  
HETATM   18  C   UNL     1      -5.844  13.114  70.492  1.00  0.00    -0.150 A  
HETATM   19  C   UNL     1      -5.709  14.472  70.763  1.00  0.00    -0.177 A  
ENDBRANCH  13  14
ENDBRANCH   5  13
BRANCH   7  20
HETATM   20  N   UNL     1     -10.412   6.867  68.124  1.00  0.00    -0.190 N  
HETATM   21  H   UNL     1     -11.260   6.444  68.502  1.00  0.00     0.000 HD 
HETATM   22  O   UNL     1      -8.089   6.847  68.239  1.00  0.00    -0.116 OA 
HETATM   23  C   UNL     1      -9.183   6.358  68.506  1.00  0.00    -0.124 C  
BRANCH  23  24
HETATM   24  C   UNL     1      -9.150   5.077  69.309  1.00  0.00    -0.103 C  
BRANCH  24  25
HETATM   25  N   UNL     1      -9.511   4.936  70.554  1.00  0.00    -0.154 NA 
HETATM   26  H   UNL     1     -10.073   4.144  70.866  1.00  0.00     0.000 HD 
BRANCH  25  27
HETATM   27  O   UNL     1      -9.084   5.935  71.437  1.00  0.00    -0.140 OA 
HETATM   28  C   UNL     1      -8.554   6.527  73.690  1.00  0.00    -0.133 C  
HETATM   29  C   UNL     1      -7.465   4.561  72.594  1.00  0.00    -0.084 C  
HETATM   30  O   UNL     1     -10.615   3.753  72.471  1.00  0.00    -0.136 OA 
HETATM   31  O   UNL     1      -9.991   4.265  74.564  1.00  0.00    -0.146 OA 
HETATM   32  C   UNL     1      -8.774   5.352  72.723  1.00  0.00    -0.123 C  
HETATM   33  C   UNL     1      -9.849   4.429  73.359  1.00  0.00    -0.129 C  
ENDBRANCH  25  27
ENDBRANCH  24  25
BRANCH  24  34
HETATM   34  C   UNL     1      -8.564   3.882  68.693  1.00  0.00    -0.094 A  
HETATM   35  H2  UNL     1      -5.419   1.297  67.427  1.00  0.00     0.000 HD 
HETATM   36  C   UNL     1      -9.243   2.980  67.893  1.00  0.00    -0.199 A  
HETATM   37  S   UNL     1      -8.163   1.799  67.286  1.00  0.00    -0.077 SA 
HETATM   38  H1  UNL     1      -4.843   2.568  68.502  1.00  0.00     0.000 HD 
HETATM   39  N   UNL     1      -5.612   2.113  68.009  1.00  0.00    -0.018 NA 
HETATM   40  N   UNL     1      -7.203   3.603  68.836  1.00  0.00    -0.050 NA 
HETATM   41  C   UNL     1      -6.870   2.565  68.113  1.00  0.00    -0.043 A  
ENDBRANCH  24  34
ENDBRANCH  23  24
ENDBRANCH   7  20
TORSDOF 7
ENDMDL
MODEL      198
REMARK 921   NORMALIZED FREE ENERGY PREDICTED BY IDOCK:   -2.62 KCAL/MOL
REMARK 922        TOTAL FREE ENERGY PREDICTED BY IDOCK:   -5.23 KCAL/MOL
REMARK 923 INTER-LIGAND FREE ENERGY PREDICTED BY IDOCK:   -4.94 KCAL/MOL
REMARK 924 INTRA-LIGAND FREE ENERGY PREDICTED BY IDOCK:   -0.29 KCAL/MOL
REMARK 927      BINDING AFFINITY PREDICTED BY RF-SCORE:    0.00 PKD
ROOT
HETATM    1  O   UNL     1     -13.024  10.982  71.416  1.00  0.00    -0.400 OA 
HETATM    2  C   UNL     1     -12.326  10.192  70.742  1.00  0.00    -0.328 C  
HETATM    3  CA  UNL     1     -11.682  10.760  69.403  1.00  0.00    -0.306 C  
HETATM    4  OXT UNL     1     -12.059   8.971  70.969  1.00  0.00    -0.293 OA 
HETATM    5  C   UNL     1     -10.667  10.090  68.800  1.00  0.00    -0.250 C  
HETATM    6  C   UNL     1      -9.932  10.528  67.560  1.00  0.00    -0.172 C  
HETATM    7  CA  UNL     1     -12.043  13.821  67.980  1.00  0.00    -0.280 C  
HETATM    8  S   UNL     1     -10.544  11.877  66.565  1.00  0.00    -0.253 SA 
HETATM    9  N   UNL     1     -12.055  11.965  68.882  1.00  0.00    -0.241 N  
HETATM   10  O   UNL     1     -12.686  13.674  70.432  1.00  0.00    -0.250 OA 
HETATM   11  C   UNL     1     -12.011  12.339  67.491  1.00  0.00    -0.140 C  
HETATM   12  C   UNL     1     -12.436  13.181  69.359  1.00  0.00     0.170 C  
ENDROOT
BRANCH   5  13
HETATM   13  C   UNL     1     -10.058   8.819  69.365  1.00  0.00    -0.203 C  
BRANCH  13  14
HETATM   14  N   UNL     1     -10.007   7.632  68.456  1.00  0.00    -0.174 NA 
HETATM   15  C   UNL     1      -9.147   6.489  66.546  1.00  0.00    -0.166 A  
HETATM   16  C   UNL     1     -10.260   5.659  66.528  1.00  0.00    -0.259 A  
HETATM   17  C   UNL     1      -9.032   7.468  67.533  1.00  0.00    -0.126 A  
HETATM   18  C   UNL     1     -11.048   6.766  68.504  1.00  0.00    -0.142 A  
HETATM   19  C   UNL     1     -11.208   5.784  67.532  1.00  0.00     0.294 A  
ENDBRANCH  13  14
ENDBRANCH   5  13
BRANCH   7  20
HETATM   20  N   UNL     1     -10.755  14.624  68.016  1.00  0.00    -0.243 N  
HETATM   21  H   UNL     1     -10.276  14.748  68.908  1.00  0.00     0.000 HD 
HETATM   22  O   UNL     1     -10.740  15.239  65.773  1.00  0.00    -0.317 OA 
HETATM   23  C   UNL     1     -10.209  15.193  66.878  1.00  0.00    -0.259 C  
BRANCH  23  24
HETATM   24  C   UNL     1      -8.830  15.806  66.969  1.00  0.00    -0.216 C  
BRANCH  24  25
HETATM   25  N   UNL     1      -7.718  15.173  67.222  1.00  0.00    -0.201 NA 
HETATM   26  H   UNL     1      -6.838  15.428  66.774  1.00  0.00     0.000 HD 
BRANCH  25  27
HETATM   27  O   UNL     1      -7.802  14.123  68.144  1.00  0.00    -0.120 OA 
HETATM   28  C   UNL     1      -7.402  13.380  70.379  1.00  0.00     1.889 C  
HETATM   29  C   UNL     1      -8.737  15.448  69.939  1.00  0.00     0.153 C  
HETATM   30  O   UNL     1      -5.871  16.184  68.585  1.00  0.00    -0.103 OA 
HETATM   31  O   UNL     1      -5.617  15.535  70.718  1.00  0.00    -0.135 OA 
HETATM   32  C   UNL     1      -7.533  14.617  69.475  1.00  0.00    -0.074 C  
HETATM   33  C   UNL     1      -6.245  15.464  69.669  1.00  0.00    -0.153 C  
ENDBRANCH  25  27
ENDBRANCH  24  25
BRANCH  24  34
HETATM   34  C   UNL     1      -8.707  17.264  66.873  1.00  0.00    -0.240 A  
HETATM   35  H2  UNL     1      -9.783  21.322  67.617  1.00  0.00     0.000 HD 
HETATM   36  C   UNL     1      -7.900  17.941  65.975  1.00  0.00    -0.154 A  
HETATM   37  S   UNL     1      -8.141  19.629  66.120  1.00  0.00    -0.316 SA 
HETATM   38  H1  UNL     1     -10.658  20.200  68.656  1.00  0.00     0.000 HD 
HETATM   39  N   UNL     1      -9.968  20.366  67.922  1.00  0.00    -0.355 NA 
HETATM   40  N   UNL     1      -9.480  18.098  67.683  1.00  0.00    -0.262 NA 
HETATM   41  C   UNL     1      -9.301  19.351  67.353  1.00  0.00    -0.315 A  
ENDBRANCH  24  34
ENDBRANCH  23  24
ENDBRANCH   7  20
TORSDOF 7
ENDMDL
MODEL      199
REMARK 921   NORMALIZED FREE ENERGY PREDICTED BY IDOCK:   -2.60 KCAL/MOL
REMARK 922        TOTAL FREE ENERGY PREDICTED BY IDOCK:   -5.21 KCAL/MOL
REMARK 923 INTER-LIGAND FREE ENERGY PREDICTED BY IDOCK:   -4.87 KCAL/MOL
REMARK 924 INTRA-LIGAND FREE ENERGY PREDICTED BY IDOCK:   -0.34 KCAL/MOL
REMARK 927      BINDING AFFINITY PREDICTED BY RF-SCORE:    0.00 PKD
ROOT
HETATM    1  O   UNL     1      -9.051  15.820  69.888  1.00  0.00    -0.106 OA 
HETATM    2  C   UNL     1     -10.213  15.360  69.932  1.00  0.00    -0.266 C  
HETATM    3  CA  UNL     1     -10.656  14.402  68.740  1.00  0.00    -0.254 C  
HETATM    4  OXT UNL     1     -11.118  15.557  70.801  1.00  0.00    -0.315 OA 
HETATM    5  C   UNL     1     -11.753  13.614  68.875  1.00  0.00    -0.377 C  
HETATM    6  C   UNL     1     -12.263  12.629  67.856  1.00  0.00     0.115 C  
HETATM    7  CA  UNL     1      -8.937  13.513  65.951  1.00  0.00     0.542 C  
HETATM    8  S   UNL     1     -11.613  12.614  66.194  1.00  0.00    -0.412 SA 
HETATM    9  N   UNL     1      -9.906  14.272  67.607  1.00  0.00    -0.222 N  
HETATM   10  O   UNL     1      -7.534  14.461  67.843  1.00  0.00    -0.120 OA 
HETATM   11  C   UNL     1     -10.401  13.933  66.296  1.00  0.00    -0.293 C  
HETATM   12  C   UNL     1      -8.585  14.267  67.283  1.00  0.00    -0.215 C  
ENDROOT
BRANCH   5  13
HETATM   13  C   UNL     1     -12.583  13.552  70.145  1.00  0.00    -0.112 C  
BRANCH  13  14
HETATM   14  N   UNL     1     -12.560  12.264  70.904  1.00  0.00    -0.304 NA 
HETATM   15  C   UNL     1     -11.802  10.021  71.207  1.00  0.00    -0.471 A  
HETATM   16  C   UNL     1     -12.888   9.754  72.030  1.00  0.00    -0.491 A  
HETATM   17  C   UNL     1     -11.647  11.295  70.660  1.00  0.00    -0.013 A  
HETATM   18  C   UNL     1     -13.568  12.039  71.781  1.00  0.00     0.084 A  
HETATM   19  C   UNL     1     -13.766  10.781  72.339  1.00  0.00     0.329 A  
ENDBRANCH  13  14
ENDBRANCH   5  13
BRANCH   7  20
HETATM   20  N   UNL     1      -8.562  12.042  65.955  1.00  0.00    -0.375 N  
HETATM   21  H   UNL     1      -8.311  11.595  65.073  1.00  0.00     0.000 HD 
HETATM   22  O   UNL     1      -8.951  11.655  68.215  1.00  0.00    -0.174 OA 
HETATM   23  C   UNL     1      -8.548  11.288  67.116  1.00  0.00    -0.147 C  
BRANCH  23  24
HETATM   24  C   UNL     1      -7.976   9.890  67.060  1.00  0.00    -0.109 C  
BRANCH  24  25
HETATM   25  N   UNL     1      -8.124   9.032  66.089  1.00  0.00    -0.109 NA 
HETATM   26  H   UNL     1      -8.939   9.049  65.474  1.00  0.00     0.000 HD 
BRANCH  25  27
HETATM   27  O   UNL     1      -7.102   8.088  65.938  1.00  0.00    -0.057 OA 
HETATM   28  C   UNL     1      -6.510   5.849  65.349  1.00  0.00    -0.042 C  
HETATM   29  C   UNL     1      -7.833   7.278  63.779  1.00  0.00    -0.109 C  
HETATM   30  O   UNL     1      -9.768   7.162  66.393  1.00  0.00    -0.159 OA 
HETATM   31  O   UNL     1      -9.203   5.101  65.710  1.00  0.00    -0.153 OA 
HETATM   32  C   UNL     1      -7.611   6.920  65.255  1.00  0.00    -0.099 C  
HETATM   33  C   UNL     1      -8.915   6.286  65.812  1.00  0.00    -0.068 C  
ENDBRANCH  25  27
ENDBRANCH  24  25
BRANCH  24  34
HETATM   34  C   UNL     1      -7.270   9.377  68.239  1.00  0.00    -0.077 A  
HETATM   35  H2  UNL     1      -6.868   7.304  71.943  1.00  0.00     0.000 HD 
HETATM   36  C   UNL     1      -6.007   9.768  68.647  1.00  0.00    -0.042 A  
HETATM   37  S   UNL     1      -5.607   9.015  70.131  1.00  0.00    -0.031 SA 
HETATM   38  H1  UNL     1      -8.412   6.976  71.161  1.00  0.00     0.000 HD 
HETATM   39  N   UNL     1      -7.505   7.442  71.157  1.00  0.00    -0.076 NA 
HETATM   40  N   UNL     1      -7.887   8.462  69.095  1.00  0.00    -0.103 NA 
HETATM   41  C   UNL     1      -7.132   8.231  70.138  1.00  0.00    -0.040 A  
ENDBRANCH  24  34
ENDBRANCH  23  24
ENDBRANCH   7  20
TORSDOF 7
ENDMDL
MODEL      200
REMARK 921   NORMALIZED FREE ENERGY PREDICTED BY IDOCK:   -2.58 KCAL/MOL
REMARK 922        TOTAL FREE ENERGY PREDICTED BY IDOCK:   -5.18 KCAL/MOL
REMARK 923 INTER-LIGAND FREE ENERGY PREDICTED BY IDOCK:   -4.26 KCAL/MOL
REMARK 924 INTRA-LIGAND FREE ENERGY PREDICTED BY IDOCK:   -0.92 KCAL/MOL
REMARK 927      BINDING AFFINITY PREDICTED BY RF-SCORE:    0.00 PKD
ROOT
HETATM    1  O   UNL     1      -8.080  18.343  69.881  1.00  0.00     0.865 OA 
HETATM    2  C   UNL     1      -9.190  17.961  69.447  1.00  0.00     0.387 C  
HETATM    3  CA  UNL     1      -9.225  16.563  68.686  1.00  0.00    -0.238 C  
HETATM    4  OXT UNL     1     -10.317  18.542  69.515  1.00  0.00     0.035 OA 
HETATM    5  C   UNL     1     -10.408  15.931  68.481  1.00  0.00    -0.232 C  
HETATM    6  C   UNL     1     -10.590  14.589  67.821  1.00  0.00    -0.250 C  
HETATM    7  CA  UNL     1      -6.659  14.479  67.911  1.00  0.00    -0.166 C  
HETATM    8  S   UNL     1      -9.241  13.806  66.956  1.00  0.00    -0.256 SA 
HETATM    9  N   UNL     1      -8.080  15.921  68.311  1.00  0.00    -0.141 N  
HETATM   10  O   UNL     1      -6.169  16.186  69.725  1.00  0.00    -0.181 OA 
HETATM   11  C   UNL     1      -7.939  15.018  67.197  1.00  0.00    -0.206 C  
HETATM   12  C   UNL     1      -6.822  15.761  68.804  1.00  0.00    -0.122 C  
ENDROOT
BRANCH   5  13
HETATM   13  C   UNL     1     -11.736  16.466  68.986  1.00  0.00    -0.054 C  
BRANCH  13  14
HETATM   14  N   UNL     1     -12.146  16.063  70.366  1.00  0.00    -0.269 NA 
HETATM   15  C   UNL     1     -11.625  15.348  72.584  1.00  0.00    -0.504 A  
HETATM   16  C   UNL     1     -12.919  14.869  72.744  1.00  0.00    -0.542 A  
HETATM   17  C   UNL     1     -11.259  15.958  71.384  1.00  0.00    -0.228 A  
HETATM   18  C   UNL     1     -13.434  15.685  70.549  1.00  0.00     0.274 A  
HETATM   19  C   UNL     1     -13.838  15.061  71.725  1.00  0.00    -0.576 A  
ENDBRANCH  13  14
ENDBRANCH   5  13
BRANCH   7  20
HETATM   20  N   UNL     1      -6.729  13.174  68.684  1.00  0.00    -0.089 N  
HETATM   21  H   UNL     1      -6.761  13.206  69.703  1.00  0.00     0.000 HD 
HETATM   22  O   UNL     1      -6.584  11.749  66.851  1.00  0.00    -0.144 OA 
HETATM   23  C   UNL     1      -6.750  11.943  68.051  1.00  0.00    -0.070 C  
BRANCH  23  24
HETATM   24  C   UNL     1      -7.017  10.710  68.884  1.00  0.00    -0.073 C  
BRANCH  24  25
HETATM   25  N   UNL     1      -6.312  10.296  69.900  1.00  0.00    -0.069 NA 
HETATM   26  H   UNL     1      -5.295  10.240  69.864  1.00  0.00     0.000 HD 
BRANCH  25  27
HETATM   27  O   UNL     1      -7.034   9.935  71.044  1.00  0.00    -0.333 OA 
HETATM   28  C   UNL     1      -7.164   8.530  72.972  1.00  0.00    -0.048 C  
HETATM   29  C   UNL     1      -5.132   9.922  72.539  1.00  0.00    -0.024 C  
HETATM   30  O   UNL     1      -5.241   8.028  69.895  1.00  0.00    -0.023 OA 
HETATM   31  O   UNL     1      -5.289   6.802  71.773  1.00  0.00    -0.027 OA 
HETATM   32  C   UNL     1      -6.228   9.074  71.880  1.00  0.00    -0.048 C  
HETATM   33  C   UNL     1      -5.561   7.848  71.198  1.00  0.00    -0.034 C  
ENDBRANCH  25  27
ENDBRANCH  24  25
BRANCH  24  34
HETATM   34  C   UNL     1      -8.101   9.811  68.472  1.00  0.00    -0.104 A  
HETATM   35  H2  UNL     1      -9.951   6.741  66.165  1.00  0.00     0.000 HD 
HETATM   36  C   UNL     1      -9.427   9.934  68.848  1.00  0.00    -0.170 A  
HETATM   37  S   UNL     1     -10.377   8.753  68.055  1.00  0.00    -0.205 SA 
HETATM   38  H1  UNL     1      -8.211   6.813  65.902  1.00  0.00     0.000 HD 
HETATM   39  N   UNL     1      -9.045   7.162  66.373  1.00  0.00    -0.157 NA 
HETATM   40  N   UNL     1      -7.856   8.761  67.585  1.00  0.00    -0.101 NA 
HETATM   41  C   UNL     1      -8.975   8.165  67.262  1.00  0.00    -0.137 A  
ENDBRANCH  24  34
ENDBRANCH  23  24
ENDBRANCH   7  20
TORSDOF 7
ENDMDL
MODEL      201
REMARK 921   NORMALIZED FREE ENERGY PREDICTED BY IDOCK:   -2.41 KCAL/MOL
REMARK 922        TOTAL FREE ENERGY PREDICTED BY IDOCK:   -4.93 KCAL/MOL
REMARK 923 INTER-LIGAND FREE ENERGY PREDICTED BY IDOCK:   -6.05 KCAL/MOL
REMARK 924 INTRA-LIGAND FREE ENERGY PREDICTED BY IDOCK:    1.12 KCAL/MOL
REMARK 927      BINDING AFFINITY PREDICTED BY RF-SCORE:    0.00 PKD
ROOT
HETATM    1  O   UNL     1     -13.117  10.952  71.440  1.00  0.00    -0.389 OA 
HETATM    2  C   UNL     1     -12.601  10.068  70.720  1.00  0.00    -0.285 C  
HETATM    3  CA  UNL     1     -11.951  10.544  69.348  1.00  0.00    -0.158 C  
HETATM    4  OXT UNL     1     -12.529   8.816  70.922  1.00  0.00    -0.181 OA 
HETATM    5  C   UNL     1     -11.099   9.724  68.680  1.00  0.00    -0.140 C  
HETATM    6  C   UNL     1     -10.376  10.055  67.402  1.00  0.00    -0.238 C  
HETATM    7  CA  UNL     1     -11.878  13.646  67.971  1.00  0.00    -0.362 C  
HETATM    8  S   UNL     1     -10.810  11.503  66.454  1.00  0.00    -0.274 SA 
HETATM    9  N   UNL     1     -12.147  11.803  68.859  1.00  0.00    -0.261 N  
HETATM   10  O   UNL     1     -12.392  13.566  70.456  1.00  0.00    -0.339 OA 
HETATM   11  C   UNL     1     -12.122  12.187  67.470  1.00  0.00     0.102 C  
HETATM   12  C   UNL     1     -12.291  13.057  69.366  1.00  0.00     0.027 C  
ENDROOT
BRANCH   5  13
HETATM   13  C   UNL     1     -10.679   8.360  69.199  1.00  0.00    -0.106 C  
BRANCH  13  14
HETATM   14  N   UNL     1      -9.893   8.334  70.471  1.00  0.00    -0.182 NA 
HETATM   15  C   UNL     1      -7.994   8.955  71.776  1.00  0.00    -0.031 A  
HETATM   16  C   UNL     1      -8.228   7.894  72.641  1.00  0.00    -0.184 A  
HETATM   17  C   UNL     1      -8.852   9.168  70.697  1.00  0.00    -0.232 A  
HETATM   18  C   UNL     1     -10.184   7.356  71.362  1.00  0.00    -0.187 A  
HETATM   19  C   UNL     1      -9.349   7.102  72.445  1.00  0.00    -0.155 A  
ENDBRANCH  13  14
ENDBRANCH   5  13
BRANCH   7  20
HETATM   20  N   UNL     1     -10.474  14.222  67.934  1.00  0.00    -0.238 N  
HETATM   21  H   UNL     1      -9.849  14.050  68.722  1.00  0.00     0.000 HD 
HETATM   22  O   UNL     1     -10.690  15.369  65.921  1.00  0.00    -0.315 OA 
HETATM   23  C   UNL     1     -10.013  14.973  66.866  1.00  0.00    -0.244 C  
BRANCH  23  24
HETATM   24  C   UNL     1      -8.548  15.341  66.822  1.00  0.00    -0.265 C  
BRANCH  24  25
HETATM   25  N   UNL     1      -7.543  14.510  66.805  1.00  0.00    -0.229 NA 
HETATM   26  H   UNL     1      -6.681  14.717  66.298  1.00  0.00     0.000 HD 
BRANCH  25  27
HETATM   27  O   UNL     1      -7.714  13.320  67.521  1.00  0.00    -0.154 OA 
HETATM   28  C   UNL     1      -7.332  12.133  69.559  1.00  0.00     0.380 C  
HETATM   29  C   UNL     1      -8.447  14.371  69.571  1.00  0.00     0.386 C  
HETATM   30  O   UNL     1      -5.558  15.054  68.239  1.00  0.00    -0.101 OA 
HETATM   31  O   UNL     1      -5.316  13.993  70.201  1.00  0.00    -0.091 OA 
HETATM   32  C   UNL     1      -7.354  13.525  68.906  1.00  0.00    -0.045 C  
HETATM   33  C   UNL     1      -5.977  14.185  69.189  1.00  0.00    -0.093 C  
ENDBRANCH  25  27
ENDBRANCH  24  25
BRANCH  24  34
HETATM   34  C   UNL     1      -8.181  16.758  66.914  1.00  0.00    -0.210 A  
HETATM   35  H2  UNL     1      -8.399  20.751  68.393  1.00  0.00     0.000 HD 
HETATM   36  C   UNL     1      -7.401  17.443  65.997  1.00  0.00    -0.229 A  
HETATM   37  S   UNL     1      -7.315  19.100  66.418  1.00  0.00    -0.260 SA 
HETATM   38  H1  UNL     1      -9.304  19.620  69.395  1.00  0.00     0.000 HD 
HETATM   39  N   UNL     1      -8.707  19.798  68.587  1.00  0.00    -0.253 NA 
HETATM   40  N   UNL     1      -8.670  17.554  67.952  1.00  0.00    -0.241 NA 
HETATM   41  C   UNL     1      -8.319  18.802  67.776  1.00  0.00    -0.271 A  
ENDBRANCH  24  34
ENDBRANCH  23  24
ENDBRANCH   7  20
TORSDOF 7
ENDMDL
MODEL      202
REMARK 921   NORMALIZED FREE ENERGY PREDICTED BY IDOCK:   -2.12 KCAL/MOL
REMARK 922        TOTAL FREE ENERGY PREDICTED BY IDOCK:   -4.53 KCAL/MOL
REMARK 923 INTER-LIGAND FREE ENERGY PREDICTED BY IDOCK:   -4.71 KCAL/MOL
REMARK 924 INTRA-LIGAND FREE ENERGY PREDICTED BY IDOCK:    0.19 KCAL/MOL
REMARK 927      BINDING AFFINITY PREDICTED BY RF-SCORE:    0.00 PKD
ROOT
HETATM    1  O   UNL     1     -11.064  10.562  70.255  1.00  0.00    -0.298 OA 
HETATM    2  C   UNL     1     -10.325  10.583  69.246  1.00  0.00    -0.227 C  
HETATM    3  CA  UNL     1      -8.936   9.813  69.352  1.00  0.00    -0.190 C  
HETATM    4  OXT UNL     1     -10.519  11.150  68.126  1.00  0.00    -0.176 OA 
HETATM    5  C   UNL     1      -8.240   9.511  68.226  1.00  0.00    -0.113 C  
HETATM    6  C   UNL     1      -6.942   8.749  68.168  1.00  0.00    -0.074 C  
HETATM    7  CA  UNL     1      -7.571   8.209  72.014  1.00  0.00    -0.106 C  
HETATM    8  S   UNL     1      -6.014   8.411  69.654  1.00  0.00    -0.032 SA 
HETATM    9  N   UNL     1      -8.458   9.355  70.545  1.00  0.00    -0.209 N  
HETATM   10  O   UNL     1     -10.069   8.634  72.159  1.00  0.00    -0.300 OA 
HETATM   11  C   UNL     1      -7.071   9.171  70.890  1.00  0.00    -0.105 C  
HETATM   12  C   UNL     1      -8.975   8.831  71.689  1.00  0.00    -0.231 C  
ENDROOT
BRANCH   5  13
HETATM   13  C   UNL     1      -8.740   9.828  66.828  1.00  0.00    -0.131 C  
BRANCH  13  14
HETATM   14  N   UNL     1      -7.702  10.072  65.779  1.00  0.00    -0.117 NA 
HETATM   15  C   UNL     1      -6.706   9.594  63.663  1.00  0.00    -0.111 A  
HETATM   16  C   UNL     1      -5.523  10.196  64.073  1.00  0.00    -0.123 A  
HETATM   17  C   UNL     1      -7.796   9.554  64.532  1.00  0.00    -0.126 A  
HETATM   18  C   UNL     1      -6.586  10.744  66.150  1.00  0.00    -0.127 A  
HETATM   19  C   UNL     1      -5.472  10.798  65.320  1.00  0.00    -0.124 A  
ENDBRANCH  13  14
ENDBRANCH   5  13
BRANCH   7  20
HETATM   20  N   UNL     1      -7.494   6.708  71.800  1.00  0.00    -0.090 N  
HETATM   21  H   UNL     1      -6.736   6.186  72.238  1.00  0.00     0.000 HD 
HETATM   22  O   UNL     1      -9.299   6.536  70.342  1.00  0.00    -0.161 OA 
HETATM   23  C   UNL     1      -8.420   6.025  71.030  1.00  0.00    -0.124 C  
BRANCH  23  24
HETATM   24  C   UNL     1      -8.384   4.514  71.030  1.00  0.00    -0.093 C  
BRANCH  24  25
HETATM   25  N   UNL     1      -7.878   3.753  70.099  1.00  0.00    -0.047 NA 
HETATM   26  H   UNL     1      -7.808   2.741  70.209  1.00  0.00     0.000 HD 
BRANCH  25  27
HETATM   27  O   UNL     1      -7.439   4.405  68.941  1.00  0.00    -0.055 OA 
HETATM   28  C   UNL     1      -7.312   4.388  66.555  1.00  0.00    -0.081 C  
HETATM   29  C   UNL     1      -9.513   4.162  67.721  1.00  0.00    -0.225 C  
HETATM   30  O   UNL     1      -7.877   1.582  68.843  1.00  0.00    -0.046 OA 
HETATM   31  O   UNL     1      -7.880   1.627  66.600  1.00  0.00    -0.064 OA 
HETATM   32  C   UNL     1      -8.027   3.784  67.776  1.00  0.00    -0.085 C  
HETATM   33  C   UNL     1      -7.905   2.240  67.660  1.00  0.00    -0.060 C  
ENDBRANCH  25  27
ENDBRANCH  24  25
BRANCH  24  34
HETATM   34  C   UNL     1      -9.066   3.799  72.114  1.00  0.00    -0.115 A  
HETATM   35  H2  UNL     1     -12.071   1.339  73.872  1.00  0.00     0.000 HD 
HETATM   36  C   UNL     1      -8.824   3.978  73.465  1.00  0.00    -0.093 A  
HETATM   37  S   UNL     1      -9.915   3.037  74.389  1.00  0.00    -0.141 SA 
HETATM   38  H1  UNL     1     -12.122   1.296  72.112  1.00  0.00     0.000 HD 
HETATM   39  N   UNL     1     -11.692   1.636  72.972  1.00  0.00    -0.036 NA 
HETATM   40  N   UNL     1     -10.092   2.895  71.835  1.00  0.00    -0.136 NA 
HETATM   41  C   UNL     1     -10.638   2.465  72.943  1.00  0.00    -0.141 A  
ENDBRANCH  24  34
ENDBRANCH  23  24
ENDBRANCH   7  20
TORSDOF 7
ENDMDL
MODEL      203
REMARK 921   NORMALIZED FREE ENERGY PREDICTED BY IDOCK:   -2.06 KCAL/MOL
REMARK 922        TOTAL FREE ENERGY PREDICTED BY IDOCK:   -4.45 KCAL/MOL
REMARK 923 INTER-LIGAND FREE ENERGY PREDICTED BY IDOCK:   -4.76 KCAL/MOL
REMARK 924 INTRA-LIGAND FREE ENERGY PREDICTED BY IDOCK:    0.31 KCAL/MOL
REMARK 927      BINDING AFFINITY PREDICTED BY RF-SCORE:    0.00 PKD
ROOT
HETATM    1  O   UNL     1     -11.474   7.598  69.885  1.00  0.00    -0.094 OA 
HETATM    2  C   UNL     1     -10.291   7.250  69.671  1.00  0.00    -0.221 C  
HETATM    3  CA  UNL     1      -9.449   8.140  68.654  1.00  0.00    -0.147 C  
HETATM    4  OXT UNL     1      -9.651   6.262  70.147  1.00  0.00    -0.161 OA 
HETATM    5  C   UNL     1      -8.097   8.035  68.619  1.00  0.00    -0.125 C  
HETATM    6  C   UNL     1      -7.170   8.842  67.748  1.00  0.00    -0.084 C  
HETATM    7  CA  UNL     1     -10.443  10.817  66.818  1.00  0.00    -0.251 C  
HETATM    8  S   UNL     1      -7.810   9.847  66.420  1.00  0.00    -0.109 SA 
HETATM    9  N   UNL     1     -10.041   9.089  67.871  1.00  0.00    -0.186 N  
HETATM   10  O   UNL     1     -11.940  10.223  68.781  1.00  0.00    -0.125 OA 
HETATM   11  C   UNL     1      -9.571   9.542  66.586  1.00  0.00    -0.188 C  
HETATM   12  C   UNL     1     -11.070   9.971  67.983  1.00  0.00    -0.201 C  
ENDROOT
BRANCH   5  13
HETATM   13  C   UNL     1      -7.308   7.130  69.548  1.00  0.00    -0.089 C  
BRANCH  13  14
HETATM   14  N   UNL     1      -6.828   7.730  70.830  1.00  0.00    -0.042 NA 
HETATM   15  C   UNL     1      -5.439   9.244  72.046  1.00  0.00    -0.073 A  
HETATM   16  C   UNL     1      -5.611   8.491  73.200  1.00  0.00    -0.070 A  
HETATM   17  C   UNL     1      -6.070   8.852  70.866  1.00  0.00    -0.044 A  
HETATM   18  C   UNL     1      -7.078   7.046  71.972  1.00  0.00    -0.073 A  
HETATM   19  C   UNL     1      -6.459   7.395  73.168  1.00  0.00    -0.064 A  
ENDBRANCH  13  14
ENDBRANCH   5  13
BRANCH   7  20
HETATM   20  N   UNL     1      -9.778  12.103  67.275  1.00  0.00    -0.189 N  
HETATM   21  H   UNL     1      -8.797  12.260  67.045  1.00  0.00     0.000 HD 
HETATM   22  O   UNL     1     -11.593  12.958  68.453  1.00  0.00    -0.289 OA 
HETATM   23  C   UNL     1     -10.460  13.069  67.995  1.00  0.00    -0.228 C  
BRANCH  23  24
HETATM   24  C   UNL     1      -9.782  14.398  68.239  1.00  0.00    -0.222 C  
BRANCH  24  25
HETATM   25  N   UNL     1      -9.048  14.713  69.271  1.00  0.00    -0.395 NA 
HETATM   26  H   UNL     1      -9.046  15.655  69.663  1.00  0.00     0.000 HD 
BRANCH  25  27
HETATM   27  O   UNL     1      -8.265  13.685  69.808  1.00  0.00     0.969 OA 
HETATM   28  C   UNL     1      -6.085  12.735  70.035  1.00  0.00    -0.112 C  
HETATM   29  C   UNL     1      -6.508  15.125  70.637  1.00  0.00     0.176 C  
HETATM   30  O   UNL     1      -7.319  15.060  67.487  1.00  0.00    -0.171 OA 
HETATM   31  O   UNL     1      -5.252  14.248  67.808  1.00  0.00    -0.258 OA 
HETATM   32  C   UNL     1      -6.864  14.004  69.652  1.00  0.00    -0.017 C  
HETATM   33  C   UNL     1      -6.387  14.423  68.234  1.00  0.00    -0.118 C  
ENDBRANCH  25  27
ENDBRANCH  24  25
BRANCH  24  34
HETATM   34  C   UNL     1     -10.037  15.495  67.300  1.00  0.00    -0.250 A  
HETATM   35  H2  UNL     1     -10.896  19.505  66.134  1.00  0.00     0.000 HD 
HETATM   36  C   UNL     1     -10.316  15.345  65.953  1.00  0.00    -0.341 A  
HETATM   37  S   UNL     1     -10.665  16.866  65.249  1.00  0.00     0.012 SA 
HETATM   38  H1  UNL     1     -10.475  19.384  67.840  1.00  0.00     0.000 HD 
HETATM   39  N   UNL     1     -10.614  18.937  66.934  1.00  0.00    -0.421 NA 
HETATM   40  N   UNL     1     -10.073  16.819  67.745  1.00  0.00    -0.272 NA 
HETATM   41  C   UNL     1     -10.432  17.618  66.773  1.00  0.00    -0.289 A  
ENDBRANCH  24  34
ENDBRANCH  23  24
ENDBRANCH   7  20
TORSDOF 7
ENDMDL
MODEL      204
REMARK 921   NORMALIZED FREE ENERGY PREDICTED BY IDOCK:   -1.92 KCAL/MOL
REMARK 922        TOTAL FREE ENERGY PREDICTED BY IDOCK:   -4.24 KCAL/MOL
REMARK 923 INTER-LIGAND FREE ENERGY PREDICTED BY IDOCK:   -4.67 KCAL/MOL
REMARK 924 INTRA-LIGAND FREE ENERGY PREDICTED BY IDOCK:    0.42 KCAL/MOL
REMARK 927      BINDING AFFINITY PREDICTED BY RF-SCORE:    0.00 PKD
ROOT
HETATM    1  O   UNL     1     -11.178   7.368  70.423  1.00  0.00    -0.266 OA 
HETATM    2  C   UNL     1      -9.973   7.092  70.231  1.00  0.00    -0.187 C  
HETATM    3  CA  UNL     1      -9.258   7.799  68.996  1.00  0.00    -0.143 C  
HETATM    4  OXT UNL     1      -9.220   6.305  70.884  1.00  0.00    -0.156 OA 
HETATM    5  C   UNL     1      -7.904   7.816  68.914  1.00  0.00    -0.122 C  
HETATM    6  C   UNL     1      -7.093   8.483  67.835  1.00  0.00    -0.086 C  
HETATM    7  CA  UNL     1     -10.578   9.876  66.658  1.00  0.00    -0.115 C  
HETATM    8  S   UNL     1      -7.872   9.091  66.350  1.00  0.00    -0.100 SA 
HETATM    9  N   UNL     1      -9.968   8.482  68.052  1.00  0.00    -0.175 N  
HETATM   10  O   UNL     1     -11.945   9.613  68.781  1.00  0.00     0.563 OA 
HETATM   11  C   UNL     1      -9.587   8.670  66.674  1.00  0.00    -0.221 C  
HETATM   12  C   UNL     1     -11.079   9.267  68.015  1.00  0.00     0.119 C  
ENDROOT
BRANCH   5  13
HETATM   13  C   UNL     1      -6.998   7.226  69.981  1.00  0.00    -0.060 C  
BRANCH  13  14
HETATM   14  N   UNL     1      -6.487   8.164  71.027  1.00  0.00    -0.037 NA 
HETATM   15  C   UNL     1      -5.139  10.013  71.708  1.00  0.00    -0.075 A  
HETATM   16  C   UNL     1      -5.190   9.578  73.026  1.00  0.00    -0.060 A  
HETATM   17  C   UNL     1      -5.810   9.295  70.718  1.00  0.00    -0.050 A  
HETATM   18  C   UNL     1      -6.621   7.787  72.321  1.00  0.00    -0.059 A  
HETATM   19  C   UNL     1      -5.959   8.467  73.338  1.00  0.00    -0.104 A  
ENDBRANCH  13  14
ENDBRANCH   5  13
BRANCH   7  20
HETATM   20  N   UNL     1     -10.036  11.289  66.777  1.00  0.00    -0.213 N  
HETATM   21  H   UNL     1      -9.049  11.457  66.579  1.00  0.00     0.000 HD 
HETATM   22  O   UNL     1     -11.997  12.283  67.537  1.00  0.00    -0.513 OA 
HETATM   23  C   UNL     1     -10.836  12.357  67.144  1.00  0.00    -0.245 C  
BRANCH  23  24
HETATM   24  C   UNL     1     -10.264  13.753  67.048  1.00  0.00    -0.254 C  
BRANCH  24  25
HETATM   25  N   UNL     1      -9.482  14.329  67.918  1.00  0.00    -0.207 NA 
HETATM   26  H   UNL     1      -9.487  14.068  68.904  1.00  0.00     0.000 HD 
BRANCH  25  27
HETATM   27  O   UNL     1      -8.635  15.326  67.420  1.00  0.00    -0.160 OA 
HETATM   28  C   UNL     1      -7.733  17.520  67.707  1.00  0.00    -0.209 C  
HETATM   29  C   UNL     1      -7.568  15.819  69.534  1.00  0.00    -0.177 C  
HETATM   30  O   UNL     1     -10.787  16.089  69.139  1.00  0.00    -0.242 OA 
HETATM   31  O   UNL     1      -9.842  18.094  69.487  1.00  0.00     0.018 OA 
HETATM   32  C   UNL     1      -8.463  16.364  68.412  1.00  0.00    -0.204 C  
HETATM   33  C   UNL     1      -9.750  16.954  69.048  1.00  0.00    -0.231 C  
ENDBRANCH  25  27
ENDBRANCH  24  25
BRANCH  24  34
HETATM   34  C   UNL     1     -10.694  14.608  65.937  1.00  0.00    -0.309 A  
HETATM   35  H2  UNL     1     -11.679  18.275  63.999  1.00  0.00     0.000 HD 
HETATM   36  C   UNL     1     -11.275  14.161  64.763  1.00  0.00    -0.378 A  
HETATM   37  S   UNL     1     -11.730  15.491  63.786  1.00  0.00     0.892 SA 
HETATM   38  H1  UNL     1     -10.887  18.535  65.550  1.00  0.00     0.000 HD 
HETATM   39  N   UNL     1     -11.240  17.896  64.838  1.00  0.00    -0.411 NA 
HETATM   40  N   UNL     1     -10.591  15.998  66.028  1.00  0.00    -0.328 NA 
HETATM   41  C   UNL     1     -11.137  16.566  64.984  1.00  0.00    -0.166 A  
ENDBRANCH  24  34
ENDBRANCH  23  24
ENDBRANCH   7  20
TORSDOF 7
ENDMDL
MODEL      205
REMARK 921   NORMALIZED FREE ENERGY PREDICTED BY IDOCK:   -1.87 KCAL/MOL
REMARK 922        TOTAL FREE ENERGY PREDICTED BY IDOCK:   -4.17 KCAL/MOL
REMARK 923 INTER-LIGAND FREE ENERGY PREDICTED BY IDOCK:   -4.21 KCAL/MOL
REMARK 924 INTRA-LIGAND FREE ENERGY PREDICTED BY IDOCK:    0.04 KCAL/MOL
REMARK 927      BINDING AFFINITY PREDICTED BY RF-SCORE:    0.00 PKD
ROOT
HETATM    1  O   UNL     1     -11.548   8.387  72.613  1.00  0.00    -0.385 OA 
HETATM    2  C   UNL     1     -10.503   7.705  72.704  1.00  0.00    -0.287 C  
HETATM    3  CA  UNL     1      -9.792   7.289  71.342  1.00  0.00    -0.186 C  
HETATM    4  OXT UNL     1      -9.918   7.276  73.746  1.00  0.00    -0.301 OA 
HETATM    5  C   UNL     1      -8.509   6.847  71.354  1.00  0.00    -0.119 C  
HETATM    6  C   UNL     1      -7.695   6.464  70.146  1.00  0.00    -0.098 C  
HETATM    7  CA  UNL     1     -10.783   7.856  68.145  1.00  0.00    -0.040 C  
HETATM    8  S   UNL     1      -8.466   6.274  68.548  1.00  0.00    -0.114 SA 
HETATM    9  N   UNL     1     -10.404   7.454  70.133  1.00  0.00    -0.210 N  
HETATM   10  O   UNL     1     -11.876   9.325  69.903  1.00  0.00     0.077 OA 
HETATM   11  C   UNL     1     -10.171   6.665  68.949  1.00  0.00    -0.177 C  
HETATM   12  C   UNL     1     -11.248   8.353  69.560  1.00  0.00     0.163 C  
ENDROOT
BRANCH   5  13
HETATM   13  C   UNL     1      -7.668   6.765  72.616  1.00  0.00    -0.099 C  
BRANCH  13  14
HETATM   14  N   UNL     1      -7.116   5.422  72.974  1.00  0.00    -0.087 NA 
HETATM   15  C   UNL     1      -5.844   3.471  72.453  1.00  0.00    -0.008 A  
HETATM   16  C   UNL     1      -6.501   2.763  73.450  1.00  0.00    -0.021 A  
HETATM   17  C   UNL     1      -6.158   4.813  72.237  1.00  0.00    -0.021 A  
HETATM   18  C   UNL     1      -7.693   4.767  74.010  1.00  0.00    -0.097 A  
HETATM   19  C   UNL     1      -7.418   3.425  74.252  1.00  0.00    -0.053 A  
ENDBRANCH  13  14
ENDBRANCH   5  13
BRANCH   7  20
HETATM   20  N   UNL     1      -9.860   8.821  67.423  1.00  0.00    -0.180 N  
HETATM   21  H   UNL     1      -9.773   8.753  66.408  1.00  0.00     0.000 HD 
HETATM   22  O   UNL     1      -9.038   9.898  69.313  1.00  0.00    -0.164 OA 
HETATM   23  C   UNL     1      -9.134   9.789  68.095  1.00  0.00    -0.125 C  
BRANCH  23  24
HETATM   24  C   UNL     1      -8.396  10.829  67.283  1.00  0.00    -0.124 C  
BRANCH  24  25
HETATM   25  N   UNL     1      -8.189  12.071  67.623  1.00  0.00    -0.145 NA 
HETATM   26  H   UNL     1      -8.947  12.677  67.939  1.00  0.00     0.000 HD 
BRANCH  25  27
HETATM   27  O   UNL     1      -6.868  12.524  67.530  1.00  0.00    -0.122 OA 
HETATM   28  C   UNL     1      -5.160  13.925  68.440  1.00  0.00    -0.102 C  
HETATM   29  C   UNL     1      -6.354  12.264  69.879  1.00  0.00    -0.060 C  
HETATM   30  O   UNL     1      -8.791  14.166  68.863  1.00  0.00    -0.107 OA 
HETATM   31  O   UNL     1      -7.153  15.379  69.801  1.00  0.00    -0.185 OA 
HETATM   32  C   UNL     1      -6.518  13.261  68.723  1.00  0.00    -0.099 C  
HETATM   33  C   UNL     1      -7.491  14.384  69.173  1.00  0.00    -0.094 C  
ENDBRANCH  25  27
ENDBRANCH  24  25
BRANCH  24  34
HETATM   34  C   UNL     1      -7.946  10.471  65.933  1.00  0.00    -0.154 A  
HETATM   35  H2  UNL     1      -5.157   9.229  62.958  1.00  0.00     0.000 HD 
HETATM   36  C   UNL     1      -8.651  10.710  64.767  1.00  0.00    -0.130 A  
HETATM   37  S   UNL     1      -7.720  10.245  63.409  1.00  0.00    -0.086 SA 
HETATM   38  H1  UNL     1      -4.528   9.017  64.589  1.00  0.00     0.000 HD 
HETATM   39  N   UNL     1      -5.285   9.301  63.968  1.00  0.00    -0.059 NA 
HETATM   40  N   UNL     1      -6.691   9.893  65.732  1.00  0.00    -0.093 NA 
HETATM   41  C   UNL     1      -6.446   9.767  64.453  1.00  0.00    -0.117 A  
ENDBRANCH  24  34
ENDBRANCH  23  24
ENDBRANCH   7  20
TORSDOF 7
ENDMDL
MODEL      206
REMARK 921   NORMALIZED FREE ENERGY PREDICTED BY IDOCK:   -1.76 KCAL/MOL
REMARK 922        TOTAL FREE ENERGY PREDICTED BY IDOCK:   -4.02 KCAL/MOL
REMARK 923 INTER-LIGAND FREE ENERGY PREDICTED BY IDOCK:   -4.22 KCAL/MOL
REMARK 924 INTRA-LIGAND FREE ENERGY PREDICTED BY IDOCK:    0.20 KCAL/MOL
REMARK 927      BINDING AFFINITY PREDICTED BY RF-SCORE:    0.00 PKD
ROOT
HETATM    1  O   UNL     1     -11.101  15.508  70.318  1.00  0.00    -0.274 OA 
HETATM    2  C   UNL     1     -10.414  16.380  69.741  1.00  0.00    -0.246 C  
HETATM    3  CA  UNL     1      -9.117  15.880  68.964  1.00  0.00    -0.240 C  
HETATM    4  OXT UNL     1     -10.596  17.636  69.691  1.00  0.00    -0.018 OA 
HETATM    5  C   UNL     1      -8.515  16.689  68.057  1.00  0.00    -0.192 C  
HETATM    6  C   UNL     1      -7.315  16.336  67.218  1.00  0.00    -0.182 C  
HETATM    7  CA  UNL     1      -7.817  12.750  68.755  1.00  0.00     0.040 C  
HETATM    8  S   UNL     1      -6.362  14.867  67.558  1.00  0.00     0.067 SA 
HETATM    9  N   UNL     1      -8.638  14.610  69.111  1.00  0.00    -0.091 N  
HETATM   10  O   UNL     1     -10.242  12.878  69.497  1.00  0.00     0.445 OA 
HETATM   11  C   UNL     1      -7.266  14.197  68.957  1.00  0.00    -0.110 C  
HETATM   12  C   UNL     1      -9.156  13.366  69.297  1.00  0.00     0.809 C  
ENDROOT
BRANCH   5  13
HETATM   13  C   UNL     1      -9.041  18.065  67.691  1.00  0.00    -0.255 C  
BRANCH  13  14
HETATM   14  N   UNL     1      -8.029  19.094  67.298  1.00  0.00    -0.252 NA 
HETATM   15  C   UNL     1      -6.859  20.361  65.649  1.00  0.00    -0.278 A  
HETATM   16  C   UNL     1      -5.845  20.630  66.559  1.00  0.00    -0.235 A  
HETATM   17  C   UNL     1      -7.957  19.597  66.044  1.00  0.00    -0.328 A  
HETATM   18  C   UNL     1      -7.094  19.431  68.218  1.00  0.00    -0.284 A  
HETATM   19  C   UNL     1      -5.977  20.180  67.864  1.00  0.00    -0.255 A  
ENDBRANCH  13  14
ENDBRANCH   5  13
BRANCH   7  20
HETATM   20  N   UNL     1      -7.922  12.180  67.352  1.00  0.00    -0.159 N  
HETATM   21  H   UNL     1      -7.225  11.503  67.042  1.00  0.00     0.000 HD 
HETATM   22  O   UNL     1      -9.752  13.443  66.667  1.00  0.00    -0.260 OA 
HETATM   23  C   UNL     1      -8.932  12.549  66.480  1.00  0.00    -0.132 C  
BRANCH  23  24
HETATM   24  C   UNL     1      -9.074  11.791  65.180  1.00  0.00     0.173 C  
BRANCH  24  25
HETATM   25  N   UNL     1      -8.198  10.977  64.660  1.00  0.00    -0.359 NA 
HETATM   26  H   UNL     1      -7.683  11.209  63.811  1.00  0.00     0.000 HD 
BRANCH  25  27
HETATM   27  O   UNL     1      -8.006   9.765  65.335  1.00  0.00    -0.116 OA 
HETATM   28  C   UNL     1      -6.962   7.616  65.339  1.00  0.00    -0.059 C  
HETATM   29  C   UNL     1      -5.607   9.696  65.032  1.00  0.00    -0.062 C  
HETATM   30  O   UNL     1      -7.646   9.828  62.500  1.00  0.00    -0.112 OA 
HETATM   31  O   UNL     1      -6.557   7.868  62.561  1.00  0.00    -0.082 OA 
HETATM   32  C   UNL     1      -6.943   9.016  64.703  1.00  0.00    -0.085 C  
HETATM   33  C   UNL     1      -7.033   8.821  63.165  1.00  0.00    -0.089 C  
ENDBRANCH  25  27
ENDBRANCH  24  25
BRANCH  24  34
HETATM   34  C   UNL     1     -10.252  12.052  64.345  1.00  0.00    -0.302 A  
HETATM   35  H2  UNL     1     -13.529  14.321  62.834  1.00  0.00     0.000 HD 
HETATM   36  C   UNL     1     -10.951  11.097  63.628  1.00  0.00    -0.157 A  
HETATM   37  S   UNL     1     -12.323  11.802  62.887  1.00  0.00     0.709 SA 
HETATM   38  H1  UNL     1     -12.428  15.303  63.795  1.00  0.00     0.000 HD 
HETATM   39  N   UNL     1     -12.677  14.401  63.389  1.00  0.00    -0.429 NA 
HETATM   40  N   UNL     1     -10.798  13.335  64.268  1.00  0.00    -0.400 NA 
HETATM   41  C   UNL     1     -11.905  13.319  63.570  1.00  0.00    -0.418 A  
ENDBRANCH  24  34
ENDBRANCH  23  24
ENDBRANCH   7  20
TORSDOF 7
ENDMDL
MODEL      207
REMARK 921   NORMALIZED FREE ENERGY PREDICTED BY IDOCK:   -1.76 KCAL/MOL
REMARK 922        TOTAL FREE ENERGY PREDICTED BY IDOCK:   -4.01 KCAL/MOL
REMARK 923 INTER-LIGAND FREE ENERGY PREDICTED BY IDOCK:   -3.92 KCAL/MOL
REMARK 924 INTRA-LIGAND FREE ENERGY PREDICTED BY IDOCK:   -0.09 KCAL/MOL
REMARK 927      BINDING AFFINITY PREDICTED BY RF-SCORE:    0.00 PKD
ROOT
HETATM    1  O   UNL     1     -11.001   7.221  70.405  1.00  0.00    -0.241 OA 
HETATM    2  C   UNL     1      -9.776   7.295  70.162  1.00  0.00    -0.172 C  
HETATM    3  CA  UNL     1      -9.297   8.488  69.224  1.00  0.00    -0.154 C  
HETATM    4  OXT UNL     1      -8.837   6.533  70.552  1.00  0.00    -0.148 OA 
HETATM    5  C   UNL     1      -7.985   8.832  69.180  1.00  0.00    -0.109 C  
HETATM    6  C   UNL     1      -7.394   9.963  68.380  1.00  0.00    -0.078 C  
HETATM    7  CA  UNL     1     -11.154  10.836  67.623  1.00  0.00    -0.319 C  
HETATM    8  S   UNL     1      -8.362  10.809  67.143  1.00  0.00    -0.129 SA 
HETATM    9  N   UNL     1     -10.185   9.253  68.525  1.00  0.00    -0.194 N  
HETATM   10  O   UNL     1     -12.323   9.632  69.528  1.00  0.00     0.539 OA 
HETATM   11  C   UNL     1      -9.924   9.936  67.283  1.00  0.00    -0.196 C  
HETATM   12  C   UNL     1     -11.441   9.741  68.712  1.00  0.00     0.183 C  
ENDROOT
BRANCH   5  13
HETATM   13  C   UNL     1      -6.919   8.161  70.029  1.00  0.00    -0.040 C  
BRANCH  13  14
HETATM   14  N   UNL     1      -6.447   8.906  71.235  1.00  0.00    -0.070 NA 
HETATM   15  C   UNL     1      -5.247  10.700  72.256  1.00  0.00     0.207 A  
HETATM   16  C   UNL     1      -5.191   9.996  73.452  1.00  0.00     0.114 A  
HETATM   17  C   UNL     1      -5.896  10.140  71.155  1.00  0.00    -0.025 A  
HETATM   18  C   UNL     1      -6.480   8.256  72.423  1.00  0.00    -0.083 A  
HETATM   19  C   UNL     1      -5.836   8.772  73.542  1.00  0.00    -0.107 A  
ENDBRANCH  13  14
ENDBRANCH   5  13
BRANCH   7  20
HETATM   20  N   UNL     1     -10.930  12.226  68.188  1.00  0.00    -0.218 N  
HETATM   21  H   UNL     1      -9.979  12.592  68.234  1.00  0.00     0.000 HD 
HETATM   22  O   UNL     1     -13.140  12.657  68.772  1.00  0.00     1.517 OA 
HETATM   23  C   UNL     1     -11.973  13.014  68.643  1.00  0.00    -0.263 C  
BRANCH  23  24
HETATM   24  C   UNL     1     -11.684  14.453  69.006  1.00  0.00    -0.310 C  
BRANCH  24  25
HETATM   25  N   UNL     1     -10.835  15.245  68.412  1.00  0.00    -0.248 NA 
HETATM   26  H   UNL     1      -9.985  14.891  67.972  1.00  0.00     0.000 HD 
BRANCH  25  27
HETATM   27  O   UNL     1     -11.156  16.607  68.413  1.00  0.00    -0.359 OA 
HETATM   28  C   UNL     1     -10.355  18.857  68.332  1.00  0.00    -0.361 C  
HETATM   29  C   UNL     1      -9.704  17.202  66.573  1.00  0.00    -0.299 C  
HETATM   30  O   UNL     1      -8.551  15.812  69.280  1.00  0.00    -0.240 OA 
HETATM   31  O   UNL     1      -7.802  17.917  69.068  1.00  0.00    -0.212 OA 
HETATM   32  C   UNL     1      -9.988  17.386  68.070  1.00  0.00    -0.302 C  
HETATM   33  C   UNL     1      -8.684  17.093  68.861  1.00  0.00    -0.185 C  
ENDBRANCH  25  27
ENDBRANCH  24  25
BRANCH  24  34
HETATM   34  C   UNL     1     -12.325  15.014  70.200  1.00  0.00    -0.333 A  
HETATM   35  H2  UNL     1     -12.546  17.296  73.795  1.00  0.00     0.000 HD 
HETATM   36  C   UNL     1     -13.541  14.607  70.720  1.00  0.00    -0.069 A  
HETATM   37  S   UNL     1     -13.865  15.436  72.182  1.00  0.00    -0.555 SA 
HETATM   38  H1  UNL     1     -11.074  17.627  72.886  1.00  0.00     0.000 HD 
HETATM   39  N   UNL     1     -11.961  17.131  72.975  1.00  0.00     0.234 NA 
HETATM   40  N   UNL     1     -11.685  16.000  70.954  1.00  0.00    -0.411 NA 
HETATM   41  C   UNL     1     -12.373  16.269  72.034  1.00  0.00    -0.286 A  
ENDBRANCH  24  34
ENDBRANCH  23  24
ENDBRANCH   7  20
TORSDOF 7
ENDMDL
MODEL      208
REMARK 921   NORMALIZED FREE ENERGY PREDICTED BY IDOCK:   -1.26 KCAL/MOL
REMARK 922        TOTAL FREE ENERGY PREDICTED BY IDOCK:   -3.32 KCAL/MOL
REMARK 923 INTER-LIGAND FREE ENERGY PREDICTED BY IDOCK:   -3.58 KCAL/MOL
REMARK 924 INTRA-LIGAND FREE ENERGY PREDICTED BY IDOCK:    0.26 KCAL/MOL
REMARK 927      BINDING AFFINITY PREDICTED BY RF-SCORE:    0.00 PKD
ROOT
HETATM    1  O   UNL     1     -10.733  10.813  70.648  1.00  0.00     0.167 OA 
HETATM    2  C   UNL     1     -10.054  10.909  69.601  1.00  0.00     0.081 C  
HETATM    3  CA  UNL     1      -8.818   9.917  69.450  1.00  0.00    -0.187 C  
HETATM    4  OXT UNL     1     -10.201  11.706  68.623  1.00  0.00    -0.209 OA 
HETATM    5  C   UNL     1      -8.243   9.729  68.235  1.00  0.00    -0.105 C  
HETATM    6  C   UNL     1      -7.104   8.792  67.932  1.00  0.00    -0.079 C  
HETATM    7  CA  UNL     1      -7.623   7.628  71.654  1.00  0.00    -0.085 C  
HETATM    8  S   UNL     1      -6.176   8.026  69.250  1.00  0.00    -0.035 SA 
HETATM    9  N   UNL     1      -8.368   9.165  70.497  1.00  0.00    -0.176 N  
HETATM   10  O   UNL     1      -9.998   8.419  72.080  1.00  0.00    -0.247 OA 
HETATM   11  C   UNL     1      -7.019   8.695  70.687  1.00  0.00    -0.047 C  
HETATM   12  C   UNL     1      -8.911   8.521  71.565  1.00  0.00    -0.213 C  
ENDROOT
BRANCH   5  13
HETATM   13  C   UNL     1      -8.750  10.388  66.964  1.00  0.00    -0.130 C  
BRANCH  13  14
HETATM   14  N   UNL     1      -8.147   9.924  65.676  1.00  0.00    -0.123 NA 
HETATM   15  C   UNL     1      -6.584  10.160  63.887  1.00  0.00    -0.117 A  
HETATM   16  C   UNL     1      -7.365   9.340  63.083  1.00  0.00    -0.102 A  
HETATM   17  C   UNL     1      -6.988  10.431  65.195  1.00  0.00    -0.082 A  
HETATM   18  C   UNL     1      -8.863   9.048  64.932  1.00  0.00    -0.148 A  
HETATM   19  C   UNL     1      -8.504   8.759  63.620  1.00  0.00    -0.110 A  
ENDBRANCH  13  14
ENDBRANCH   5  13
BRANCH   7  20
HETATM   20  N   UNL     1      -7.823   6.205  71.165  1.00  0.00    -0.109 N  
HETATM   21  H   UNL     1      -7.275   5.456  71.590  1.00  0.00     0.000 HD 
HETATM   22  O   UNL     1      -9.344   6.695  69.475  1.00  0.00    -0.146 OA 
HETATM   23  C   UNL     1      -8.723   5.890  70.161  1.00  0.00    -0.141 C  
BRANCH  23  24
HETATM   24  C   UNL     1      -8.999   4.431  69.873  1.00  0.00    -0.093 C  
BRANCH  24  25
HETATM   25  N   UNL     1      -9.936   3.701  70.411  1.00  0.00    -0.010 NA 
HETATM   26  H   UNL     1     -10.135   2.754  70.088  1.00  0.00     0.000 HD 
BRANCH  25  27
HETATM   27  O   UNL     1     -10.652   4.292  71.459  1.00  0.00     0.029 OA 
HETATM   28  C   UNL     1     -11.285   4.194  73.761  1.00  0.00    -0.260 C  
HETATM   29  C   UNL     1      -8.876   4.128  73.093  1.00  0.00    -0.104 C  
HETATM   30  O   UNL     1     -10.072   1.496  71.599  1.00  0.00    -0.148 OA 
HETATM   31  O   UNL     1     -10.552   1.472  73.790  1.00  0.00    -0.085 OA 
HETATM   32  C   UNL     1     -10.290   3.669  72.712  1.00  0.00    -0.161 C  
HETATM   33  C   UNL     1     -10.339   2.117  72.772  1.00  0.00    -0.153 C  
ENDBRANCH  25  27
ENDBRANCH  24  25
BRANCH  24  34
HETATM   34  C   UNL     1      -8.080   3.709  68.987  1.00  0.00    -0.057 A  
HETATM   35  H2  UNL     1      -4.788   3.264  66.315  1.00  0.00     0.000 HD 
HETATM   36  C   UNL     1      -8.278   2.427  68.504  1.00  0.00    -0.056 A  
HETATM   37  S   UNL     1      -7.028   2.008  67.413  1.00  0.00    -0.040 SA 
HETATM   38  H1  UNL     1      -4.789   4.834  67.114  1.00  0.00     0.000 HD 
HETATM   39  N   UNL     1      -5.212   3.917  66.976  1.00  0.00    -0.011 NA 
HETATM   40  N   UNL     1      -6.923   4.326  68.507  1.00  0.00    -0.051 NA 
HETATM   41  C   UNL     1      -6.316   3.551  67.645  1.00  0.00    -0.037 A  
ENDBRANCH  24  34
ENDBRANCH  23  24
ENDBRANCH   7  20
TORSDOF 7
ENDMDL
MODEL      209
REMARK 921   NORMALIZED FREE ENERGY PREDICTED BY IDOCK:   -1.04 KCAL/MOL
REMARK 922        TOTAL FREE ENERGY PREDICTED BY IDOCK:   -3.01 KCAL/MOL
REMARK 923 INTER-LIGAND FREE ENERGY PREDICTED BY IDOCK:   -3.93 KCAL/MOL
REMARK 924 INTRA-LIGAND FREE ENERGY PREDICTED BY IDOCK:    0.91 KCAL/MOL
REMARK 927      BINDING AFFINITY PREDICTED BY RF-SCORE:    0.00 PKD
ROOT
HETATM    1  O   UNL     1      -5.468   7.978  70.234  1.00  0.00    -0.023 OA 
HETATM    2  C   UNL     1      -5.827   7.517  69.127  1.00  0.00    -0.030 C  
HETATM    3  CA  UNL     1      -7.271   7.937  68.605  1.00  0.00    -0.081 C  
HETATM    4  OXT UNL     1      -5.200   6.736  68.346  1.00  0.00    -0.010 OA 
HETATM    5  C   UNL     1      -7.599   7.758  67.300  1.00  0.00    -0.104 C  
HETATM    6  C   UNL     1      -8.903   8.148  66.656  1.00  0.00    -0.143 C  
HETATM    7  CA  UNL     1      -9.643   9.818  70.140  1.00  0.00    -0.237 C  
HETATM    8  S   UNL     1     -10.302   8.638  67.649  1.00  0.00    -0.249 SA 
HETATM    9  N   UNL     1      -8.171   8.567  69.414  1.00  0.00    -0.112 N  
HETATM   10  O   UNL     1      -7.294  10.048  71.075  1.00  0.00    -0.260 OA 
HETATM   11  C   UNL     1      -9.606   8.503  69.299  1.00  0.00    -0.170 C  
HETATM   12  C   UNL     1      -8.135   9.482  70.420  1.00  0.00    -0.183 C  
ENDROOT
BRANCH   5  13
HETATM   13  C   UNL     1      -6.631   7.210  66.266  1.00  0.00    -0.052 C  
BRANCH  13  14
HETATM   14  N   UNL     1      -7.072   6.003  65.501  1.00  0.00    -0.067 NA 
HETATM   15  C   UNL     1      -7.583   3.675  65.369  1.00  0.00    -0.078 A  
HETATM   16  C   UNL     1      -7.422   3.708  63.990  1.00  0.00    -0.066 A  
HETATM   17  C   UNL     1      -7.416   4.845  66.111  1.00  0.00    -0.086 A  
HETATM   18  C   UNL     1      -7.007   6.064  64.149  1.00  0.00    -0.051 A  
HETATM   19  C   UNL     1      -7.155   4.920  63.372  1.00  0.00    -0.048 A  
ENDBRANCH  13  14
ENDBRANCH   5  13
BRANCH   7  20
HETATM   20  N   UNL     1      -9.861  11.147  69.440  1.00  0.00    -0.425 N  
HETATM   21  H   UNL     1     -10.812  11.506  69.349  1.00  0.00     0.000 HD 
HETATM   22  O   UNL     1      -7.645  11.519  68.839  1.00  0.00    -0.128 OA 
HETATM   23  C   UNL     1      -8.813  11.887  68.921  1.00  0.00     0.176 C  
BRANCH  23  24
HETATM   24  C   UNL     1      -9.097  13.284  68.417  1.00  0.00    -0.137 C  
BRANCH  24  25
HETATM   25  N   UNL     1      -8.717  14.399  68.975  1.00  0.00    -0.355 NA 
HETATM   26  H   UNL     1      -7.759  14.742  68.896  1.00  0.00     0.000 HD 
BRANCH  25  27
HETATM   27  O   UNL     1      -9.698  15.097  69.688  1.00  0.00    -0.213 OA 
HETATM   28  C   UNL     1     -10.685  17.214  70.193  1.00  0.00     0.431 C  
HETATM   29  C   UNL     1     -10.439  16.449  67.824  1.00  0.00    -0.300 C  
HETATM   30  O   UNL     1      -7.352  16.500  68.851  1.00  0.00    -0.193 OA 
HETATM   31  O   UNL     1      -8.360  18.471  69.216  1.00  0.00    -0.009 OA 
HETATM   32  C   UNL     1      -9.776  16.459  69.208  1.00  0.00    -0.221 C  
HETATM   33  C   UNL     1      -8.445  17.254  69.113  1.00  0.00     0.029 C  
ENDBRANCH  25  27
ENDBRANCH  24  25
BRANCH  24  34
HETATM   34  C   UNL     1      -9.971  13.440  67.249  1.00  0.00    -0.232 A  
HETATM   35  H2  UNL     1     -11.156  14.961  63.447  1.00  0.00     0.000 HD 
HETATM   36  C   UNL     1     -11.288  13.021  67.174  1.00  0.00    -0.305 A  
HETATM   37  S   UNL     1     -11.976  13.500  65.682  1.00  0.00    -0.424 SA 
HETATM   38  H1  UNL     1      -9.475  15.332  63.817  1.00  0.00     0.000 HD 
HETATM   39  N   UNL     1     -10.358  14.895  64.079  1.00  0.00     1.067 NA 
HETATM   40  N   UNL     1      -9.520  14.107  66.108  1.00  0.00    -0.246 NA 
HETATM   41  C   UNL     1     -10.490  14.236  65.240  1.00  0.00    -0.389 A  
ENDBRANCH  24  34
ENDBRANCH  23  24
ENDBRANCH   7  20
TORSDOF 7
ENDMDL
MODEL      210
REMARK 921   NORMALIZED FREE ENERGY PREDICTED BY IDOCK:    0.74 KCAL/MOL
REMARK 922        TOTAL FREE ENERGY PREDICTED BY IDOCK:   -0.49 KCAL/MOL
REMARK 923 INTER-LIGAND FREE ENERGY PREDICTED BY IDOCK:    0.52 KCAL/MOL
REMARK 924 INTRA-LIGAND FREE ENERGY PREDICTED BY IDOCK:   -1.01 KCAL/MOL
REMARK 927      BINDING AFFINITY PREDICTED BY RF-SCORE:    0.00 PKD
ROOT
HETATM    1  O   UNL     1      -8.685   5.704  70.943  1.00  0.00    -0.129 OA 
HETATM    2  C   UNL     1      -9.057   5.610  69.753  1.00  0.00    -0.138 C  
HETATM    3  CA  UNL     1      -9.754   6.889  69.111  1.00  0.00    -0.155 C  
HETATM    4  OXT UNL     1      -8.969   4.617  68.965  1.00  0.00    -0.101 OA 
HETATM    5  C   UNL     1      -9.885   6.986  67.763  1.00  0.00    -0.166 C  
HETATM    6  C   UNL     1     -10.477   8.152  67.015  1.00  0.00    -0.326 C  
HETATM    7  CA  UNL     1     -10.539   9.857  70.560  1.00  0.00    -0.293 C  
HETATM    8  S   UNL     1     -11.360   9.438  67.880  1.00  0.00     0.840 SA 
HETATM    9  N   UNL     1     -10.146   7.951  69.873  1.00  0.00    -0.193 N  
HETATM   10  O   UNL     1      -8.822   8.457  71.800  1.00  0.00    -0.157 OA 
HETATM   11  C   UNL     1     -11.224   8.859  69.574  1.00  0.00     0.103 C  
HETATM   12  C   UNL     1      -9.697   8.600  70.981  1.00  0.00    -0.210 C  
ENDROOT
BRANCH   5  13
HETATM   13  C   UNL     1      -9.351   5.944  66.798  1.00  0.00    -0.136 C  
BRANCH  13  14
HETATM   14  N   UNL     1      -8.040   6.239  66.142  1.00  0.00    -0.112 NA 
HETATM   15  C   UNL     1      -5.728   6.823  66.245  1.00  0.00    -0.025 A  
HETATM   16  C   UNL     1      -5.764   7.241  64.921  1.00  0.00    -0.037 A  
HETATM   17  C   UNL     1      -6.881   6.309  66.838  1.00  0.00    -0.062 A  
HETATM   18  C   UNL     1      -8.059   6.554  64.824  1.00  0.00    -0.112 A  
HETATM   19  C   UNL     1      -6.935   7.082  64.197  1.00  0.00    -0.056 A  
ENDBRANCH  13  14
ENDBRANCH   5  13
BRANCH   7  20
HETATM   20  N   UNL     1      -9.708  11.001  70.007  1.00  0.00     0.182 N  
HETATM   21  H   UNL     1      -8.725  10.835  69.787  1.00  0.00     0.000 HD 
HETATM   22  O   UNL     1     -11.357  12.637  70.131  1.00  0.00    -0.011 OA 
HETATM   23  C   UNL     1     -10.239  12.261  69.791  1.00  0.00     1.302 C  
BRANCH  23  24
HETATM   24  C   UNL     1      -9.398  13.282  69.059  1.00  0.00     0.415 C  
BRANCH  24  25
HETATM   25  N   UNL     1      -8.096  13.343  69.044  1.00  0.00    -0.332 NA 
HETATM   26  H   UNL     1      -7.537  13.136  69.872  1.00  0.00     0.000 HD 
BRANCH  25  27
HETATM   27  O   UNL     1      -7.510  13.708  67.826  1.00  0.00    -0.134 OA 
HETATM   28  C   UNL     1      -5.701  14.812  66.723  1.00  0.00     2.002 C  
HETATM   29  C   UNL     1      -5.266  13.030  68.422  1.00  0.00    -0.071 C  
HETATM   30  O   UNL     1      -6.899  15.245  70.158  1.00  0.00    -0.126 OA 
HETATM   31  O   UNL     1      -5.131  16.165  69.128  1.00  0.00    -0.108 OA 
HETATM   32  C   UNL     1      -6.174  14.212  68.057  1.00  0.00    -0.145 C  
HETATM   33  C   UNL     1      -6.011  15.314  69.139  1.00  0.00    -0.101 C  
ENDBRANCH  25  27
ENDBRANCH  24  25
BRANCH  24  34
HETATM   34  C   UNL     1     -10.080  14.386  68.376  1.00  0.00    -0.244 A  
HETATM   35  H2  UNL     1     -10.903  18.458  67.416  1.00  0.00     0.000 HD 
HETATM   36  C   UNL     1     -11.255  14.275  67.652  1.00  0.00    -0.304 A  
HETATM   37  S   UNL     1     -11.769  15.819  67.121  1.00  0.00     0.501 SA 
HETATM   38  H1  UNL     1      -9.416  18.281  68.343  1.00  0.00     0.000 HD 
HETATM   39  N   UNL     1     -10.224  17.858  67.886  1.00  0.00    -0.352 NA 
HETATM   40  N   UNL     1      -9.591  15.691  68.470  1.00  0.00    -0.195 NA 
HETATM   41  C   UNL     1     -10.411  16.529  67.890  1.00  0.00    -0.294 A  
ENDBRANCH  24  34
ENDBRANCH  23  24
ENDBRANCH   7  20
TORSDOF 7
ENDMDL
MODEL      211
REMARK 921   NORMALIZED FREE ENERGY PREDICTED BY IDOCK:    0.82 KCAL/MOL
REMARK 922        TOTAL FREE ENERGY PREDICTED BY IDOCK:   -0.39 KCAL/MOL
REMARK 923 INTER-LIGAND FREE ENERGY PREDICTED BY IDOCK:   -2.42 KCAL/MOL
REMARK 924 INTRA-LIGAND FREE ENERGY PREDICTED BY IDOCK:    2.03 KCAL/MOL
REMARK 927      BINDING AFFINITY PREDICTED BY RF-SCORE:    0.00 PKD
ROOT
HETATM    1  O   UNL     1     -10.027   5.286  69.866  1.00  0.00    -0.195 OA 
HETATM    2  C   UNL     1      -9.338   5.143  68.832  1.00  0.00    -0.125 C  
HETATM    3  CA  UNL     1      -9.411   6.307  67.748  1.00  0.00    -0.118 C  
HETATM    4  OXT UNL     1      -8.578   4.179  68.505  1.00  0.00    -0.090 OA 
HETATM    5  C   UNL     1      -8.467   6.391  66.777  1.00  0.00    -0.112 C  
HETATM    6  C   UNL     1      -8.382   7.459  65.718  1.00  0.00    -0.139 C  
HETATM    7  CA  UNL     1     -11.316   9.117  67.747  1.00  0.00     0.751 C  
HETATM    8  S   UNL     1      -9.733   8.594  65.455  1.00  0.00     0.490 SA 
HETATM    9  N   UNL     1     -10.351   7.295  67.819  1.00  0.00    -0.194 N  
HETATM   10  O   UNL     1     -11.046   7.983  70.002  1.00  0.00    -0.238 OA 
HETATM   11  C   UNL     1     -10.891   8.033  66.706  1.00  0.00     0.201 C  
HETATM   12  C   UNL     1     -10.984   7.998  68.797  1.00  0.00     0.182 C  
ENDROOT
BRANCH   5  13
HETATM   13  C   UNL     1      -7.284   5.444  66.682  1.00  0.00    -0.074 C  
BRANCH  13  14
HETATM   14  N   UNL     1      -7.221   4.560  65.478  1.00  0.00    -0.067 NA 
HETATM   15  C   UNL     1      -6.110   3.752  63.526  1.00  0.00    -0.014 A  
HETATM   16  C   UNL     1      -7.317   3.287  63.020  1.00  0.00    -0.053 A  
HETATM   17  C   UNL     1      -6.080   4.379  64.772  1.00  0.00    -0.026 A  
HETATM   18  C   UNL     1      -8.384   4.025  65.036  1.00  0.00    -0.105 A  
HETATM   19  C   UNL     1      -8.461   3.403  63.794  1.00  0.00    -0.090 A  
ENDBRANCH  13  14
ENDBRANCH   5  13
BRANCH   7  20
HETATM   20  N   UNL     1     -10.480  10.375  67.898  1.00  0.00    -0.194 N  
HETATM   21  H   UNL     1     -10.940  11.283  67.834  1.00  0.00     0.000 HD 
HETATM   22  O   UNL     1      -8.414   9.323  68.088  1.00  0.00    -0.119 OA 
HETATM   23  C   UNL     1      -9.114  10.330  68.121  1.00  0.00    -0.136 C  
BRANCH  23  24
HETATM   24  C   UNL     1      -8.395  11.618  68.453  1.00  0.00    -0.157 C  
BRANCH  24  25
HETATM   25  N   UNL     1      -8.654  12.797  67.960  1.00  0.00    -0.177 NA 
HETATM   26  H   UNL     1      -8.445  13.033  66.990  1.00  0.00     0.000 HD 
BRANCH  25  27
HETATM   27  O   UNL     1      -9.235  13.719  68.839  1.00  0.00    -0.042 OA 
HETATM   28  C   UNL     1      -9.410  16.001  69.523  1.00  0.00    -0.146 C  
HETATM   29  C   UNL     1      -9.808  15.345  67.143  1.00  0.00    -0.221 C  
HETATM   30  O   UNL     1      -6.737  14.377  67.614  1.00  0.00    -0.168 OA 
HETATM   31  O   UNL     1      -7.000  16.537  68.164  1.00  0.00    -0.137 OA 
HETATM   32  C   UNL     1      -8.958  15.065  68.390  1.00  0.00    -0.179 C  
HETATM   33  C   UNL     1      -7.479  15.414  68.069  1.00  0.00    -0.129 C  
ENDBRANCH  25  27
ENDBRANCH  24  25
BRANCH  24  34
HETATM   34  C   UNL     1      -7.221  11.555  69.330  1.00  0.00     0.002 A  
HETATM   35  H2  UNL     1      -4.800  10.041  72.496  1.00  0.00     0.000 HD 
HETATM   36  C   UNL     1      -6.255  12.539  69.444  1.00  0.00    -0.113 A  
HETATM   37  S   UNL     1      -5.126  12.121  70.661  1.00  0.00    -0.133 SA 
HETATM   38  H1  UNL     1      -6.136   8.961  72.105  1.00  0.00     0.000 HD 
HETATM   39  N   UNL     1      -5.619   9.822  71.927  1.00  0.00    -0.230 NA 
HETATM   40  N   UNL     1      -7.032  10.470  70.189  1.00  0.00    -0.199 NA 
HETATM   41  C   UNL     1      -5.995  10.673  70.960  1.00  0.00     0.073 A  
ENDBRANCH  24  34
ENDBRANCH  23  24
ENDBRANCH   7  20
TORSDOF 7
ENDMDL
MODEL      212
REMARK 921   NORMALIZED FREE ENERGY PREDICTED BY IDOCK:    1.53 KCAL/MOL
REMARK 922        TOTAL FREE ENERGY PREDICTED BY IDOCK:    0.61 KCAL/MOL
REMARK 923 INTER-LIGAND FREE ENERGY PREDICTED BY IDOCK:   -0.74 KCAL/MOL
REMARK 924 INTRA-LIGAND FREE ENERGY PREDICTED BY IDOCK:    1.35 KCAL/MOL
REMARK 927      BINDING AFFINITY PREDICTED BY RF-SCORE:    0.00 PKD
ROOT
HETATM    1  O   UNL     1      -9.859  17.107  68.549  1.00  0.00    -0.268 OA 
HETATM    2  C   UNL     1     -11.001  16.598  68.494  1.00  0.00    -0.339 C  
HETATM    3  CA  UNL     1     -11.162  15.280  67.617  1.00  0.00    -0.320 C  
HETATM    4  OXT UNL     1     -12.078  16.994  69.038  1.00  0.00     0.840 OA 
HETATM    5  C   UNL     1     -12.260  14.496  67.765  1.00  0.00    -0.148 C  
HETATM    6  C   UNL     1     -12.525  13.202  67.042  1.00  0.00     0.159 C  
HETATM    7  CA  UNL     1      -8.857  13.681  65.705  1.00  0.00     1.187 C  
HETATM    8  S   UNL     1     -11.518  12.707  65.655  1.00  0.00    -0.369 SA 
HETATM    9  N   UNL     1     -10.176  14.853  66.775  1.00  0.00    -0.255 N  
HETATM   10  O   UNL     1      -7.918  15.285  67.435  1.00  0.00    -0.154 OA 
HETATM   11  C   UNL     1     -10.362  14.078  65.574  1.00  0.00    -0.339 C  
HETATM   12  C   UNL     1      -8.816  14.844  66.759  1.00  0.00    -0.261 C  
ENDROOT
BRANCH   5  13
HETATM   13  C   UNL     1     -13.354  14.779  68.779  1.00  0.00     3.047 C  
BRANCH  13  14
HETATM   14  N   UNL     1     -12.943  14.851  70.215  1.00  0.00    -0.218 NA 
HETATM   15  C   UNL     1     -11.580  14.147  72.043  1.00  0.00     0.895 A  
HETATM   16  C   UNL     1     -12.514  14.642  72.944  1.00  0.00    -0.390 A  
HETATM   17  C   UNL     1     -11.808  14.274  70.673  1.00  0.00    -0.281 A  
HETATM   18  C   UNL     1     -13.812  15.421  71.084  1.00  0.00    -0.365 A  
HETATM   19  C   UNL     1     -13.629  15.307  72.458  1.00  0.00    -0.613 A  
ENDBRANCH  13  14
ENDBRANCH   5  13
BRANCH   7  20
HETATM   20  N   UNL     1      -8.490  12.321  66.270  1.00  0.00    -0.393 N  
HETATM   21  H   UNL     1      -8.000  11.655  65.672  1.00  0.00     0.000 HD 
HETATM   22  O   UNL     1      -9.492  12.597  68.351  1.00  0.00    -0.214 OA 
HETATM   23  C   UNL     1      -8.796  11.955  67.569  1.00  0.00    -0.169 C  
BRANCH  23  24
HETATM   24  C   UNL     1      -8.224  10.664  68.109  1.00  0.00    -0.116 C  
BRANCH  24  25
HETATM   25  N   UNL     1      -8.496  10.121  69.263  1.00  0.00    -0.152 NA 
HETATM   26  H   UNL     1      -8.119  10.492  70.135  1.00  0.00     0.000 HD 
BRANCH  25  27
HETATM   27  O   UNL     1      -9.334   9.000  69.235  1.00  0.00    -0.147 OA 
HETATM   28  C   UNL     1     -10.026   6.986  70.318  1.00  0.00    -0.186 C  
HETATM   29  C   UNL     1     -10.041   9.167  71.542  1.00  0.00    -0.381 C  
HETATM   30  O   UNL     1      -6.904   8.859  70.735  1.00  0.00    -0.051 OA 
HETATM   31  O   UNL     1      -7.643   7.042  71.823  1.00  0.00    -0.087 OA 
HETATM   32  C   UNL     1      -9.285   8.320  70.510  1.00  0.00    -0.151 C  
HETATM   33  C   UNL     1      -7.879   7.986  71.080  1.00  0.00    -0.090 C  
ENDBRANCH  25  27
ENDBRANCH  24  25
BRANCH  24  34
HETATM   34  C   UNL     1      -7.181   9.985  67.332  1.00  0.00    -0.085 A  
HETATM   35  H2  UNL     1      -5.499   8.047  63.928  1.00  0.00     0.000 HD 
HETATM   36  C   UNL     1      -6.007   9.469  67.852  1.00  0.00    -0.051 A  
HETATM   37  S   UNL     1      -5.127   8.657  66.628  1.00  0.00    -0.035 SA 
HETATM   38  H1  UNL     1      -7.031   8.832  63.557  1.00  0.00     0.000 HD 
HETATM   39  N   UNL     1      -6.297   8.607  64.228  1.00  0.00    -0.071 NA 
HETATM   40  N   UNL     1      -7.349   9.754  65.965  1.00  0.00    -0.099 NA 
HETATM   41  C   UNL     1      -6.362   9.034  65.498  1.00  0.00    -0.067 A  
ENDBRANCH  24  34
ENDBRANCH  23  24
ENDBRANCH   7  20
TORSDOF 7
ENDMDL
MODEL      213
REMARK 921   NORMALIZED FREE ENERGY PREDICTED BY IDOCK:    2.43 KCAL/MOL
REMARK 922        TOTAL FREE ENERGY PREDICTED BY IDOCK:    1.88 KCAL/MOL
REMARK 923 INTER-LIGAND FREE ENERGY PREDICTED BY IDOCK:   -3.52 KCAL/MOL
REMARK 924 INTRA-LIGAND FREE ENERGY PREDICTED BY IDOCK:    5.40 KCAL/MOL
REMARK 927      BINDING AFFINITY PREDICTED BY RF-SCORE:    0.00 PKD
ROOT
HETATM    1  O   UNL     1      -5.643  11.703  66.794  1.00  0.00    -0.124 OA 
HETATM    2  C   UNL     1      -6.486  11.256  65.983  1.00  0.00     0.095 C  
HETATM    3  CA  UNL     1      -8.019  11.385  66.391  1.00  0.00    -0.088 C  
HETATM    4  OXT UNL     1      -6.293  10.691  64.862  1.00  0.00    -0.072 OA 
HETATM    5  C   UNL     1      -8.986  11.234  65.451  1.00  0.00    -0.106 C  
HETATM    6  C   UNL     1     -10.468  11.374  65.679  1.00  0.00    -0.262 C  
HETATM    7  CA  UNL     1      -9.381  12.582  69.261  1.00  0.00     0.907 C  
HETATM    8  S   UNL     1     -11.134  11.471  67.331  1.00  0.00    -0.297 SA 
HETATM    9  N   UNL     1      -8.398  11.742  67.653  1.00  0.00    -0.138 N  
HETATM   10  O   UNL     1      -6.970  13.255  68.833  1.00  0.00    -0.101 OA 
HETATM   11  C   UNL     1      -9.629  11.373  68.305  1.00  0.00    -0.192 C  
HETATM   12  C   UNL     1      -7.942  12.566  68.634  1.00  0.00    -0.029 C  
ENDROOT
BRANCH   5  13
HETATM   13  C   UNL     1      -8.689  10.988  63.983  1.00  0.00     0.091 C  
BRANCH  13  14
HETATM   14  N   UNL     1      -8.333   9.590  63.590  1.00  0.00    -0.163 NA 
HETATM   15  C   UNL     1      -8.256   7.245  64.027  1.00  0.00     0.063 A  
HETATM   16  C   UNL     1      -7.255   7.090  63.077  1.00  0.00    -0.069 A  
HETATM   17  C   UNL     1      -8.796   8.509  64.261  1.00  0.00     0.258 A  
HETATM   18  C   UNL     1      -7.426   9.433  62.596  1.00  0.00    -0.102 A  
HETATM   19  C   UNL     1      -6.853   8.192  62.338  1.00  0.00    -0.087 A  
ENDBRANCH  13  14
ENDBRANCH   5  13
BRANCH   7  20
HETATM   20  N   UNL     1     -10.139  13.878  69.037  1.00  0.00    -0.427 N  
HETATM   21  H   UNL     1     -11.085  13.966  69.409  1.00  0.00     0.000 HD 
HETATM   22  O   UNL     1      -8.525  14.931  67.735  1.00  0.00    -0.142 OA 
HETATM   23  C   UNL     1      -9.589  14.944  68.346  1.00  0.00    -0.209 C  
BRANCH  23  24
HETATM   24  C   UNL     1     -10.333  16.260  68.338  1.00  0.00    -0.271 C  
BRANCH  24  25
HETATM   25  N   UNL     1     -11.576  16.446  68.685  1.00  0.00    -0.238 NA 
HETATM   26  H   UNL     1     -12.346  16.311  68.029  1.00  0.00     0.000 HD 
BRANCH  25  27
HETATM   27  O   UNL     1     -11.794  16.843  70.010  1.00  0.00     0.725 OA 
HETATM   28  C   UNL     1     -12.212  16.167  72.263  1.00  0.00    -0.577 C  
HETATM   29  C   UNL     1     -10.257  15.256  70.996  1.00  0.00     0.649 C  
HETATM   30  O   UNL     1     -12.769  14.292  69.164  1.00  0.00     0.041 OA 
HETATM   31  O   UNL     1     -13.026  13.647  71.298  1.00  0.00    -0.341 OA 
HETATM   32  C   UNL     1     -11.724  15.693  70.883  1.00  0.00    -0.387 C  
HETATM   33  C   UNL     1     -12.580  14.457  70.495  1.00  0.00    -0.353 C  
ENDBRANCH  25  27
ENDBRANCH  24  25
BRANCH  24  34
HETATM   34  C   UNL     1      -9.655  17.442  67.795  1.00  0.00    -0.264 A  
HETATM   35  H2  UNL     1      -7.398  21.054  67.955  1.00  0.00     0.000 HD 
HETATM   36  C   UNL     1      -9.798  17.922  66.505  1.00  0.00    -0.343 A  
HETATM   37  S   UNL     1      -8.927  19.384  66.320  1.00  0.00    -0.299 SA 
HETATM   38  H1  UNL     1      -7.382  20.192  69.490  1.00  0.00     0.000 HD 
HETATM   39  N   UNL     1      -7.678  20.250  68.516  1.00  0.00    -0.048 NA 
HETATM   40  N   UNL     1      -8.832  18.225  68.607  1.00  0.00    -0.304 NA 
HETATM   41  C   UNL     1      -8.429  19.287  67.959  1.00  0.00    -0.317 A  
ENDBRANCH  24  34
ENDBRANCH  23  24
ENDBRANCH   7  20
TORSDOF 7
ENDMDL
MODEL      214
REMARK 921   NORMALIZED FREE ENERGY PREDICTED BY IDOCK:    2.69 KCAL/MOL
REMARK 922        TOTAL FREE ENERGY PREDICTED BY IDOCK:    2.26 KCAL/MOL
REMARK 923 INTER-LIGAND FREE ENERGY PREDICTED BY IDOCK:   -1.80 KCAL/MOL
REMARK 924 INTRA-LIGAND FREE ENERGY PREDICTED BY IDOCK:    4.05 KCAL/MOL
REMARK 927      BINDING AFFINITY PREDICTED BY RF-SCORE:    0.00 PKD
ROOT
HETATM    1  O   UNL     1     -13.407   9.810  69.924  1.00  0.00     0.586 OA 
HETATM    2  C   UNL     1     -12.422   9.243  70.447  1.00  0.00     0.310 C  
HETATM    3  CA  UNL     1     -10.980   9.781  70.043  1.00  0.00    -0.277 C  
HETATM    4  OXT UNL     1     -12.402   8.270  71.263  1.00  0.00    -0.303 OA 
HETATM    5  C   UNL     1      -9.898   9.454  70.794  1.00  0.00    -0.348 C  
HETATM    6  C   UNL     1      -8.486   9.925  70.562  1.00  0.00     0.220 C  
HETATM    7  CA  UNL     1     -10.141  12.196  67.809  1.00  0.00    -0.199 C  
HETATM    8  S   UNL     1      -8.038  10.757  69.049  1.00  0.00    -0.118 SA 
HETATM    9  N   UNL     1     -10.803  10.651  69.006  1.00  0.00    -0.218 N  
HETATM   10  O   UNL     1     -12.556  12.226  68.594  1.00  0.00     0.207 OA 
HETATM   11  C   UNL     1      -9.618  10.777  68.196  1.00  0.00    -0.160 C  
HETATM   12  C   UNL     1     -11.481  11.693  68.455  1.00  0.00    -0.297 C  
ENDROOT
BRANCH   5  13
HETATM   13  C   UNL     1      -9.985   8.621  72.061  1.00  0.00    -0.329 C  
BRANCH  13  14
HETATM   14  N   UNL     1      -8.754   7.874  72.464  1.00  0.00    -0.138 NA 
HETATM   15  C   UNL     1      -6.722   7.694  73.703  1.00  0.00    -0.094 A  
HETATM   16  C   UNL     1      -6.269   6.708  72.836  1.00  0.00    -0.054 A  
HETATM   17  C   UNL     1      -7.982   8.259  73.507  1.00  0.00    -0.162 A  
HETATM   18  C   UNL     1      -8.360   6.848  71.672  1.00  0.00    -0.109 A  
HETATM   19  C   UNL     1      -7.107   6.264  71.825  1.00  0.00    -0.085 A  
ENDBRANCH  13  14
ENDBRANCH   5  13
BRANCH   7  20
HETATM   20  N   UNL     1      -9.550  13.420  68.485  1.00  0.00    -0.356 N  
HETATM   21  H   UNL     1      -8.776  13.297  69.138  1.00  0.00     0.000 HD 
HETATM   22  O   UNL     1     -11.027  14.980  67.593  1.00  0.00    -0.286 OA 
HETATM   23  C   UNL     1     -10.026  14.697  68.244  1.00  0.00    -0.222 C  
BRANCH  23  24
HETATM   24  C   UNL     1      -9.257  15.871  68.806  1.00  0.00    -0.218 C  
BRANCH  24  25
HETATM   25  N   UNL     1      -9.713  16.770  69.632  1.00  0.00     0.061 NA 
HETATM   26  H   UNL     1     -10.593  16.645  70.133  1.00  0.00     0.000 HD 
BRANCH  25  27
HETATM   27  O   UNL     1      -8.926  17.917  69.793  1.00  0.00     0.784 OA 
HETATM   28  C   UNL     1      -8.499  20.168  69.114  1.00  0.00     0.378 C  
HETATM   29  C   UNL     1     -10.776  19.473  69.882  1.00  0.00     1.334 C  
HETATM   30  O   UNL     1     -10.298  17.531  67.315  1.00  0.00    -0.322 OA 
HETATM   31  O   UNL     1      -9.988  19.685  66.770  1.00  0.00    -0.348 OA 
HETATM   32  C   UNL     1      -9.533  19.029  69.098  1.00  0.00    -0.190 C  
HETATM   33  C   UNL     1      -9.940  18.801  67.616  1.00  0.00    -0.345 C  
ENDBRANCH  25  27
ENDBRANCH  24  25
BRANCH  24  34
HETATM   34  C   UNL     1      -7.896  16.113  68.314  1.00  0.00    -0.153 A  
HETATM   35  H2  UNL     1      -4.385  18.403  67.536  1.00  0.00     0.000 HD 
HETATM   36  C   UNL     1      -7.187  15.269  67.477  1.00  0.00    -0.197 A  
HETATM   37  S   UNL     1      -5.690  15.981  67.052  1.00  0.00     0.382 SA 
HETATM   38  H1  UNL     1      -5.497  19.237  68.617  1.00  0.00     0.000 HD 
HETATM   39  N   UNL     1      -5.262  18.418  68.057  1.00  0.00    -0.164 NA 
HETATM   40  N   UNL     1      -7.227  17.298  68.628  1.00  0.00    -0.221 NA 
HETATM   41  C   UNL     1      -6.085  17.360  67.993  1.00  0.00    -0.150 A  
ENDBRANCH  24  34
ENDBRANCH  23  24
ENDBRANCH   7  20
TORSDOF 7
ENDMDL
MODEL      215
REMARK 921   NORMALIZED FREE ENERGY PREDICTED BY IDOCK:    2.90 KCAL/MOL
REMARK 922        TOTAL FREE ENERGY PREDICTED BY IDOCK:    2.54 KCAL/MOL
REMARK 923 INTER-LIGAND FREE ENERGY PREDICTED BY IDOCK:    0.74 KCAL/MOL
REMARK 924 INTRA-LIGAND FREE ENERGY PREDICTED BY IDOCK:    1.81 KCAL/MOL
REMARK 927      BINDING AFFINITY PREDICTED BY RF-SCORE:    0.00 PKD
ROOT
HETATM    1  O   UNL     1     -12.136   7.962  66.755  1.00  0.00     3.899 OA 
HETATM    2  C   UNL     1     -10.988   7.520  66.982  1.00  0.00    -0.035 C  
HETATM    3  CA  UNL     1      -9.785   8.558  66.896  1.00  0.00    -0.221 C  
HETATM    4  OXT UNL     1     -10.631   6.335  67.266  1.00  0.00    -0.220 OA 
HETATM    5  C   UNL     1      -8.580   8.247  67.438  1.00  0.00    -0.125 C  
HETATM    6  C   UNL     1      -7.370   9.143  67.474  1.00  0.00    -0.084 C  
HETATM    7  CA  UNL     1      -9.841  11.839  66.024  1.00  0.00    -0.232 C  
HETATM    8  S   UNL     1      -7.317  10.646  66.515  1.00  0.00    -0.140 SA 
HETATM    9  N   UNL     1      -9.951   9.808  66.373  1.00  0.00    -0.233 N  
HETATM   10  O   UNL     1     -12.082  10.847  66.688  1.00  0.00     0.651 OA 
HETATM   11  C   UNL     1      -8.933  10.602  65.733  1.00  0.00    -0.182 C  
HETATM   12  C   UNL     1     -10.929  10.753  66.343  1.00  0.00    -0.038 C  
ENDROOT
BRANCH   5  13
HETATM   13  C   UNL     1      -8.312   6.953  68.185  1.00  0.00    -0.118 C  
BRANCH  13  14
HETATM   14  N   UNL     1      -7.938   5.762  67.360  1.00  0.00    -0.102 NA 
HETATM   15  C   UNL     1      -7.530   3.423  67.119  1.00  0.00    -0.071 A  
HETATM   16  C   UNL     1      -6.795   3.660  65.965  1.00  0.00    -0.060 A  
HETATM   17  C   UNL     1      -8.109   4.494  67.800  1.00  0.00    -0.099 A  
HETATM   18  C   UNL     1      -7.305   5.992  66.185  1.00  0.00    -0.081 A  
HETATM   19  C   UNL     1      -6.702   4.955  65.481  1.00  0.00    -0.056 A  
ENDBRANCH  13  14
ENDBRANCH   5  13
BRANCH   7  20
HETATM   20  N   UNL     1      -9.513  12.747  67.195  1.00  0.00    -0.216 N  
HETATM   21  H   UNL     1      -8.581  13.158  67.254  1.00  0.00     0.000 HD 
HETATM   22  O   UNL     1     -11.539  12.514  68.314  1.00  0.00    -0.285 OA 
HETATM   23  C   UNL     1     -10.436  13.037  68.185  1.00  0.00    -0.245 C  
BRANCH  23  24
HETATM   24  C   UNL     1     -10.091  14.100  69.203  1.00  0.00    -0.010 C  
BRANCH  24  25
HETATM   25  N   UNL     1     -10.727  14.339  70.317  1.00  0.00    -0.295 NA 
HETATM   26  H   UNL     1     -10.265  14.276  71.224  1.00  0.00     0.000 HD 
BRANCH  25  27
HETATM   27  O   UNL     1     -12.077  14.685  70.194  1.00  0.00    -0.289 OA 
HETATM   28  C   UNL     1     -14.323  14.284  70.905  1.00  0.00     0.484 C  
HETATM   29  C   UNL     1     -12.523  14.775  72.570  1.00  0.00    -0.414 C  
HETATM   30  O   UNL     1     -11.412  12.071  71.140  1.00  0.00     1.011 OA 
HETATM   31  O   UNL     1     -13.500  11.782  71.909  1.00  0.00    -0.371 OA 
HETATM   32  C   UNL     1     -12.841  14.059  71.250  1.00  0.00    -0.358 C  
HETATM   33  C   UNL     1     -12.645  12.532  71.456  1.00  0.00    -0.148 C  
ENDBRANCH  25  27
ENDBRANCH  24  25
BRANCH  24  34
HETATM   34  C   UNL     1      -9.010  15.041  68.891  1.00  0.00    -0.202 A  
HETATM   35  H2  UNL     1      -5.539  16.450  66.856  1.00  0.00     0.000 HD 
HETATM   36  C   UNL     1      -8.649  16.129  69.666  1.00  0.00     0.219 A  
HETATM   37  S   UNL     1      -7.267  16.892  69.005  1.00  0.00    -0.211 SA 
HETATM   38  H1  UNL     1      -6.249  15.045  66.066  1.00  0.00     0.000 HD 
HETATM   39  N   UNL     1      -6.268  15.737  66.815  1.00  0.00    -0.089 NA 
HETATM   40  N   UNL     1      -8.202  14.849  67.768  1.00  0.00    -0.146 NA 
HETATM   41  C   UNL     1      -7.233  15.728  67.746  1.00  0.00    -0.153 A  
ENDBRANCH  24  34
ENDBRANCH  23  24
ENDBRANCH   7  20
TORSDOF 7
ENDMDL
MODEL      216
REMARK 921   NORMALIZED FREE ENERGY PREDICTED BY IDOCK:    4.31 KCAL/MOL
REMARK 922        TOTAL FREE ENERGY PREDICTED BY IDOCK:    4.54 KCAL/MOL
REMARK 923 INTER-LIGAND FREE ENERGY PREDICTED BY IDOCK:    2.41 KCAL/MOL
REMARK 924 INTRA-LIGAND FREE ENERGY PREDICTED BY IDOCK:    2.13 KCAL/MOL
REMARK 927      BINDING AFFINITY PREDICTED BY RF-SCORE:    0.00 PKD
ROOT
HETATM    1  O   UNL     1     -12.230   7.943  66.712  1.00  0.00     4.581 OA 
HETATM    2  C   UNL     1     -11.102   7.447  66.927  1.00  0.00     0.221 C  
HETATM    3  CA  UNL     1      -9.851   8.425  66.816  1.00  0.00    -0.259 C  
HETATM    4  OXT UNL     1     -10.798   6.248  67.216  1.00  0.00    -0.301 OA 
HETATM    5  C   UNL     1      -8.655   8.060  67.343  1.00  0.00    -0.125 C  
HETATM    6  C   UNL     1      -7.403   8.897  67.355  1.00  0.00    -0.081 C  
HETATM    7  CA  UNL     1      -9.761  11.698  65.918  1.00  0.00    -0.235 C  
HETATM    8  S   UNL     1      -7.291  10.388  66.383  1.00  0.00    -0.126 SA 
HETATM    9  N   UNL     1      -9.964   9.677  66.284  1.00  0.00    -0.256 N  
HETATM   10  O   UNL     1     -12.038  10.821  66.621  1.00  0.00     0.862 OA 
HETATM   11  C   UNL     1      -8.918  10.417  65.624  1.00  0.00    -0.176 C  
HETATM   12  C   UNL     1     -10.896  10.668  66.260  1.00  0.00    -0.027 C  
ENDROOT
BRANCH   5  13
HETATM   13  C   UNL     1      -8.440   6.760  68.097  1.00  0.00    -0.121 C  
BRANCH  13  14
HETATM   14  N   UNL     1      -8.992   6.683  69.484  1.00  0.00    -0.138 NA 
HETATM   15  C   UNL     1      -9.722   7.711  71.511  1.00  0.00    -0.191 A  
HETATM   16  C   UNL     1      -9.556   6.512  72.191  1.00  0.00    -0.151 A  
HETATM   17  C   UNL     1      -9.446   7.774  70.145  1.00  0.00    -0.160 A  
HETATM   18  C   UNL     1      -8.919   5.488  70.119  1.00  0.00    -0.136 A  
HETATM   19  C   UNL     1      -9.174   5.384  71.482  1.00  0.00    -0.169 A  
ENDBRANCH  13  14
ENDBRANCH   5  13
BRANCH   7  20
HETATM   20  N   UNL     1      -9.373  12.598  67.076  1.00  0.00    -0.213 N  
HETATM   21  H   UNL     1      -8.428  12.983  67.106  1.00  0.00     0.000 HD 
HETATM   22  O   UNL     1     -11.370  12.424  68.255  1.00  0.00    -0.240 OA 
HETATM   23  C   UNL     1     -10.257  12.915  68.092  1.00  0.00    -0.239 C  
BRANCH  23  24
HETATM   24  C   UNL     1      -9.853  13.969  69.098  1.00  0.00     0.121 C  
BRANCH  24  25
HETATM   25  N   UNL     1     -10.471  14.254  70.210  1.00  0.00    -0.046 NA 
HETATM   26  H   UNL     1     -10.009  14.184  71.117  1.00  0.00     0.000 HD 
BRANCH  25  27
HETATM   27  O   UNL     1     -11.805  14.662  70.087  1.00  0.00    -0.272 OA 
HETATM   28  C   UNL     1     -14.083  14.281  70.699  1.00  0.00     0.730 C  
HETATM   29  C   UNL     1     -12.315  14.544  72.448  1.00  0.00    -0.305 C  
HETATM   30  O   UNL     1     -11.261  11.947  70.795  1.00  0.00     0.802 OA 
HETATM   31  O   UNL     1     -13.379  11.667  71.480  1.00  0.00    -0.277 OA 
HETATM   32  C   UNL     1     -12.620  13.969  71.059  1.00  0.00    -0.366 C  
HETATM   33  C   UNL     1     -12.485  12.423  71.122  1.00  0.00    -0.222 C  
ENDBRANCH  25  27
ENDBRANCH  24  25
BRANCH  24  34
HETATM   34  C   UNL     1      -8.723  14.846  68.773  1.00  0.00    -0.182 A  
HETATM   35  H2  UNL     1      -5.204  16.057  66.692  1.00  0.00     0.000 HD 
HETATM   36  C   UNL     1      -8.288  15.910  69.545  1.00  0.00    -0.077 A  
HETATM   37  S   UNL     1      -6.873  16.592  68.867  1.00  0.00    -0.202 SA 
HETATM   38  H1  UNL     1      -6.005  14.697  65.910  1.00  0.00     0.000 HD 
HETATM   39  N   UNL     1      -5.973  15.387  66.660  1.00  0.00     0.728 NA 
HETATM   40  N   UNL     1      -7.943  14.611  67.639  1.00  0.00    -0.163 NA 
HETATM   41  C   UNL     1      -6.925  15.431  67.605  1.00  0.00    -0.184 A  
ENDBRANCH  24  34
ENDBRANCH  23  24
ENDBRANCH   7  20
TORSDOF 7
ENDMDL
MODEL      217
REMARK 921   NORMALIZED FREE ENERGY PREDICTED BY IDOCK:    4.87 KCAL/MOL
REMARK 922        TOTAL FREE ENERGY PREDICTED BY IDOCK:    5.32 KCAL/MOL
REMARK 923 INTER-LIGAND FREE ENERGY PREDICTED BY IDOCK:    1.23 KCAL/MOL
REMARK 924 INTRA-LIGAND FREE ENERGY PREDICTED BY IDOCK:    4.09 KCAL/MOL
REMARK 927      BINDING AFFINITY PREDICTED BY RF-SCORE:    0.00 PKD
ROOT
HETATM    1  O   UNL     1      -9.094  16.246  65.183  1.00  0.00     0.164 OA 
HETATM    2  C   UNL     1      -9.304  16.759  66.304  1.00  0.00    -0.279 C  
HETATM    3  CA  UNL     1     -10.143  15.898  67.347  1.00  0.00    -0.252 C  
HETATM    4  OXT UNL     1      -8.948  17.898  66.741  1.00  0.00    -0.247 OA 
HETATM    5  C   UNL     1     -10.134  16.227  68.663  1.00  0.00    -0.233 C  
HETATM    6  C   UNL     1     -10.839  15.481  69.766  1.00  0.00    -0.296 C  
HETATM    7  CA  UNL     1     -11.615  12.867  66.931  1.00  0.00    -0.368 C  
HETATM    8  S   UNL     1     -12.034  14.211  69.390  1.00  0.00    -0.337 SA 
HETATM    9  N   UNL     1     -10.806  14.765  66.972  1.00  0.00    -0.308 N  
HETATM   10  O   UNL     1      -9.826  13.455  65.228  1.00  0.00    -0.202 OA 
HETATM   11  C   UNL     1     -11.990  14.229  67.596  1.00  0.00    -0.365 C  
HETATM   12  C   UNL     1     -10.613  13.742  66.097  1.00  0.00    -0.291 C  
ENDROOT
BRANCH   5  13
HETATM   13  C   UNL     1      -9.312  17.372  69.229  1.00  0.00     0.121 C  
BRANCH  13  14
HETATM   14  N   UNL     1      -9.794  18.757  68.940  1.00  0.00    -0.387 NA 
HETATM   15  C   UNL     1     -10.539  20.910  69.652  1.00  0.00     0.879 A  
HETATM   16  C   UNL     1     -11.126  21.129  68.413  1.00  0.00     2.150 A  
HETATM   17  C   UNL     1      -9.862  19.715  69.894  1.00  0.00     0.364 A  
HETATM   18  C   UNL     1     -10.280  19.002  67.699  1.00  0.00    -0.400 A  
HETATM   19  C   UNL     1     -10.974  20.175  67.419  1.00  0.00     0.039 A  
ENDBRANCH  13  14
ENDBRANCH   5  13
BRANCH   7  20
HETATM   20  N   UNL     1     -10.948  11.788  67.764  1.00  0.00    -0.212 N  
HETATM   21  H   UNL     1      -9.969  11.903  68.027  1.00  0.00     0.000 HD 
HETATM   22  O   UNL     1     -12.753  10.322  67.830  1.00  0.00     2.813 OA 
HETATM   23  C   UNL     1     -11.624  10.654  68.180  1.00  0.00    -0.136 C  
BRANCH  23  24
HETATM   24  C   UNL     1     -10.945   9.730  69.165  1.00  0.00    -0.175 C  
BRANCH  24  25
HETATM   25  N   UNL     1      -9.753   9.215  69.046  1.00  0.00    -0.163 NA 
HETATM   26  H   UNL     1      -8.936   9.788  68.836  1.00  0.00     0.000 HD 
BRANCH  25  27
HETATM   27  O   UNL     1      -9.659   7.829  69.224  1.00  0.00    -0.159 OA 
HETATM   28  C   UNL     1      -8.269   5.968  69.781  1.00  0.00    -0.118 C  
HETATM   29  C   UNL     1      -8.454   7.932  71.318  1.00  0.00    -0.127 C  
HETATM   30  O   UNL     1      -7.285   9.296  68.605  1.00  0.00    -0.073 OA 
HETATM   31  O   UNL     1      -6.009   7.570  69.259  1.00  0.00    -0.029 OA 
HETATM   32  C   UNL     1      -8.397   7.499  69.847  1.00  0.00    -0.133 C  
HETATM   33  C   UNL     1      -7.114   8.094  69.205  1.00  0.00    -0.060 C  
ENDBRANCH  25  27
ENDBRANCH  24  25
BRANCH  24  34
HETATM   34  C   UNL     1     -11.710   9.263  70.326  1.00  0.00    -0.051 A  
HETATM   35  H2  UNL     1     -14.023   9.667  73.885  1.00  0.00     0.000 HD 
HETATM   36  C   UNL     1     -11.732   7.963  70.799  1.00  0.00    -0.218 A  
HETATM   37  S   UNL     1     -12.655   7.874  72.238  1.00  0.00    -0.135 SA 
HETATM   38  H1  UNL     1     -13.838  11.198  73.035  1.00  0.00     0.000 HD 
HETATM   39  N   UNL     1     -13.659  10.196  73.091  1.00  0.00     1.216 NA 
HETATM   40  N   UNL     1     -12.453  10.161  71.096  1.00  0.00    -0.354 NA 
HETATM   41  C   UNL     1     -12.955   9.559  72.143  1.00  0.00    -0.412 A  
ENDBRANCH  24  34
ENDBRANCH  23  24
ENDBRANCH   7  20
TORSDOF 7
ENDMDL
MODEL      218
REMARK 921   NORMALIZED FREE ENERGY PREDICTED BY IDOCK:    5.10 KCAL/MOL
REMARK 922        TOTAL FREE ENERGY PREDICTED BY IDOCK:    5.64 KCAL/MOL
REMARK 923 INTER-LIGAND FREE ENERGY PREDICTED BY IDOCK:    2.15 KCAL/MOL
REMARK 924 INTRA-LIGAND FREE ENERGY PREDICTED BY IDOCK:    3.49 KCAL/MOL
REMARK 927      BINDING AFFINITY PREDICTED BY RF-SCORE:    0.00 PKD
ROOT
HETATM    1  O   UNL     1     -13.080   8.364  72.548  1.00  0.00    -0.275 OA 
HETATM    2  C   UNL     1     -11.999   7.749  72.410  1.00  0.00    -0.289 C  
HETATM    3  CA  UNL     1     -11.234   7.934  71.027  1.00  0.00    -0.269 C  
HETATM    4  OXT UNL     1     -11.413   6.971  73.226  1.00  0.00    -0.067 OA 
HETATM    5  C   UNL     1      -9.928   7.580  70.920  1.00  0.00    -0.181 C  
HETATM    6  C   UNL     1      -9.067   7.740  69.695  1.00  0.00    -0.146 C  
HETATM    7  CA  UNL     1     -12.185   9.667  68.267  1.00  0.00     3.072 C  
HETATM    8  S   UNL     1      -9.790   8.159  68.119  1.00  0.00    -0.174 SA 
HETATM    9  N   UNL     1     -11.828   8.534  69.953  1.00  0.00     0.413 N  
HETATM   10  O   UNL     1     -13.400  10.276  70.411  1.00  0.00    -0.178 OA 
HETATM   11  C   UNL     1     -11.524   8.285  68.567  1.00  0.00     1.144 C  
HETATM   12  C   UNL     1     -12.710   9.547  69.742  1.00  0.00     1.244 C  
ENDROOT
BRANCH   5  13
HETATM   13  C   UNL     1      -9.113   7.047  72.084  1.00  0.00    -0.130 C  
BRANCH  13  14
HETATM   14  N   UNL     1      -8.599   5.648  71.964  1.00  0.00    -0.130 NA 
HETATM   15  C   UNL     1      -8.924   3.283  72.005  1.00  0.00    -0.143 A  
HETATM   16  C   UNL     1      -7.564   3.090  72.214  1.00  0.00    -0.053 A  
HETATM   17  C   UNL     1      -9.423   4.578  71.869  1.00  0.00    -0.146 A  
HETATM   18  C   UNL     1      -7.261   5.464  72.071  1.00  0.00    -0.087 A  
HETATM   19  C   UNL     1      -6.722   4.190  72.223  1.00  0.00    -0.040 A  
ENDBRANCH  13  14
ENDBRANCH   5  13
BRANCH   7  20
HETATM   20  N   UNL     1     -11.305  10.878  68.020  1.00  0.00    -0.310 N  
HETATM   21  H   UNL     1     -11.685  11.665  67.493  1.00  0.00     0.000 HD 
HETATM   22  O   UNL     1      -9.377  10.036  69.014  1.00  0.00    -0.161 OA 
HETATM   23  C   UNL     1     -10.003  10.951  68.487  1.00  0.00    -0.182 C  
BRANCH  23  24
HETATM   24  C   UNL     1      -9.267  12.266  68.367  1.00  0.00    -0.145 C  
BRANCH  24  25
HETATM   25  N   UNL     1      -9.768  13.398  67.958  1.00  0.00    -0.216 NA 
HETATM   26  H   UNL     1     -10.285  13.474  67.082  1.00  0.00     0.000 HD 
BRANCH  25  27
HETATM   27  O   UNL     1      -9.556  14.503  68.792  1.00  0.00    -0.210 OA 
HETATM   28  C   UNL     1     -10.297  16.667  69.479  1.00  0.00    -0.245 C  
HETATM   29  C   UNL     1     -11.856  14.712  69.510  1.00  0.00    -0.374 C  
HETATM   30  O   UNL     1     -11.025  14.875  66.368  1.00  0.00    -0.326 OA 
HETATM   31  O   UNL     1     -11.803  16.847  67.104  1.00  0.00     0.961 OA 
HETATM   32  C   UNL     1     -10.705  15.379  68.745  1.00  0.00    -0.241 C  
HETATM   33  C   UNL     1     -11.220  15.796  67.341  1.00  0.00    -0.179 C  
ENDBRANCH  25  27
ENDBRANCH  24  25
BRANCH  24  34
HETATM   34  C   UNL     1      -7.823  12.283  68.626  1.00  0.00    -0.063 A  
HETATM   35  H2  UNL     1      -4.290  12.765  70.963  1.00  0.00     0.000 HD 
HETATM   36  C   UNL     1      -6.837  12.267  67.655  1.00  0.00    -0.124 A  
HETATM   37  S   UNL     1      -5.293  12.416  68.380  1.00  0.00    -0.057 SA 
HETATM   38  H1  UNL     1      -5.744  12.728  71.956  1.00  0.00     0.000 HD 
HETATM   39  N   UNL     1      -5.304  12.678  71.037  1.00  0.00    -0.193 NA 
HETATM   40  N   UNL     1      -7.336  12.381  69.931  1.00  0.00     0.791 NA 
HETATM   41  C   UNL     1      -6.033  12.500  69.925  1.00  0.00    -0.144 A  
ENDBRANCH  24  34
ENDBRANCH  23  24
ENDBRANCH   7  20
TORSDOF 7
ENDMDL
MODEL      219
REMARK 921   NORMALIZED FREE ENERGY PREDICTED BY IDOCK:    5.78 KCAL/MOL
REMARK 922        TOTAL FREE ENERGY PREDICTED BY IDOCK:    6.60 KCAL/MOL
REMARK 923 INTER-LIGAND FREE ENERGY PREDICTED BY IDOCK:   -2.06 KCAL/MOL
REMARK 924 INTRA-LIGAND FREE ENERGY PREDICTED BY IDOCK:    8.66 KCAL/MOL
REMARK 927      BINDING AFFINITY PREDICTED BY RF-SCORE:    0.00 PKD
ROOT
HETATM    1  O   UNL     1      -5.148  16.547  69.341  1.00  0.00    -0.127 OA 
HETATM    2  C   UNL     1      -5.653  17.576  68.841  1.00  0.00    -0.163 C  
HETATM    3  CA  UNL     1      -6.942  17.378  67.928  1.00  0.00    -0.175 C  
HETATM    4  OXT UNL     1      -5.274  18.784  68.947  1.00  0.00    -0.189 OA 
HETATM    5  C   UNL     1      -7.730  18.440  67.625  1.00  0.00    -0.236 C  
HETATM    6  C   UNL     1      -8.999  18.397  66.816  1.00  0.00    -0.288 C  
HETATM    7  CA  UNL     1      -8.479  14.501  66.985  1.00  0.00    -0.196 C  
HETATM    8  S   UNL     1      -9.449  16.933  65.901  1.00  0.00    -0.020 SA 
HETATM    9  N   UNL     1      -7.342  16.141  67.511  1.00  0.00    -0.144 N  
HETATM   10  O   UNL     1      -6.933  14.307  68.990  1.00  0.00    -0.102 OA 
HETATM   11  C   UNL     1      -8.077  15.849  66.306  1.00  0.00    -0.017 C  
HETATM   12  C   UNL     1      -7.351  14.876  68.012  1.00  0.00    -0.130 C  
ENDROOT
BRANCH   5  13
HETATM   13  C   UNL     1      -7.478  19.841  68.156  1.00  0.00    -0.308 C  
BRANCH  13  14
HETATM   14  N   UNL     1      -6.752  19.949  69.459  1.00  0.00    -0.335 NA 
HETATM   15  C   UNL     1      -6.623  19.632  71.821  1.00  0.00     0.680 A  
HETATM   16  C   UNL     1      -5.614  20.582  71.904  1.00  0.00    -0.183 A  
HETATM   17  C   UNL     1      -7.174  19.317  70.579  1.00  0.00     1.019 A  
HETATM   18  C   UNL     1      -5.704  20.806  69.519  1.00  0.00    -0.338 A  
HETATM   19  C   UNL     1      -5.134  21.157  70.738  1.00  0.00    -0.112 A  
ENDBRANCH  13  14
ENDBRANCH   5  13
BRANCH   7  20
HETATM   20  N   UNL     1      -9.857  14.360  67.605  1.00  0.00    -0.222 N  
HETATM   21  H   UNL     1     -10.674  14.640  67.062  1.00  0.00     0.000 HD 
HETATM   22  O   UNL     1      -9.155  13.615  69.694  1.00  0.00     0.977 OA 
HETATM   23  C   UNL     1     -10.043  13.863  68.884  1.00  0.00    -0.098 C  
BRANCH  23  24
HETATM   24  C   UNL     1     -11.452  13.574  69.348  1.00  0.00    -0.282 C  
BRANCH  24  25
HETATM   25  N   UNL     1     -12.344  12.864  68.714  1.00  0.00     0.046 NA 
HETATM   26  H   UNL     1     -12.666  13.113  67.778  1.00  0.00     0.000 HD 
BRANCH  25  27
HETATM   27  O   UNL     1     -12.834  11.741  69.391  1.00  0.00     0.299 OA 
HETATM   28  C   UNL     1     -12.576   9.413  69.862  1.00  0.00     0.969 C  
HETATM   29  C   UNL     1     -10.688  11.010  70.236  1.00  0.00     0.335 C  
HETATM   30  O   UNL     1     -11.246  11.345  67.047  1.00  0.00    -0.294 OA 
HETATM   31  O   UNL     1     -10.921   9.193  67.592  1.00  0.00    -0.173 OA 
HETATM   32  C   UNL     1     -11.870  10.666  69.318  1.00  0.00    -0.237 C  
HETATM   33  C   UNL     1     -11.316  10.306  67.913  1.00  0.00    -0.105 C  
ENDBRANCH  25  27
ENDBRANCH  24  25
BRANCH  24  34
HETATM   34  C   UNL     1     -11.932  14.224  70.572  1.00  0.00    -0.331 A  
HETATM   35  H2  UNL     1     -12.110  17.265  73.554  1.00  0.00     0.000 HD 
HETATM   36  C   UNL     1     -12.705  13.619  71.548  1.00  0.00    -0.332 A  
HETATM   37  S   UNL     1     -12.944  14.691  72.860  1.00  0.00    -0.500 SA 
HETATM   38  H1  UNL     1     -11.182  17.769  72.145  1.00  0.00     0.000 HD 
HETATM   39  N   UNL     1     -11.741  17.064  72.624  1.00  0.00     0.098 NA 
HETATM   40  N   UNL     1     -11.568  15.539  70.868  1.00  0.00    -0.337 NA 
HETATM   41  C   UNL     1     -12.002  15.877  72.055  1.00  0.00    -0.513 A  
ENDBRANCH  24  34
ENDBRANCH  23  24
ENDBRANCH   7  20
TORSDOF 7
ENDMDL
MODEL      220
REMARK 921   NORMALIZED FREE ENERGY PREDICTED BY IDOCK:    6.01 KCAL/MOL
REMARK 922        TOTAL FREE ENERGY PREDICTED BY IDOCK:    6.93 KCAL/MOL
REMARK 923 INTER-LIGAND FREE ENERGY PREDICTED BY IDOCK:   -1.03 KCAL/MOL
REMARK 924 INTRA-LIGAND FREE ENERGY PREDICTED BY IDOCK:    7.97 KCAL/MOL
REMARK 927      BINDING AFFINITY PREDICTED BY RF-SCORE:    0.00 PKD
ROOT
HETATM    1  O   UNL     1      -9.681   9.907  71.332  1.00  0.00     0.221 OA 
HETATM    2  C   UNL     1      -9.196  10.364  70.274  1.00  0.00     0.641 C  
HETATM    3  CA  UNL     1      -8.007   9.541  69.610  1.00  0.00    -0.120 C  
HETATM    4  OXT UNL     1      -9.512  11.419  69.641  1.00  0.00     0.490 OA 
HETATM    5  C   UNL     1      -7.654   9.777  68.320  1.00  0.00    -0.081 C  
HETATM    6  C   UNL     1      -6.586   9.047  67.549  1.00  0.00    -0.065 C  
HETATM    7  CA  UNL     1      -6.446   6.744  70.735  1.00  0.00    -0.051 C  
HETATM    8  S   UNL     1      -5.442   7.958  68.379  1.00  0.00    -0.033 SA 
HETATM    9  N   UNL     1      -7.381   8.524  70.271  1.00  0.00    -0.050 N  
HETATM   10  O   UNL     1      -8.708   7.227  71.781  1.00  0.00    -0.117 OA 
HETATM   11  C   UNL     1      -6.020   8.093  70.073  1.00  0.00    -0.022 C  
HETATM   12  C   UNL     1      -7.729   7.547  71.152  1.00  0.00    -0.089 C  
ENDROOT
BRANCH   5  13
HETATM   13  C   UNL     1      -8.375  10.773  67.430  1.00  0.00    -0.119 C  
BRANCH  13  14
HETATM   14  N   UNL     1      -7.862  12.178  67.435  1.00  0.00    -0.159 NA 
HETATM   15  C   UNL     1      -6.073  13.757  67.410  1.00  0.00     0.161 A  
HETATM   16  C   UNL     1      -6.915  14.735  67.922  1.00  0.00    -0.173 A  
HETATM   17  C   UNL     1      -6.572  12.479  67.158  1.00  0.00    -0.055 A  
HETATM   18  C   UNL     1      -8.712  13.150  67.843  1.00  0.00    -0.192 A  
HETATM   19  C   UNL     1      -8.254  14.434  68.118  1.00  0.00    -0.149 A  
ENDBRANCH  13  14
ENDBRANCH   5  13
BRANCH   7  20
HETATM   20  N   UNL     1      -6.729   5.538  69.857  1.00  0.00    -0.049 N  
HETATM   21  H   UNL     1      -6.290   4.647  70.088  1.00  0.00     0.000 HD 
HETATM   22  O   UNL     1      -8.048   6.634  68.285  1.00  0.00    -0.109 OA 
HETATM   23  C   UNL     1      -7.563   5.609  68.755  1.00  0.00    -0.088 C  
BRANCH  23  24
HETATM   24  C   UNL     1      -7.943   4.324  68.055  1.00  0.00    -0.086 C  
BRANCH  24  25
HETATM   25  N   UNL     1      -9.001   3.599  68.291  1.00  0.00    -0.117 NA 
HETATM   26  H   UNL     1      -9.167   2.714  67.812  1.00  0.00     0.000 HD 
BRANCH  25  27
HETATM   27  O   UNL     1      -9.896   4.106  69.241  1.00  0.00    -0.180 OA 
HETATM   28  C   UNL     1     -10.627   4.093  71.515  1.00  0.00     0.258 C  
HETATM   29  C   UNL     1      -8.232   4.531  70.943  1.00  0.00    -0.088 C  
HETATM   30  O   UNL     1      -8.696   1.555  69.712  1.00  0.00    -0.048 OA 
HETATM   31  O   UNL     1      -9.289   1.639  71.874  1.00  0.00    -0.078 OA 
HETATM   32  C   UNL     1      -9.476   3.715  70.568  1.00  0.00    -0.185 C  
HETATM   33  C   UNL     1      -9.169   2.210  70.798  1.00  0.00    -0.117 C  
ENDBRANCH  25  27
ENDBRANCH  24  25
BRANCH  24  34
HETATM   34  C   UNL     1      -7.003   3.753  67.085  1.00  0.00    -0.058 A  
HETATM   35  H2  UNL     1      -5.208   3.203  63.258  1.00  0.00     0.000 HD 
HETATM   36  C   UNL     1      -6.213   2.636  67.300  1.00  0.00    -0.028 A  
HETATM   37  S   UNL     1      -5.352   2.240  65.876  1.00  0.00    -0.005 SA 
HETATM   38  H1  UNL     1      -6.279   4.601  63.295  1.00  0.00     0.000 HD 
HETATM   39  N   UNL     1      -5.842   3.813  63.774  1.00  0.00    -0.014 NA 
HETATM   40  N   UNL     1      -6.886   4.294  65.803  1.00  0.00    -0.056 NA 
HETATM   41  C   UNL     1      -6.086   3.564  65.070  1.00  0.00    -0.023 A  
ENDBRANCH  24  34
ENDBRANCH  23  24
ENDBRANCH   7  20
TORSDOF 7
ENDMDL
MODEL      221
REMARK 921   NORMALIZED FREE ENERGY PREDICTED BY IDOCK:    6.63 KCAL/MOL
REMARK 922        TOTAL FREE ENERGY PREDICTED BY IDOCK:    7.81 KCAL/MOL
REMARK 923 INTER-LIGAND FREE ENERGY PREDICTED BY IDOCK:    2.89 KCAL/MOL
REMARK 924 INTRA-LIGAND FREE ENERGY PREDICTED BY IDOCK:    4.92 KCAL/MOL
REMARK 927      BINDING AFFINITY PREDICTED BY RF-SCORE:    0.00 PKD
ROOT
HETATM    1  O   UNL     1      -9.678   9.949  71.396  1.00  0.00     0.221 OA 
HETATM    2  C   UNL     1      -9.112  10.515  70.434  1.00  0.00     1.210 C  
HETATM    3  CA  UNL     1      -7.920   9.728  69.733  1.00  0.00    -0.164 C  
HETATM    4  OXT UNL     1      -9.347  11.657  69.930  1.00  0.00     1.349 OA 
HETATM    5  C   UNL     1      -7.482  10.111  68.506  1.00  0.00    -0.086 C  
HETATM    6  C   UNL     1      -6.401   9.437  67.704  1.00  0.00    -0.058 C  
HETATM    7  CA  UNL     1      -6.544   6.738  70.562  1.00  0.00    -0.052 C  
HETATM    8  S   UNL     1      -5.354   8.196  68.444  1.00  0.00    -0.033 SA 
HETATM    9  N   UNL     1      -7.377   8.605  70.287  1.00  0.00    -0.051 N  
HETATM   10  O   UNL     1      -8.843   7.190  71.540  1.00  0.00    -0.127 OA 
HETATM   11  C   UNL     1      -6.025   8.139  70.108  1.00  0.00    -0.025 C  
HETATM   12  C   UNL     1      -7.816   7.541  71.012  1.00  0.00    -0.091 C  
ENDROOT
BRANCH   5  13
HETATM   13  C   UNL     1      -8.107  11.248  67.717  1.00  0.00    -0.119 C  
BRANCH  13  14
HETATM   14  N   UNL     1      -7.402  12.566  67.757  1.00  0.00    -0.110 NA 
HETATM   15  C   UNL     1      -7.339  14.922  67.382  1.00  0.00    -0.222 A  
HETATM   16  C   UNL     1      -5.951  14.896  67.386  1.00  0.00     0.192 A  
HETATM   17  C   UNL     1      -8.052  13.741  67.584  1.00  0.00    -0.177 A  
HETATM   18  C   UNL     1      -6.051  12.548  67.857  1.00  0.00    -0.101 A  
HETATM   19  C   UNL     1      -5.301  13.700  67.650  1.00  0.00     0.025 A  
ENDBRANCH  13  14
ENDBRANCH   5  13
BRANCH   7  20
HETATM   20  N   UNL     1      -6.823   5.671  69.519  1.00  0.00    -0.059 N  
HETATM   21  H   UNL     1      -6.492   4.720  69.686  1.00  0.00     0.000 HD 
HETATM   22  O   UNL     1      -7.850   7.058  67.960  1.00  0.00    -0.110 OA 
HETATM   23  C   UNL     1      -7.513   5.945  68.351  1.00  0.00    -0.086 C  
BRANCH  23  24
HETATM   24  C   UNL     1      -7.916   4.789  67.463  1.00  0.00    -0.094 C  
BRANCH  24  25
HETATM   25  N   UNL     1      -9.037   4.126  67.520  1.00  0.00    -0.129 NA 
HETATM   26  H   UNL     1      -9.461   3.857  68.409  1.00  0.00     0.000 HD 
BRANCH  25  27
HETATM   27  O   UNL     1      -9.626   3.803  66.292  1.00  0.00    -0.189 OA 
HETATM   28  C   UNL     1     -11.002   4.525  64.477  1.00  0.00     0.190 C  
HETATM   29  C   UNL     1      -9.005   5.858  65.177  1.00  0.00     0.084 C  
HETATM   30  O   UNL     1     -10.812   5.860  67.883  1.00  0.00    -0.271 OA 
HETATM   31  O   UNL     1     -11.993   6.589  66.120  1.00  0.00     2.135 OA 
HETATM   32  C   UNL     1     -10.170   4.995  65.681  1.00  0.00    -0.054 C  
HETATM   33  C   UNL     1     -11.097   5.880  66.560  1.00  0.00     0.063 C  
ENDBRANCH  25  27
ENDBRANCH  24  25
BRANCH  24  34
HETATM   34  C   UNL     1      -6.934   4.269  66.506  1.00  0.00    -0.059 A  
HETATM   35  H2  UNL     1      -4.849   4.054  62.794  1.00  0.00     0.000 HD 
HETATM   36  C   UNL     1      -6.245   3.076  66.637  1.00  0.00    -0.025 A  
HETATM   37  S   UNL     1      -5.289   2.791  65.246  1.00  0.00    -0.009 SA 
HETATM   38  H1  UNL     1      -5.822   5.516  62.926  1.00  0.00     0.000 HD 
HETATM   39  N   UNL     1      -5.484   4.643  63.332  1.00  0.00    -0.009 NA 
HETATM   40  N   UNL     1      -6.669   4.952  65.317  1.00  0.00    -0.051 NA 
HETATM   41  C   UNL     1      -5.858   4.257  64.562  1.00  0.00    -0.014 A  
ENDBRANCH  24  34
ENDBRANCH  23  24
ENDBRANCH   7  20
TORSDOF 7
ENDMDL
MODEL      222
REMARK 921   NORMALIZED FREE ENERGY PREDICTED BY IDOCK:    7.44 KCAL/MOL
REMARK 922        TOTAL FREE ENERGY PREDICTED BY IDOCK:    8.94 KCAL/MOL
REMARK 923 INTER-LIGAND FREE ENERGY PREDICTED BY IDOCK:   -1.95 KCAL/MOL
REMARK 924 INTRA-LIGAND FREE ENERGY PREDICTED BY IDOCK:   10.89 KCAL/MOL
REMARK 927      BINDING AFFINITY PREDICTED BY RF-SCORE:    0.00 PKD
ROOT
HETATM    1  O   UNL     1     -10.771  15.468  65.866  1.00  0.00    -0.321 OA 
HETATM    2  C   UNL     1      -9.758  15.935  66.431  1.00  0.00    -0.287 C  
HETATM    3  CA  UNL     1      -8.960  14.961  67.405  1.00  0.00    -0.189 C  
HETATM    4  OXT UNL     1      -9.266  17.104  66.350  1.00  0.00    -0.252 OA 
HETATM    5  C   UNL     1      -7.696  15.272  67.790  1.00  0.00    -0.164 C  
HETATM    6  C   UNL     1      -6.807  14.428  68.664  1.00  0.00    -0.096 C  
HETATM    7  CA  UNL     1      -9.690  11.775  68.320  1.00  0.00    -0.199 C  
HETATM    8  S   UNL     1      -7.461  13.022  69.547  1.00  0.00     0.782 SA 
HETATM    9  N   UNL     1      -9.474  13.759  67.796  1.00  0.00    -0.209 N  
HETATM   10  O   UNL     1     -10.865  12.607  66.228  1.00  0.00    -0.265 OA 
HETATM   11  C   UNL     1      -9.179  13.069  69.027  1.00  0.00     0.484 C  
HETATM   12  C   UNL     1     -10.245  12.780  67.249  1.00  0.00    -0.232 C  
ENDROOT
BRANCH   5  13
HETATM   13  C   UNL     1      -6.955  16.503  67.299  1.00  0.00    -0.173 C  
BRANCH  13  14
HETATM   14  N   UNL     1      -6.915  17.679  68.221  1.00  0.00    -0.212 NA 
HETATM   15  C   UNL     1      -7.830  19.718  69.061  1.00  0.00    -0.194 A  
HETATM   16  C   UNL     1      -6.592  20.073  69.579  1.00  0.00    -0.343 A  
HETATM   17  C   UNL     1      -7.976  18.502  68.392  1.00  0.00    -0.315 A  
HETATM   18  C   UNL     1      -5.729  17.974  68.805  1.00  0.00    -0.182 A  
HETATM   19  C   UNL     1      -5.537  19.180  69.471  1.00  0.00    -0.229 A  
ENDBRANCH  13  14
ENDBRANCH   5  13
BRANCH   7  20
HETATM   20  N   UNL     1      -8.687  10.777  67.771  1.00  0.00    -0.129 N  
HETATM   21  H   UNL     1      -7.694  10.925  67.954  1.00  0.00     0.000 HD 
HETATM   22  O   UNL     1     -10.208   9.445  66.622  1.00  0.00    -0.252 OA 
HETATM   23  C   UNL     1      -9.074   9.674  67.029  1.00  0.00    -0.135 C  
BRANCH  23  24
HETATM   24  C   UNL     1      -8.032   8.632  66.690  1.00  0.00    -0.096 C  
BRANCH  24  25
HETATM   25  N   UNL     1      -7.993   7.901  65.611  1.00  0.00    -0.109 NA 
HETATM   26  H   UNL     1      -7.983   8.315  64.679  1.00  0.00     0.000 HD 
BRANCH  25  27
HETATM   27  O   UNL     1      -7.968   6.515  65.806  1.00  0.00    -0.102 OA 
HETATM   28  C   UNL     1      -9.124   4.580  66.598  1.00  0.00    -0.123 C  
HETATM   29  C   UNL     1     -10.179   6.102  64.917  1.00  0.00     2.524 C  
HETATM   30  O   UNL     1      -9.698   8.099  67.441  1.00  0.00    -0.151 OA 
HETATM   31  O   UNL     1     -10.840   6.270  68.061  1.00  0.00    -0.272 OA 
HETATM   32  C   UNL     1      -9.288   6.046  66.165  1.00  0.00    -0.118 C  
HETATM   33  C   UNL     1     -10.011   6.787  67.323  1.00  0.00    -0.157 C  
ENDBRANCH  25  27
ENDBRANCH  24  25
BRANCH  24  34
HETATM   34  C   UNL     1      -7.011   8.313  67.694  1.00  0.00    -0.079 A  
HETATM   35  H2  UNL     1      -4.633   5.776  70.160  1.00  0.00     0.000 HD 
HETATM   36  C   UNL     1      -6.425   9.223  68.555  1.00  0.00    -0.053 A  
HETATM   37  S   UNL     1      -5.376   8.418  69.641  1.00  0.00    -0.030 SA 
HETATM   38  H1  UNL     1      -5.504   4.874  68.923  1.00  0.00     0.000 HD 
HETATM   39  N   UNL     1      -5.268   5.764  69.361  1.00  0.00    -0.004 NA 
HETATM   40  N   UNL     1      -6.594   6.995  67.889  1.00  0.00    -0.050 NA 
HETATM   41  C   UNL     1      -5.774   6.920  68.905  1.00  0.00    -0.018 A  
ENDBRANCH  24  34
ENDBRANCH  23  24
ENDBRANCH   7  20
TORSDOF 7
ENDMDL
MODEL      223
REMARK 921   NORMALIZED FREE ENERGY PREDICTED BY IDOCK:    7.63 KCAL/MOL
REMARK 922        TOTAL FREE ENERGY PREDICTED BY IDOCK:    9.21 KCAL/MOL
REMARK 923 INTER-LIGAND FREE ENERGY PREDICTED BY IDOCK:    5.11 KCAL/MOL
REMARK 924 INTRA-LIGAND FREE ENERGY PREDICTED BY IDOCK:    4.11 KCAL/MOL
REMARK 927      BINDING AFFINITY PREDICTED BY RF-SCORE:    0.00 PKD
ROOT
HETATM    1  O   UNL     1      -8.759   9.778  71.653  1.00  0.00     0.397 OA 
HETATM    2  C   UNL     1      -8.247  10.361  70.672  1.00  0.00     1.432 C  
HETATM    3  CA  UNL     1      -7.280   9.500  69.745  1.00  0.00    -0.084 C  
HETATM    4  OXT UNL     1      -8.378  11.569  70.303  1.00  0.00     1.844 OA 
HETATM    5  C   UNL     1      -6.953   9.946  68.506  1.00  0.00    -0.067 C  
HETATM    6  C   UNL     1      -6.091   9.221  67.505  1.00  0.00    -0.054 C  
HETATM    7  CA  UNL     1      -6.252   6.286  70.119  1.00  0.00    -0.031 C  
HETATM    8  S   UNL     1      -5.147   7.785  67.984  1.00  0.00    -0.032 SA 
HETATM    9  N   UNL     1      -6.837   8.265  70.122  1.00  0.00    -0.039 N  
HETATM   10  O   UNL     1      -8.318   6.934  71.446  1.00  0.00    -0.114 OA 
HETATM   11  C   UNL     1      -5.600   7.646  69.715  1.00  0.00    -0.023 C  
HETATM   12  C   UNL     1      -7.327   7.199  70.810  1.00  0.00    -0.072 C  
ENDROOT
BRANCH   5  13
HETATM   13  C   UNL     1      -7.504  11.229  67.911  1.00  0.00    -0.094 C  
BRANCH  13  14
HETATM   14  N   UNL     1      -8.352  11.096  66.686  1.00  0.00    -0.155 NA 
HETATM   15  C   UNL     1     -10.470  10.816  65.621  1.00  0.00    -0.255 A  
HETATM   16  C   UNL     1      -9.841  10.378  64.463  1.00  0.00    -0.405 A  
HETATM   17  C   UNL     1      -9.702  11.186  66.725  1.00  0.00    -0.193 A  
HETATM   18  C   UNL     1      -7.729  10.762  65.530  1.00  0.00    -0.020 A  
HETATM   19  C   UNL     1      -8.456  10.375  64.409  1.00  0.00    -0.166 A  
ENDBRANCH  13  14
ENDBRANCH   5  13
BRANCH   7  20
HETATM   20  N   UNL     1      -6.813   5.377  69.041  1.00  0.00    -0.053 N  
HETATM   21  H   UNL     1      -6.607   4.379  69.081  1.00  0.00     0.000 HD 
HETATM   22  O   UNL     1      -7.813   7.040  67.758  1.00  0.00    -0.110 OA 
HETATM   23  C   UNL     1      -7.596   5.858  68.006  1.00  0.00    -0.089 C  
BRANCH  23  24
HETATM   24  C   UNL     1      -8.272   4.862  67.091  1.00  0.00    -0.106 C  
BRANCH  24  25
HETATM   25  N   UNL     1      -9.463   4.354  67.247  1.00  0.00    -0.159 NA 
HETATM   26  H   UNL     1      -9.636   3.568  67.873  1.00  0.00     0.000 HD 
BRANCH  25  27
HETATM   27  O   UNL     1     -10.490   4.950  66.505  1.00  0.00    -0.276 OA 
HETATM   28  C   UNL     1     -12.265   6.549  66.463  1.00  0.00     4.279 C  
HETATM   29  C   UNL     1      -9.950   7.225  67.126  1.00  0.00    -0.279 C  
HETATM   30  O   UNL     1     -10.670   4.969  69.358  1.00  0.00    -0.082 OA 
HETATM   31  O   UNL     1     -12.246   6.565  69.281  1.00  0.00     0.494 OA 
HETATM   32  C   UNL     1     -10.997   6.105  67.211  1.00  0.00    -0.326 C  
HETATM   33  C   UNL     1     -11.390   5.909  68.701  1.00  0.00     0.262 C  
ENDBRANCH  25  27
ENDBRANCH  24  25
BRANCH  24  34
HETATM   34  C   UNL     1      -7.505   4.313  65.968  1.00  0.00    -0.085 A  
HETATM   35  H2  UNL     1      -6.794   1.815  62.587  1.00  0.00     0.000 HD 
HETATM   36  C   UNL     1      -6.147   4.489  65.767  1.00  0.00    -0.027 A  
HETATM   37  S   UNL     1      -5.631   3.586  64.407  1.00  0.00    -0.010 SA 
HETATM   38  H1  UNL     1      -8.486   1.808  63.075  1.00  0.00     0.000 HD 
HETATM   39  N   UNL     1      -7.533   2.146  63.208  1.00  0.00    -0.052 NA 
HETATM   40  N   UNL     1      -8.119   3.490  65.022  1.00  0.00    -0.090 NA 
HETATM   41  C   UNL     1      -7.233   3.017  64.183  1.00  0.00    -0.057 A  
ENDBRANCH  24  34
ENDBRANCH  23  24
ENDBRANCH   7  20
TORSDOF 7
ENDMDL
MODEL      224
REMARK 921   NORMALIZED FREE ENERGY PREDICTED BY IDOCK:    7.77 KCAL/MOL
REMARK 922        TOTAL FREE ENERGY PREDICTED BY IDOCK:    9.41 KCAL/MOL
REMARK 923 INTER-LIGAND FREE ENERGY PREDICTED BY IDOCK:    2.59 KCAL/MOL
REMARK 924 INTRA-LIGAND FREE ENERGY PREDICTED BY IDOCK:    6.82 KCAL/MOL
REMARK 927      BINDING AFFINITY PREDICTED BY RF-SCORE:    0.00 PKD
ROOT
HETATM    1  O   UNL     1     -12.302   7.923  66.659  1.00  0.00     5.624 OA 
HETATM    2  C   UNL     1     -11.193   7.360  66.791  1.00  0.00     0.720 C  
HETATM    3  CA  UNL     1      -9.903   8.201  66.387  1.00  0.00    -0.190 C  
HETATM    4  OXT UNL     1     -10.938   6.184  67.198  1.00  0.00    -0.335 OA 
HETATM    5  C   UNL     1      -8.674   7.800  66.801  1.00  0.00    -0.143 C  
HETATM    6  C   UNL     1      -7.376   8.517  66.537  1.00  0.00    -0.084 C  
HETATM    7  CA  UNL     1      -9.707  11.314  65.048  1.00  0.00    -0.251 C  
HETATM    8  S   UNL     1      -7.296   9.859  65.364  1.00  0.00    -0.135 SA 
HETATM    9  N   UNL     1     -10.000   9.382  65.709  1.00  0.00    -0.286 N  
HETATM   10  O   UNL     1     -11.920  10.738  66.152  1.00  0.00     0.804 OA 
HETATM   11  C   UNL     1      -9.007   9.937  64.825  1.00  0.00    -0.217 C  
HETATM   12  C   UNL     1     -10.853  10.441  65.671  1.00  0.00     0.211 C  
ENDROOT
BRANCH   5  13
HETATM   13  C   UNL     1      -8.449   6.590  67.689  1.00  0.00    -0.117 C  
BRANCH  13  14
HETATM   14  N   UNL     1      -8.831   6.728  69.129  1.00  0.00    -0.134 NA 
HETATM   15  C   UNL     1      -9.247   8.053  71.070  1.00  0.00    -0.169 A  
HETATM   16  C   UNL     1      -9.067   6.941  71.881  1.00  0.00    -0.143 A  
HETATM   17  C   UNL     1      -9.137   7.923  69.685  1.00  0.00    -0.153 A  
HETATM   18  C   UNL     1      -8.748   5.621  69.905  1.00  0.00    -0.125 A  
HETATM   19  C   UNL     1      -8.839   5.708  71.290  1.00  0.00    -0.141 A  
ENDBRANCH  13  14
ENDBRANCH   5  13
BRANCH   7  20
HETATM   20  N   UNL     1      -9.097  12.315  66.013  1.00  0.00    -0.422 N  
HETATM   21  H   UNL     1      -9.239  13.311  65.845  1.00  0.00     0.000 HD 
HETATM   22  O   UNL     1      -7.996  10.773  67.363  1.00  0.00    -0.109 OA 
HETATM   23  C   UNL     1      -8.356  11.919  67.113  1.00  0.00    -0.174 C  
BRANCH  23  24
HETATM   24  C   UNL     1      -7.954  12.968  68.126  1.00  0.00    -0.154 C  
BRANCH  24  25
HETATM   25  N   UNL     1      -7.122  12.806  69.117  1.00  0.00    -0.281 NA 
HETATM   26  H   UNL     1      -6.273  13.364  69.206  1.00  0.00     0.000 HD 
BRANCH  25  27
HETATM   27  O   UNL     1      -7.463  11.822  70.053  1.00  0.00     0.568 OA 
HETATM   28  C   UNL     1      -6.881   9.745  71.080  1.00  0.00     0.141 C  
HETATM   29  C   UNL     1      -5.260  11.649  71.037  1.00  0.00    -0.120 C  
HETATM   30  O   UNL     1      -5.763  11.108  67.868  1.00  0.00    -0.043 OA 
HETATM   31  O   UNL     1      -5.143   9.227  68.923  1.00  0.00    -0.036 OA 
HETATM   32  C   UNL     1      -6.350  10.919  70.241  1.00  0.00    -0.135 C  
HETATM   33  C   UNL     1      -5.706  10.313  68.963  1.00  0.00    -0.037 C  
ENDBRANCH  25  27
ENDBRANCH  24  25
BRANCH  24  34
HETATM   34  C   UNL     1      -8.622  14.273  68.082  1.00  0.00    -0.172 A  
HETATM   35  H2  UNL     1     -11.735  17.082  68.849  1.00  0.00     0.000 HD 
HETATM   36  C   UNL     1      -8.251  15.334  67.274  1.00  0.00    -0.204 A  
HETATM   37  S   UNL     1      -9.363  16.623  67.447  1.00  0.00    -0.224 SA 
HETATM   38  H1  UNL     1     -11.934  15.599  69.778  1.00  0.00     0.000 HD 
HETATM   39  N   UNL     1     -11.400  16.155  69.110  1.00  0.00    -0.331 NA 
HETATM   40  N   UNL     1      -9.765  14.513  68.848  1.00  0.00    -0.200 NA 
HETATM   41  C   UNL     1     -10.263  15.689  68.569  1.00  0.00    -0.211 A  
ENDBRANCH  24  34
ENDBRANCH  23  24
ENDBRANCH   7  20
TORSDOF 7
ENDMDL
MODEL      225
REMARK 921   NORMALIZED FREE ENERGY PREDICTED BY IDOCK:    8.53 KCAL/MOL
REMARK 922        TOTAL FREE ENERGY PREDICTED BY IDOCK:   10.49 KCAL/MOL
REMARK 923 INTER-LIGAND FREE ENERGY PREDICTED BY IDOCK:   -1.77 KCAL/MOL
REMARK 924 INTRA-LIGAND FREE ENERGY PREDICTED BY IDOCK:   12.26 KCAL/MOL
REMARK 927      BINDING AFFINITY PREDICTED BY RF-SCORE:    0.00 PKD
ROOT
HETATM    1  O   UNL     1     -13.256   9.070  70.187  1.00  0.00     1.024 OA 
HETATM    2  C   UNL     1     -12.143   8.627  69.829  1.00  0.00     1.075 C  
HETATM    3  CA  UNL     1     -11.197   9.617  69.017  1.00  0.00     0.011 C  
HETATM    4  OXT UNL     1     -11.647   7.471  70.013  1.00  0.00    -0.112 OA 
HETATM    5  C   UNL     1      -9.876   9.337  68.883  1.00  0.00    -0.170 C  
HETATM    6  C   UNL     1      -8.857  10.199  68.186  1.00  0.00    -0.126 C  
HETATM    7  CA  UNL     1     -11.817  12.779  67.950  1.00  0.00    -0.339 C  
HETATM    8  S   UNL     1      -9.365  11.584  67.182  1.00  0.00    -0.174 SA 
HETATM    9  N   UNL     1     -11.657  10.804  68.524  1.00  0.00    -0.292 N  
HETATM   10  O   UNL     1     -13.349  11.927  69.787  1.00  0.00     1.233 OA 
HETATM   11  C   UNL     1     -11.149  11.495  67.365  1.00  0.00    -0.282 C  
HETATM   12  C   UNL     1     -12.541  11.765  68.905  1.00  0.00     0.788 C  
ENDROOT
BRANCH   5  13
HETATM   13  C   UNL     1      -9.213   8.127  69.517  1.00  0.00    -0.158 C  
BRANCH  13  14
HETATM   14  N   UNL     1      -9.680   7.739  70.883  1.00  0.00    -0.168 NA 
HETATM   15  C   UNL     1      -9.995   6.124  72.612  1.00  0.00    -0.189 A  
HETATM   16  C   UNL     1     -10.964   6.925  73.199  1.00  0.00    -0.297 A  
HETATM   17  C   UNL     1      -9.350   6.557  71.454  1.00  0.00    -0.151 A  
HETATM   18  C   UNL     1     -10.554   8.568  71.502  1.00  0.00    -0.263 A  
HETATM   19  C   UNL     1     -11.229   8.171  72.652  1.00  0.00    -0.447 A  
ENDBRANCH  13  14
ENDBRANCH   5  13
BRANCH   7  20
HETATM   20  N   UNL     1     -10.961  13.804  68.671  1.00  0.00    -0.257 N  
HETATM   21  H   UNL     1     -11.024  13.872  69.687  1.00  0.00     0.000 HD 
HETATM   22  O   UNL     1     -10.017  14.771  66.777  1.00  0.00    -0.241 OA 
HETATM   23  C   UNL     1     -10.097  14.650  67.996  1.00  0.00    -0.227 C  
BRANCH  23  24
HETATM   24  C   UNL     1      -9.143  15.500  68.803  1.00  0.00    -0.207 C  
BRANCH  24  25
HETATM   25  N   UNL     1      -8.164  15.069  69.548  1.00  0.00    -0.396 NA 
HETATM   26  H   UNL     1      -7.958  15.479  70.459  1.00  0.00     0.000 HD 
BRANCH  25  27
HETATM   27  O   UNL     1      -7.412  14.010  69.026  1.00  0.00    -0.119 OA 
HETATM   28  C   UNL     1      -5.480  13.341  67.790  1.00  0.00    -0.098 C  
HETATM   29  C   UNL     1      -5.269  14.835  69.784  1.00  0.00    -0.093 C  
HETATM   30  O   UNL     1      -7.176  16.588  67.814  1.00  0.00    -0.130 OA 
HETATM   31  O   UNL     1      -5.292  15.961  66.770  1.00  0.00    -0.193 OA 
HETATM   32  C   UNL     1      -6.134  14.499  68.561  1.00  0.00    -0.091 C  
HETATM   33  C   UNL     1      -6.149  15.729  67.613  1.00  0.00    -0.154 C  
ENDBRANCH  25  27
ENDBRANCH  24  25
BRANCH  24  34
HETATM   34  C   UNL     1      -9.377  16.947  68.861  1.00  0.00    -0.229 A  
HETATM   35  H2  UNL     1      -8.432  21.070  68.328  1.00  0.00     0.000 HD 
HETATM   36  C   UNL     1     -10.394  17.565  69.568  1.00  0.00     0.052 A  
HETATM   37  S   UNL     1     -10.236  19.266  69.464  1.00  0.00     0.511 SA 
HETATM   38  H1  UNL     1      -7.290  20.014  67.501  1.00  0.00     0.000 HD 
HETATM   39  N   UNL     1      -8.126  20.130  68.074  1.00  0.00    -0.232 NA 
HETATM   40  N   UNL     1      -8.507  17.834  68.223  1.00  0.00    -0.269 NA 
HETATM   41  C   UNL     1      -8.830  19.071  68.501  1.00  0.00    -0.362 A  
ENDBRANCH  24  34
ENDBRANCH  23  24
ENDBRANCH   7  20
TORSDOF 7
ENDMDL
MODEL      226
REMARK 921   NORMALIZED FREE ENERGY PREDICTED BY IDOCK:    9.31 KCAL/MOL
REMARK 922        TOTAL FREE ENERGY PREDICTED BY IDOCK:   11.59 KCAL/MOL
REMARK 923 INTER-LIGAND FREE ENERGY PREDICTED BY IDOCK:   -1.19 KCAL/MOL
REMARK 924 INTRA-LIGAND FREE ENERGY PREDICTED BY IDOCK:   12.78 KCAL/MOL
REMARK 927      BINDING AFFINITY PREDICTED BY RF-SCORE:    0.00 PKD
ROOT
HETATM    1  O   UNL     1     -10.671  16.167  66.337  1.00  0.00    -0.294 OA 
HETATM    2  C   UNL     1      -9.657  16.595  66.933  1.00  0.00    -0.249 C  
HETATM    3  CA  UNL     1      -8.904  15.578  67.898  1.00  0.00    -0.171 C  
HETATM    4  OXT UNL     1      -9.135  17.752  66.889  1.00  0.00    -0.245 OA 
HETATM    5  C   UNL     1      -7.640  15.847  68.315  1.00  0.00    -0.135 C  
HETATM    6  C   UNL     1      -6.790  14.961  69.187  1.00  0.00    -0.132 C  
HETATM    7  CA  UNL     1      -9.732  12.392  68.724  1.00  0.00     0.044 C  
HETATM    8  S   UNL     1      -7.497  13.553  70.023  1.00  0.00     1.464 SA 
HETATM    9  N   UNL     1      -9.456  14.381  68.251  1.00  0.00    -0.201 N  
HETATM   10  O   UNL     1     -10.844  13.301  66.630  1.00  0.00    -0.278 OA 
HETATM   11  C   UNL     1      -9.202  13.656  69.471  1.00  0.00     1.146 C  
HETATM   12  C   UNL     1     -10.240  13.435  67.666  1.00  0.00    -0.228 C  
ENDROOT
BRANCH   5  13
HETATM   13  C   UNL     1      -6.859  17.070  67.868  1.00  0.00    -0.152 C  
BRANCH  13  14
HETATM   14  N   UNL     1      -6.817  18.228  68.813  1.00  0.00    -0.253 NA 
HETATM   15  C   UNL     1      -7.709  20.270  69.669  1.00  0.00     0.581 A  
HETATM   16  C   UNL     1      -6.477  20.588  70.225  1.00  0.00     0.125 A  
HETATM   17  C   UNL     1      -7.864  19.071  68.973  1.00  0.00    -0.233 A  
HETATM   18  C   UNL     1      -5.640  18.485  69.433  1.00  0.00    -0.220 A  
HETATM   19  C   UNL     1      -5.439  19.674  70.126  1.00  0.00    -0.261 A  
ENDBRANCH  13  14
ENDBRANCH   5  13
BRANCH   7  20
HETATM   20  N   UNL     1      -8.743  11.382  68.171  1.00  0.00    -0.148 N  
HETATM   21  H   UNL     1      -8.280  10.742  68.816  1.00  0.00     0.000 HD 
HETATM   22  O   UNL     1      -8.825  12.086  65.955  1.00  0.00    -0.101 OA 
HETATM   23  C   UNL     1      -8.449  11.301  66.821  1.00  0.00    -0.161 C  
BRANCH  23  24
HETATM   24  C   UNL     1      -7.606  10.144  66.334  1.00  0.00    -0.108 C  
BRANCH  24  25
HETATM   25  N   UNL     1      -6.756  10.170  65.346  1.00  0.00    -0.115 NA 
HETATM   26  H   UNL     1      -5.971  10.821  65.327  1.00  0.00     0.000 HD 
BRANCH  25  27
HETATM   27  O   UNL     1      -6.981   9.251  64.314  1.00  0.00    -0.093 OA 
HETATM   28  C   UNL     1      -8.417   8.538  62.542  1.00  0.00    -0.156 C  
HETATM   29  C   UNL     1      -7.593  10.897  62.651  1.00  0.00     0.011 C  
HETATM   30  O   UNL     1      -9.222  10.612  65.454  1.00  0.00    -0.175 OA 
HETATM   31  O   UNL     1     -10.505  10.030  63.707  1.00  0.00     0.646 OA 
HETATM   32  C   UNL     1      -8.076   9.704  63.486  1.00  0.00    -0.149 C  
HETATM   33  C   UNL     1      -9.391  10.106  64.209  1.00  0.00    -0.295 C  
ENDBRANCH  25  27
ENDBRANCH  24  25
BRANCH  24  34
HETATM   34  C   UNL     1      -7.816   8.825  66.940  1.00  0.00    -0.101 A  
HETATM   35  H2  UNL     1      -8.493   4.616  66.971  1.00  0.00     0.000 HD 
HETATM   36  C   UNL     1      -8.111   8.595  68.272  1.00  0.00    -0.118 A  
HETATM   37  S   UNL     1      -8.392   6.927  68.535  1.00  0.00    -0.120 SA 
HETATM   38  H1  UNL     1      -8.067   5.209  65.368  1.00  0.00     0.000 HD 
HETATM   39  N   UNL     1      -8.232   5.390  66.358  1.00  0.00    -0.109 NA 
HETATM   40  N   UNL     1      -7.787   7.670  66.156  1.00  0.00    -0.092 NA 
HETATM   41  C   UNL     1      -8.114   6.624  66.870  1.00  0.00    -0.113 A  
ENDBRANCH  24  34
ENDBRANCH  23  24
ENDBRANCH   7  20
TORSDOF 7
ENDMDL
MODEL      227
REMARK 921   NORMALIZED FREE ENERGY PREDICTED BY IDOCK:   10.99 KCAL/MOL
REMARK 922        TOTAL FREE ENERGY PREDICTED BY IDOCK:   13.95 KCAL/MOL
REMARK 923 INTER-LIGAND FREE ENERGY PREDICTED BY IDOCK:   15.32 KCAL/MOL
REMARK 924 INTRA-LIGAND FREE ENERGY PREDICTED BY IDOCK:   -1.37 KCAL/MOL
REMARK 927      BINDING AFFINITY PREDICTED BY RF-SCORE:    0.00 PKD
ROOT
HETATM    1  O   UNL     1      -8.714   5.707  70.941  1.00  0.00    -0.129 OA 
HETATM    2  C   UNL     1      -9.270   5.483  69.843  1.00  0.00    -0.138 C  
HETATM    3  CA  UNL     1     -10.216   6.626  69.267  1.00  0.00    -0.183 C  
HETATM    4  OXT UNL     1      -9.198   4.450  69.107  1.00  0.00    -0.116 OA 
HETATM    5  C   UNL     1     -10.585   6.608  67.961  1.00  0.00    -0.300 C  
HETATM    6  C   UNL     1     -11.433   7.642  67.268  1.00  0.00     1.177 C  
HETATM    7  CA  UNL     1     -11.096   9.590  70.669  1.00  0.00    -0.300 C  
HETATM    8  S   UNL     1     -12.306   8.885  68.205  1.00  0.00     6.023 SA 
HETATM    9  N   UNL     1     -10.598   7.693  70.028  1.00  0.00    -0.234 N  
HETATM   10  O   UNL     1      -9.036   8.484  71.657  1.00  0.00    -0.178 OA 
HETATM   11  C   UNL     1     -11.814   8.452  69.876  1.00  0.00     0.581 C  
HETATM   12  C   UNL     1     -10.049   8.468  71.002  1.00  0.00    -0.205 C  
ENDROOT
BRANCH   5  13
HETATM   13  C   UNL     1     -10.101   5.561  66.973  1.00  0.00    -0.194 C  
BRANCH  13  14
HETATM   14  N   UNL     1      -8.968   5.949  66.079  1.00  0.00    -0.152 NA 
HETATM   15  C   UNL     1      -8.121   6.787  64.010  1.00  0.00    -0.015 A  
HETATM   16  C   UNL     1      -6.885   6.212  64.271  1.00  0.00    -0.042 A  
HETATM   17  C   UNL     1      -9.154   6.655  64.939  1.00  0.00     0.690 A  
HETATM   18  C   UNL     1      -7.739   5.467  66.384  1.00  0.00    -0.099 A  
HETATM   19  C   UNL     1      -6.685   5.566  65.481  1.00  0.00    -0.041 A  
ENDBRANCH  13  14
ENDBRANCH   5  13
BRANCH   7  20
HETATM   20  N   UNL     1     -10.516  10.774  69.916  1.00  0.00    -0.451 N  
HETATM   21  H   UNL     1      -9.588  10.688  69.503  1.00  0.00     0.000 HD 
HETATM   22  O   UNL     1     -12.264  12.254  70.323  1.00  0.00    -0.319 OA 
HETATM   23  C   UNL     1     -11.206  11.965  69.772  1.00  0.00    -0.057 C  
BRANCH  23  24
HETATM   24  C   UNL     1     -10.641  13.018  68.845  1.00  0.00    -0.127 C  
BRANCH  24  25
HETATM   25  N   UNL     1      -9.385  13.181  68.536  1.00  0.00    -0.371 NA 
HETATM   26  H   UNL     1      -9.095  13.752  67.742  1.00  0.00     0.000 HD 
BRANCH  25  27
HETATM   27  O   UNL     1      -8.458  12.528  69.356  1.00  0.00     0.722 OA 
HETATM   28  C   UNL     1      -6.333  11.447  69.516  1.00  0.00    -0.113 C  
HETATM   29  C   UNL     1      -6.527  13.752  68.566  1.00  0.00    -0.093 C  
HETATM   30  O   UNL     1      -8.398  12.020  66.543  1.00  0.00    -0.136 OA 
HETATM   31  O   UNL     1      -6.346  11.127  66.715  1.00  0.00    -0.099 OA 
HETATM   32  C   UNL     1      -7.203  12.377  68.654  1.00  0.00    -0.104 C  
HETATM   33  C   UNL     1      -7.259  11.762  67.229  1.00  0.00    -0.142 C  
ENDBRANCH  25  27
ENDBRANCH  24  25
BRANCH  24  34
HETATM   34  C   UNL     1     -11.551  14.035  68.307  1.00  0.00    -0.329 A  
HETATM   35  H2  UNL     1     -12.906  17.984  67.446  1.00  0.00     0.000 HD 
HETATM   36  C   UNL     1     -12.848  13.803  67.882  1.00  0.00     1.439 A  
HETATM   37  S   UNL     1     -13.596  15.278  67.440  1.00  0.00     7.097 SA 
HETATM   38  H1  UNL     1     -11.236  17.961  68.005  1.00  0.00     0.000 HD 
HETATM   39  N   UNL     1     -12.090  17.459  67.762  1.00  0.00     1.809 NA 
HETATM   40  N   UNL     1     -11.163  15.375  68.246  1.00  0.00    -0.308 NA 
HETATM   41  C   UNL     1     -12.160  16.122  67.849  1.00  0.00     0.760 A  
ENDBRANCH  24  34
ENDBRANCH  23  24
ENDBRANCH   7  20
TORSDOF 7
ENDMDL
MODEL      228
REMARK 921   NORMALIZED FREE ENERGY PREDICTED BY IDOCK:   23.45 KCAL/MOL
REMARK 922        TOTAL FREE ENERGY PREDICTED BY IDOCK:   31.51 KCAL/MOL
REMARK 923 INTER-LIGAND FREE ENERGY PREDICTED BY IDOCK:   20.60 KCAL/MOL
REMARK 924 INTRA-LIGAND FREE ENERGY PREDICTED BY IDOCK:   10.91 KCAL/MOL
REMARK 927      BINDING AFFINITY PREDICTED BY RF-SCORE:    0.00 PKD
ROOT
HETATM    1  O   UNL     1     -10.001  16.692  67.990  1.00  0.00    -0.245 OA 
HETATM    2  C   UNL     1     -10.811  16.115  68.749  1.00  0.00    -0.310 C  
HETATM    3  CA  UNL     1     -11.200  14.616  68.384  1.00  0.00    -0.274 C  
HETATM    4  OXT UNL     1     -11.392  16.564  69.786  1.00  0.00    -0.239 OA 
HETATM    5  C   UNL     1     -11.797  13.825  69.311  1.00  0.00    -0.392 C  
HETATM    6  C   UNL     1     -12.178  12.379  69.125  1.00  0.00    -0.009 C  
HETATM    7  CA  UNL     1     -10.259  12.746  65.711  1.00  0.00    -0.289 C  
HETATM    8  S   UNL     1     -12.141  11.625  67.509  1.00  0.00     0.589 SA 
HETATM    9  N   UNL     1     -10.864  14.059  67.184  1.00  0.00    -0.283 N  
HETATM   10  O   UNL     1      -8.813  14.779  66.186  1.00  0.00    -0.130 OA 
HETATM   11  C   UNL     1     -11.577  13.004  66.508  1.00  0.00    -0.356 C  
HETATM   12  C   UNL     1      -9.824  14.131  66.310  1.00  0.00    -0.306 C  
ENDROOT
BRANCH   5  13
HETATM   13  C   UNL     1     -12.084  14.278  70.731  1.00  0.00    -0.348 C  
BRANCH  13  14
HETATM   14  N   UNL     1     -11.142  15.275  71.326  1.00  0.00    -0.318 NA 
HETATM   15  C   UNL     1      -9.049  15.850  72.320  1.00  0.00     8.610 A  
HETATM   16  C   UNL     1      -9.605  17.009  72.845  1.00  0.00    11.928 A  
HETATM   17  C   UNL     1      -9.836  14.996  71.546  1.00  0.00     2.546 A  
HETATM   18  C   UNL     1     -11.665  16.449  71.753  1.00  0.00    -0.324 A  
HETATM   19  C   UNL     1     -10.919  17.323  72.538  1.00  0.00     2.339 A  
ENDBRANCH  13  14
ENDBRANCH   5  13
BRANCH   7  20
HETATM   20  N   UNL     1      -9.360  11.590  66.110  1.00  0.00    -0.211 N  
HETATM   21  H   UNL     1      -8.636  11.282  65.461  1.00  0.00     0.000 HD 
HETATM   22  O   UNL     1     -10.391  11.114  68.140  1.00  0.00    -0.176 OA 
HETATM   23  C   UNL     1      -9.490  10.941  67.326  1.00  0.00    -0.159 C  
BRANCH  23  24
HETATM   24  C   UNL     1      -8.433   9.935  67.722  1.00  0.00    -0.118 C  
BRANCH  24  25
HETATM   25  N   UNL     1      -8.367   8.690  67.338  1.00  0.00    -0.115 NA 
HETATM   26  H   UNL     1      -9.130   8.034  67.506  1.00  0.00     0.000 HD 
BRANCH  25  27
HETATM   27  O   UNL     1      -7.191   8.308  66.683  1.00  0.00    -0.078 OA 
HETATM   28  C   UNL     1      -6.203   7.071  64.894  1.00  0.00    -0.037 C  
HETATM   29  C   UNL     1      -8.000   8.752  64.448  1.00  0.00    -0.144 C  
HETATM   30  O   UNL     1      -9.505   6.650  66.424  1.00  0.00    -0.168 OA 
HETATM   31  O   UNL     1      -8.595   5.598  64.664  1.00  0.00    -0.119 OA 
HETATM   32  C   UNL     1      -7.514   7.673  65.426  1.00  0.00    -0.078 C  
HETATM   33  C   UNL     1      -8.563   6.529  65.459  1.00  0.00    -0.102 C  
ENDBRANCH  25  27
ENDBRANCH  24  25
BRANCH  24  34
HETATM   34  C   UNL     1      -7.429  10.332  68.715  1.00  0.00    -0.089 A  
HETATM   35  H2  UNL     1      -5.435  12.983  71.393  1.00  0.00     0.000 HD 
HETATM   36  C   UNL     1      -6.295   9.608  69.039  1.00  0.00    -0.041 A  
HETATM   37  S   UNL     1      -5.336  10.481  70.156  1.00  0.00    -0.052 SA 
HETATM   38  H1  UNL     1      -6.962  13.645  70.816  1.00  0.00     0.000 HD 
HETATM   39  N   UNL     1      -6.282  12.885  70.831  1.00  0.00     0.004 NA 
HETATM   40  N   UNL     1      -7.534  11.554  69.383  1.00  0.00     0.030 NA 
HETATM   41  C   UNL     1      -6.479  11.760  70.129  1.00  0.00     0.065 A  
ENDBRANCH  24  34
ENDBRANCH  23  24
ENDBRANCH   7  20
TORSDOF 7
ENDMDL
MODEL      229
REMARK 921   NORMALIZED FREE ENERGY PREDICTED BY IDOCK:   35.37 KCAL/MOL
REMARK 922        TOTAL FREE ENERGY PREDICTED BY IDOCK:   48.30 KCAL/MOL
REMARK 923 INTER-LIGAND FREE ENERGY PREDICTED BY IDOCK:    7.55 KCAL/MOL
REMARK 924 INTRA-LIGAND FREE ENERGY PREDICTED BY IDOCK:   40.75 KCAL/MOL
REMARK 927      BINDING AFFINITY PREDICTED BY RF-SCORE:    0.00 PKD
ROOT
HETATM    1  O   UNL     1      -5.682  16.442  69.431  1.00  0.00    -0.133 OA 
HETATM    2  C   UNL     1      -5.970  17.615  69.108  1.00  0.00    -0.212 C  
HETATM    3  CA  UNL     1      -7.074  17.802  67.976  1.00  0.00    -0.209 C  
HETATM    4  OXT UNL     1      -5.494  18.706  69.552  1.00  0.00    -0.201 OA 
HETATM    5  C   UNL     1      -7.673  19.008  67.804  1.00  0.00    -0.273 C  
HETATM    6  C   UNL     1      -8.761  19.320  66.811  1.00  0.00    -0.313 C  
HETATM    7  CA  UNL     1      -8.697  15.442  66.154  1.00  0.00    -0.094 C  
HETATM    8  S   UNL     1      -9.179  18.162  65.520  1.00  0.00     1.339 SA 
HETATM    9  N   UNL     1      -7.515  16.752  67.224  1.00  0.00    -0.159 N  
HETATM   10  O   UNL     1      -7.593  14.609  68.283  1.00  0.00    -0.105 OA 
HETATM   11  C   UNL     1      -8.033  16.829  65.881  1.00  0.00     0.162 C  
HETATM   12  C   UNL     1      -7.754  15.426  67.409  1.00  0.00    -0.196 C  
ENDROOT
BRANCH   5  13
HETATM   13  C   UNL     1      -7.382  20.214  68.680  1.00  0.00    -0.125 C  
BRANCH  13  14
HETATM   14  N   UNL     1      -7.208  19.961  70.143  1.00  0.00     0.098 NA 
HETATM   15  C   UNL     1      -7.996  20.050  72.394  1.00  0.00     2.695 A  
HETATM   16  C   UNL     1      -6.695  19.933  72.865  1.00  0.00     2.902 A  
HETATM   17  C   UNL     1      -8.235  20.049  71.020  1.00  0.00     1.975 A  
HETATM   18  C   UNL     1      -5.949  19.750  70.594  1.00  0.00    -0.247 A  
HETATM   19  C   UNL     1      -5.664  19.757  71.956  1.00  0.00    -0.193 A  
ENDBRANCH  13  14
ENDBRANCH   5  13
BRANCH   7  20
HETATM   20  N   UNL     1     -10.176  15.376  66.491  1.00  0.00    -0.271 N  
HETATM   21  H   UNL     1     -10.836  15.905  65.920  1.00  0.00     0.000 HD 
HETATM   22  O   UNL     1      -9.976  14.051  68.392  1.00  0.00    -0.227 OA 
HETATM   23  C   UNL     1     -10.658  14.623  67.548  1.00  0.00    -0.257 C  
BRANCH  23  24
HETATM   24  C   UNL     1     -12.154  14.458  67.691  1.00  0.00    -0.277 C  
BRANCH  24  25
HETATM   25  N   UNL     1     -13.020  14.383  66.720  1.00  0.00     0.072 NA 
HETATM   26  H   UNL     1     -13.778  15.058  66.619  1.00  0.00     0.000 HD 
BRANCH  25  27
HETATM   27  O   UNL     1     -12.850  13.322  65.823  1.00  0.00    -0.385 OA 
HETATM   28  C   UNL     1     -11.319  11.875  64.696  1.00  0.00    -0.355 C  
HETATM   29  C   UNL     1     -11.268  12.101  67.186  1.00  0.00    -0.372 C  
HETATM   30  O   UNL     1     -10.687  15.150  66.210  1.00  0.00    -0.307 OA 
HETATM   31  O   UNL     1      -9.254  13.709  65.260  1.00  0.00     0.419 OA 
HETATM   32  C   UNL     1     -11.482  12.857  65.868  1.00  0.00    -0.346 C  
HETATM   33  C   UNL     1     -10.366  13.928  65.726  1.00  0.00    -0.316 C  
ENDBRANCH  25  27
ENDBRANCH  24  25
BRANCH  24  34
HETATM   34  C   UNL     1     -12.733  14.488  69.039  1.00  0.00     0.489 A  
HETATM   35  H2  UNL     1     -13.041  15.677  73.121  1.00  0.00     0.000 HD 
HETATM   36  C   UNL     1     -13.677  13.599  69.523  1.00  0.00     3.820 A  
HETATM   37  S   UNL     1     -13.993  13.915  71.175  1.00  0.00     0.354 SA 
HETATM   38  H1  UNL     1     -11.895  16.670  72.224  1.00  0.00     0.000 HD 
HETATM   39  N   UNL     1     -12.571  15.907  72.244  1.00  0.00    -0.444 NA 
HETATM   40  N   UNL     1     -12.300  15.425  69.979  1.00  0.00    -0.358 NA 
HETATM   41  C   UNL     1     -12.856  15.199  71.141  1.00  0.00    -0.401 A  
ENDBRANCH  24  34
ENDBRANCH  23  24
ENDBRANCH   7  20
TORSDOF 7
ENDMDL
