MODEL        1
REMARK 921   NORMALIZED FREE ENERGY PREDICTED BY IDOCK:   -8.33 KCAL/MOL
REMARK 922        TOTAL FREE ENERGY PREDICTED BY IDOCK:  -10.83 KCAL/MOL
REMARK 923 INTER-LIGAND FREE ENERGY PREDICTED BY IDOCK:  -10.28 KCAL/MOL
REMARK 924 INTRA-LIGAND FREE ENERGY PREDICTED BY IDOCK:   -0.55 KCAL/MOL
REMARK 927      BINDING AFFINITY PREDICTED BY RF-SCORE:    0.00 PKD
ROOT
HETATM    1  CE  UNL     1     -10.428  13.913  67.072  1.00  0.00    -0.278 C  
HETATM    2  SD  UNL     1      -9.698  12.538  67.999  1.00  0.00    -0.218 SA 
HETATM    3  CG  UNL     1      -8.761  11.900  66.583  1.00  0.00    -0.185 C  
HETATM    4  CB  UNL     1      -9.588  11.806  65.335  1.00  0.00    -0.210 C  
HETATM    5  CA  UNL     1     -10.738  12.463  65.074  1.00  0.00    -0.294 C  
HETATM    6  N   UNL     1     -11.209  13.372  65.971  1.00  0.00    -0.294 N  
HETATM    7  C   UNL     1     -11.440  12.082  63.804  1.00  0.00    -0.461 C  
HETATM    8  C   UNL     1     -12.343  14.043  66.237  1.00  0.00    -0.448 C  
HETATM    9  OXT UNL     1     -10.993  11.245  63.026  1.00  0.00    -0.116 OA 
HETATM   10  O   UNL     1     -12.587  12.730  63.523  1.00  0.00    -0.703 OA 
HETATM   11  CA  UNL     1     -11.757  14.536  67.616  1.00  0.00    -0.382 C  
HETATM   12  O   UNL     1     -13.379  14.080  65.611  1.00  0.00    -0.636 OA 
ENDROOT
BRANCH  11  13
HETATM   13  N   UNL     1     -12.397  13.918  68.808  1.00  0.00    -0.453 N  
HETATM   14  H   UNL     1     -13.186  13.290  68.655  1.00  0.00     0.000 HD 
HETATM   15  C   UNL     1     -11.994  14.138  70.102  1.00  0.00    -0.332 C  
HETATM   16  O   UNL     1     -11.126  14.968  70.371  1.00  0.00    -0.261 OA 
BRANCH  15  17
HETATM   17  C   UNL     1     -12.617  13.245  71.168  1.00  0.00    -0.412 C  
HETATM   18  C   UNL     1     -13.336  13.802  72.174  1.00  0.00    -0.569 C  
BRANCH  17  19
HETATM   19  C   UNL     1     -12.436  11.809  71.084  1.00  0.00    -0.285 A  
HETATM   20  C   UNL     1     -13.147  10.863  71.798  1.00  0.00    -0.459 A  
HETATM   21  H2  UNL     1     -10.866   8.201  69.476  1.00  0.00     0.000 HD 
HETATM   22  S   UNL     1     -12.649   9.289  71.332  1.00  0.00    -0.335 SA 
HETATM   23  H1  UNL     1     -10.132   9.625  68.751  1.00  0.00     0.000 HD 
HETATM   24  N   UNL     1     -11.513  11.286  70.192  1.00  0.00    -0.282 NA 
HETATM   25  N   UNL     1     -10.788   9.216  69.416  1.00  0.00    -0.194 NA 
HETATM   26  C   UNL     1     -11.548   9.976  70.214  1.00  0.00    -0.280 A  
ENDBRANCH  17  19
BRANCH  18  27
HETATM   27  C   UNL     1     -13.790  15.219  72.412  1.00  0.00    -0.641 C  
HETATM   28  O   UNL     1     -13.129  16.297  74.476  1.00  0.00    -0.467 OA 
HETATM   29  C   UNL     1     -12.896  16.072  73.295  1.00  0.00    -0.543 C  
HETATM   30  O   UNL     1     -11.824  16.592  72.664  1.00  0.00    -0.541 OA 
ENDBRANCH  18  27
ENDBRANCH  15  17
ENDBRANCH  11  13
TORSDOF 4
ENDMDL
MODEL        2
REMARK 921   NORMALIZED FREE ENERGY PREDICTED BY IDOCK:   -7.65 KCAL/MOL
REMARK 922        TOTAL FREE ENERGY PREDICTED BY IDOCK:   -9.99 KCAL/MOL
REMARK 923 INTER-LIGAND FREE ENERGY PREDICTED BY IDOCK:   -9.16 KCAL/MOL
REMARK 924 INTRA-LIGAND FREE ENERGY PREDICTED BY IDOCK:   -0.83 KCAL/MOL
REMARK 927      BINDING AFFINITY PREDICTED BY RF-SCORE:    0.00 PKD
ROOT
HETATM    1  CE  UNL     1     -12.093  12.451  66.193  1.00  0.00    -0.220 C  
HETATM    2  SD  UNL     1     -12.283  14.143  65.574  1.00  0.00    -0.433 SA 
HETATM    3  CG  UNL     1     -12.347  13.645  63.831  1.00  0.00    -0.316 C  
HETATM    4  CB  UNL     1     -11.269  12.669  63.467  1.00  0.00    -0.489 C  
HETATM    5  CA  UNL     1     -10.567  11.884  64.311  1.00  0.00    -0.334 C  
HETATM    6  N   UNL     1     -10.874  11.885  65.638  1.00  0.00    -0.278 N  
HETATM    7  C   UNL     1      -9.444  11.098  63.700  1.00  0.00    -0.257 C  
HETATM    8  C   UNL     1     -10.340  11.482  66.804  1.00  0.00    -0.226 C  
HETATM    9  OXT UNL     1      -9.185  11.136  62.502  1.00  0.00    -0.330 OA 
HETATM   10  O   UNL     1      -8.735  10.305  64.527  1.00  0.00    -0.171 OA 
HETATM   11  CA  UNL     1     -11.453  12.260  67.609  1.00  0.00    -0.336 C  
HETATM   12  O   UNL     1      -9.327  10.851  67.009  1.00  0.00    -0.162 OA 
ENDROOT
BRANCH  11  13
HETATM   13  N   UNL     1     -10.956  13.460  68.334  1.00  0.00    -0.256 N  
HETATM   14  H   UNL     1     -10.078  13.875  68.025  1.00  0.00     0.000 HD 
HETATM   15  C   UNL     1     -11.604  14.045  69.393  1.00  0.00    -0.297 C  
HETATM   16  O   UNL     1     -12.606  13.534  69.893  1.00  0.00    -0.187 OA 
BRANCH  15  17
HETATM   17  C   UNL     1     -11.067  15.393  69.857  1.00  0.00    -0.304 C  
HETATM   18  C   UNL     1     -11.297  15.807  71.128  1.00  0.00    -0.442 C  
BRANCH  17  19
HETATM   19  C   UNL     1     -10.308  16.210  68.931  1.00  0.00    -0.250 A  
HETATM   20  C   UNL     1      -8.956  16.485  69.017  1.00  0.00    -0.225 A  
HETATM   21  H2  UNL     1      -9.685  18.454  65.375  1.00  0.00     0.000 HD 
HETATM   22  S   UNL     1      -8.469  17.433  67.674  1.00  0.00    -0.215 SA 
HETATM   23  H1  UNL     1     -11.360  17.951  65.557  1.00  0.00     0.000 HD 
HETATM   24  N   UNL     1     -10.937  16.750  67.820  1.00  0.00    -0.274 NA 
HETATM   25  N   UNL     1     -10.406  17.975  65.914  1.00  0.00    -0.591 NA 
HETATM   26  C   UNL     1     -10.074  17.393  67.073  1.00  0.00    -0.313 A  
ENDBRANCH  17  19
BRANCH  18  27
HETATM   27  C   UNL     1     -11.916  15.106  72.310  1.00  0.00    -0.485 C  
HETATM   28  O   UNL     1     -13.015  16.457  73.991  1.00  0.00    -0.698 OA 
HETATM   29  C   UNL     1     -13.099  15.801  72.961  1.00  0.00    -0.543 C  
HETATM   30  O   UNL     1     -14.273  15.617  72.322  1.00  0.00    -0.531 OA 
ENDBRANCH  18  27
ENDBRANCH  15  17
ENDBRANCH  11  13
TORSDOF 4
ENDMDL
MODEL        3
REMARK 921   NORMALIZED FREE ENERGY PREDICTED BY IDOCK:   -7.60 KCAL/MOL
REMARK 922        TOTAL FREE ENERGY PREDICTED BY IDOCK:   -9.94 KCAL/MOL
REMARK 923 INTER-LIGAND FREE ENERGY PREDICTED BY IDOCK:   -8.96 KCAL/MOL
REMARK 924 INTRA-LIGAND FREE ENERGY PREDICTED BY IDOCK:   -0.98 KCAL/MOL
REMARK 927      BINDING AFFINITY PREDICTED BY RF-SCORE:    0.00 PKD
ROOT
HETATM    1  CE  UNL     1      -8.073  15.743  69.013  1.00  0.00    -0.224 C  
HETATM    2  SD  UNL     1      -6.882  14.510  68.425  1.00  0.00    -0.117 SA 
HETATM    3  CG  UNL     1      -5.649  15.741  67.919  1.00  0.00    -0.142 C  
HETATM    4  CB  UNL     1      -6.245  16.866  67.128  1.00  0.00    -0.215 C  
HETATM    5  CA  UNL     1      -7.542  17.238  67.097  1.00  0.00    -0.190 C  
HETATM    6  N   UNL     1      -8.439  16.605  67.901  1.00  0.00    -0.191 N  
HETATM    7  C   UNL     1      -7.896  18.312  66.109  1.00  0.00    -0.204 C  
HETATM    8  C   UNL     1      -9.771  16.477  68.033  1.00  0.00    -0.236 C  
HETATM    9  OXT UNL     1      -7.062  18.848  65.387  1.00  0.00    -0.493 OA 
HETATM   10  O   UNL     1      -9.185  18.700  66.068  1.00  0.00    -0.484 OA 
HETATM   11  CA  UNL     1      -9.579  15.323  69.092  1.00  0.00    -0.243 C  
HETATM   12  O   UNL     1     -10.661  17.031  67.427  1.00  0.00    -0.328 OA 
ENDROOT
BRANCH  11  13
HETATM   13  N   UNL     1      -9.968  13.973  68.603  1.00  0.00    -0.277 N  
HETATM   14  H   UNL     1      -9.229  13.354  68.272  1.00  0.00     0.000 HD 
HETATM   15  C   UNL     1     -11.259  13.508  68.568  1.00  0.00    -0.278 C  
HETATM   16  O   UNL     1     -12.212  14.237  68.843  1.00  0.00    -0.306 OA 
BRANCH  15  17
HETATM   17  C   UNL     1     -11.438  12.027  68.254  1.00  0.00    -0.361 C  
HETATM   18  C   UNL     1     -11.495  11.617  66.962  1.00  0.00    -0.336 C  
BRANCH  17  19
HETATM   19  C   UNL     1     -11.537  11.078  69.345  1.00  0.00    -0.312 A  
HETATM   20  C   UNL     1     -10.614  10.095  69.645  1.00  0.00    -0.257 A  
HETATM   21  H2  UNL     1     -13.201   9.429  72.892  1.00  0.00     0.000 HD 
HETATM   22  S   UNL     1     -11.102   9.250  71.056  1.00  0.00    -0.359 SA 
HETATM   23  H1  UNL     1     -14.182  10.738  72.246  1.00  0.00     0.000 HD 
HETATM   24  N   UNL     1     -12.611  11.149  70.220  1.00  0.00    -0.247 NA 
HETATM   25  N   UNL     1     -13.360  10.139  72.177  1.00  0.00    -0.410 NA 
HETATM   26  C   UNL     1     -12.484  10.258  71.172  1.00  0.00    -0.391 A  
ENDBRANCH  17  19
BRANCH  18  27
HETATM   27  C   UNL     1     -11.277  12.358  65.668  1.00  0.00    -0.360 C  
HETATM   28  O   UNL     1     -13.010  12.242  63.982  1.00  0.00    -0.740 OA 
HETATM   29  C   UNL     1     -12.527  12.826  64.943  1.00  0.00    -0.497 C  
HETATM   30  O   UNL     1     -13.057  13.967  65.430  1.00  0.00    -0.763 OA 
ENDBRANCH  18  27
ENDBRANCH  15  17
ENDBRANCH  11  13
TORSDOF 4
ENDMDL
MODEL        4
REMARK 921   NORMALIZED FREE ENERGY PREDICTED BY IDOCK:   -7.58 KCAL/MOL
REMARK 922        TOTAL FREE ENERGY PREDICTED BY IDOCK:   -9.91 KCAL/MOL
REMARK 923 INTER-LIGAND FREE ENERGY PREDICTED BY IDOCK:   -9.22 KCAL/MOL
REMARK 924 INTRA-LIGAND FREE ENERGY PREDICTED BY IDOCK:   -0.69 KCAL/MOL
REMARK 927      BINDING AFFINITY PREDICTED BY RF-SCORE:    0.00 PKD
ROOT
HETATM    1  CE  UNL     1     -10.111   9.859  68.891  1.00  0.00    -0.184 C  
HETATM    2  SD  UNL     1      -8.614  10.877  68.948  1.00  0.00    -0.104 SA 
HETATM    3  CG  UNL     1      -7.593   9.579  69.699  1.00  0.00    -0.103 C  
HETATM    4  CB  UNL     1      -8.270   8.907  70.856  1.00  0.00    -0.207 C  
HETATM    5  CA  UNL     1      -9.593   8.888  71.122  1.00  0.00    -0.272 C  
HETATM    6  N   UNL     1     -10.460   9.465  70.246  1.00  0.00    -0.231 N  
HETATM    7  C   UNL     1      -9.994   8.260  72.425  1.00  0.00    -0.309 C  
HETATM    8  C   UNL     1     -11.741   9.873  70.205  1.00  0.00    -0.216 C  
HETATM    9  OXT UNL     1      -9.181   7.764  73.199  1.00  0.00    -0.189 OA 
HETATM   10  O   UNL     1     -11.311   8.228  72.706  1.00  0.00    -0.381 OA 
HETATM   11  CA  UNL     1     -11.491  10.594  68.824  1.00  0.00    -0.262 C  
HETATM   12  O   UNL     1     -12.615   9.749  71.034  1.00  0.00    -0.317 OA 
ENDROOT
BRANCH  11  13
HETATM   13  N   UNL     1     -11.511  12.080  68.898  1.00  0.00    -0.275 N  
HETATM   14  H   UNL     1     -11.390  12.514  69.813  1.00  0.00     0.000 HD 
HETATM   15  C   UNL     1     -11.681  12.904  67.814  1.00  0.00    -0.362 C  
HETATM   16  O   UNL     1     -11.946  12.453  66.700  1.00  0.00    -0.562 OA 
BRANCH  15  17
HETATM   17  C   UNL     1     -11.444  14.392  68.049  1.00  0.00    -0.336 C  
HETATM   18  C   UNL     1     -10.991  15.168  67.033  1.00  0.00    -0.322 C  
BRANCH  17  19
HETATM   19  C   UNL     1     -11.716  14.954  69.356  1.00  0.00    -0.319 A  
HETATM   20  C   UNL     1     -10.902  15.838  70.039  1.00  0.00    -0.342 A  
HETATM   21  H2  UNL     1     -14.073  15.767  72.799  1.00  0.00     0.000 HD 
HETATM   22  S   UNL     1     -11.648  16.293  71.515  1.00  0.00    -0.227 SA 
HETATM   23  H1  UNL     1     -14.861  14.635  71.707  1.00  0.00     0.000 HD 
HETATM   24  N   UNL     1     -12.903  14.646  70.002  1.00  0.00    -0.159 NA 
HETATM   25  N   UNL     1     -14.061  15.224  71.936  1.00  0.00    -0.517 NA 
HETATM   26  C   UNL     1     -12.993  15.303  71.132  1.00  0.00    -0.454 A  
ENDBRANCH  17  19
BRANCH  18  27
HETATM   27  C   UNL     1     -10.772  14.873  65.571  1.00  0.00    -0.369 C  
HETATM   28  O   UNL     1     -12.665  15.057  64.074  1.00  0.00    -0.772 OA 
HETATM   29  C   UNL     1     -11.692  15.586  64.596  1.00  0.00    -0.226 C  
HETATM   30  O   UNL     1     -11.336  16.859  64.325  1.00  0.00    -1.202 OA 
ENDBRANCH  18  27
ENDBRANCH  15  17
ENDBRANCH  11  13
TORSDOF 4
ENDMDL
MODEL        5
REMARK 921   NORMALIZED FREE ENERGY PREDICTED BY IDOCK:   -7.48 KCAL/MOL
REMARK 922        TOTAL FREE ENERGY PREDICTED BY IDOCK:   -9.78 KCAL/MOL
REMARK 923 INTER-LIGAND FREE ENERGY PREDICTED BY IDOCK:   -8.75 KCAL/MOL
REMARK 924 INTRA-LIGAND FREE ENERGY PREDICTED BY IDOCK:   -1.03 KCAL/MOL
REMARK 927      BINDING AFFINITY PREDICTED BY RF-SCORE:    0.00 PKD
ROOT
HETATM    1  CE  UNL     1     -10.153   8.942  70.525  1.00  0.00    -0.205 C  
HETATM    2  SD  UNL     1     -11.911   8.878  70.957  1.00  0.00    -0.251 SA 
HETATM    3  CG  UNL     1     -11.943   7.073  71.133  1.00  0.00    -0.356 C  
HETATM    4  CB  UNL     1     -11.269   6.368  69.994  1.00  0.00    -0.475 C  
HETATM    5  CA  UNL     1     -10.372   6.892  69.133  1.00  0.00    -0.195 C  
HETATM    6  N   UNL     1      -9.942   8.171  69.310  1.00  0.00    -0.184 N  
HETATM    7  C   UNL     1      -9.956   6.007  67.994  1.00  0.00    -0.142 C  
HETATM    8  C   UNL     1      -9.289   9.127  68.626  1.00  0.00    -0.135 C  
HETATM    9  OXT UNL     1     -10.378   4.864  67.856  1.00  0.00    -0.091 OA 
HETATM   10  O   UNL     1      -9.057   6.511  67.127  1.00  0.00    -0.118 OA 
HETATM   11  CA  UNL     1      -9.641  10.194  69.735  1.00  0.00    -0.177 C  
HETATM   12  O   UNL     1      -8.767   9.073  67.535  1.00  0.00    -0.120 OA 
ENDROOT
BRANCH  11  13
HETATM   13  N   UNL     1     -10.631  11.218  69.306  1.00  0.00    -0.369 N  
HETATM   14  H   UNL     1     -11.618  11.030  69.478  1.00  0.00     0.000 HD 
HETATM   15  C   UNL     1     -10.300  12.401  68.693  1.00  0.00    -0.182 C  
HETATM   16  O   UNL     1      -9.143  12.645  68.351  1.00  0.00    -0.190 OA 
BRANCH  15  17
HETATM   17  C   UNL     1     -11.422  13.421  68.537  1.00  0.00    -0.345 C  
HETATM   18  C   UNL     1     -11.822  13.794  67.296  1.00  0.00    -0.436 C  
BRANCH  17  19
HETATM   19  C   UNL     1     -12.049  13.971  69.721  1.00  0.00    -0.348 A  
HETATM   20  C   UNL     1     -12.157  15.314  70.028  1.00  0.00    -0.352 A  
HETATM   21  H2  UNL     1     -14.332  13.828  73.305  1.00  0.00     0.000 HD 
HETATM   22  S   UNL     1     -13.033  15.509  71.490  1.00  0.00    -0.488 SA 
HETATM   23  H1  UNL     1     -14.016  12.225  72.655  1.00  0.00     0.000 HD 
HETATM   24  N   UNL     1     -12.648  13.120  70.638  1.00  0.00    -0.257 NA 
HETATM   25  N   UNL     1     -13.906  13.236  72.592  1.00  0.00    -0.716 NA 
HETATM   26  C   UNL     1     -13.217  13.808  71.597  1.00  0.00    -0.371 A  
ENDBRANCH  17  19
BRANCH  18  27
HETATM   27  C   UNL     1     -11.448  13.281  65.928  1.00  0.00    -0.359 C  
HETATM   28  O   UNL     1     -13.204  12.384  64.526  1.00  0.00    -0.834 OA 
HETATM   29  C   UNL     1     -12.530  13.348  64.866  1.00  0.00    -0.396 C  
HETATM   30  O   UNL     1     -12.676  14.562  64.297  1.00  0.00    -0.659 OA 
ENDBRANCH  18  27
ENDBRANCH  15  17
ENDBRANCH  11  13
TORSDOF 4
ENDMDL
MODEL        6
REMARK 921   NORMALIZED FREE ENERGY PREDICTED BY IDOCK:   -7.44 KCAL/MOL
REMARK 922        TOTAL FREE ENERGY PREDICTED BY IDOCK:   -9.73 KCAL/MOL
REMARK 923 INTER-LIGAND FREE ENERGY PREDICTED BY IDOCK:   -8.90 KCAL/MOL
REMARK 924 INTRA-LIGAND FREE ENERGY PREDICTED BY IDOCK:   -0.83 KCAL/MOL
REMARK 927      BINDING AFFINITY PREDICTED BY RF-SCORE:    0.00 PKD
ROOT
HETATM    1  CE  UNL     1      -8.175  16.543  68.809  1.00  0.00    -0.248 C  
HETATM    2  SD  UNL     1      -7.131  15.374  67.902  1.00  0.00    -0.157 SA 
HETATM    3  CG  UNL     1      -5.898  16.621  67.439  1.00  0.00    -0.158 C  
HETATM    4  CB  UNL     1      -6.518  17.878  66.905  1.00  0.00    -0.207 C  
HETATM    5  CA  UNL     1      -7.787  18.298  67.090  1.00  0.00    -0.219 C  
HETATM    6  N   UNL     1      -8.619  17.581  67.894  1.00  0.00    -0.233 N  
HETATM    7  C   UNL     1      -8.192  19.525  66.326  1.00  0.00    -0.343 C  
HETATM    8  C   UNL     1      -9.932  17.484  68.167  1.00  0.00    -0.321 C  
HETATM    9  OXT UNL     1      -7.419  20.136  65.596  1.00  0.00    -0.319 OA 
HETATM   10  O   UNL     1      -9.454  19.963  66.502  1.00  0.00    -0.362 OA 
HETATM   11  CA  UNL     1      -9.683  16.172  69.009  1.00  0.00    -0.248 C  
HETATM   12  O   UNL     1     -10.854  18.158  67.766  1.00  0.00    -0.385 OA 
ENDROOT
BRANCH  11  13
HETATM   13  N   UNL     1     -10.201  14.931  68.374  1.00  0.00    -0.226 N  
HETATM   14  H   UNL     1      -9.636  14.496  67.644  1.00  0.00     0.000 HD 
HETATM   15  C   UNL     1     -11.390  14.332  68.707  1.00  0.00    -0.275 C  
HETATM   16  O   UNL     1     -12.176  14.859  69.494  1.00  0.00    -0.289 OA 
BRANCH  15  17
HETATM   17  C   UNL     1     -11.643  12.950  68.115  1.00  0.00    -0.378 C  
HETATM   18  C   UNL     1     -11.883  11.900  68.940  1.00  0.00    -0.366 C  
BRANCH  17  19
HETATM   19  C   UNL     1     -11.631  12.783  66.676  1.00  0.00    -0.370 A  
HETATM   20  C   UNL     1     -11.141  11.685  65.995  1.00  0.00    -0.270 A  
HETATM   21  H2  UNL     1     -12.595  13.793  62.661  1.00  0.00     0.000 HD 
HETATM   22  S   UNL     1     -11.392  11.885  64.310  1.00  0.00    -0.343 SA 
HETATM   23  H1  UNL     1     -13.103  15.035  63.797  1.00  0.00     0.000 HD 
HETATM   24  N   UNL     1     -12.189  13.761  65.868  1.00  0.00    -0.438 NA 
HETATM   25  N   UNL     1     -12.655  14.137  63.619  1.00  0.00    -0.778 NA 
HETATM   26  C   UNL     1     -12.144  13.396  64.610  1.00  0.00    -0.410 A  
ENDBRANCH  17  19
BRANCH  18  27
HETATM   27  C   UNL     1     -12.091  11.828  70.431  1.00  0.00    -0.440 C  
HETATM   28  O   UNL     1     -13.280   9.919  71.326  1.00  0.00    -0.377 OA 
HETATM   29  C   UNL     1     -12.212  10.436  71.026  1.00  0.00    -0.393 C  
HETATM   30  O   UNL     1     -11.032   9.813  71.228  1.00  0.00    -0.351 OA 
ENDBRANCH  18  27
ENDBRANCH  15  17
ENDBRANCH  11  13
TORSDOF 4
ENDMDL
MODEL        7
REMARK 921   NORMALIZED FREE ENERGY PREDICTED BY IDOCK:   -7.42 KCAL/MOL
REMARK 922        TOTAL FREE ENERGY PREDICTED BY IDOCK:   -9.71 KCAL/MOL
REMARK 923 INTER-LIGAND FREE ENERGY PREDICTED BY IDOCK:   -8.79 KCAL/MOL
REMARK 924 INTRA-LIGAND FREE ENERGY PREDICTED BY IDOCK:   -0.92 KCAL/MOL
REMARK 927      BINDING AFFINITY PREDICTED BY RF-SCORE:    0.00 PKD
ROOT
HETATM    1  CE  UNL     1      -8.925   9.270  69.730  1.00  0.00    -0.172 C  
HETATM    2  SD  UNL     1      -7.650  10.544  69.549  1.00  0.00    -0.118 SA 
HETATM    3  CG  UNL     1      -6.347   9.545  70.320  1.00  0.00    -0.066 C  
HETATM    4  CB  UNL     1      -6.794   8.894  71.595  1.00  0.00    -0.065 C  
HETATM    5  CA  UNL     1      -8.066   8.665  71.985  1.00  0.00    -0.068 C  
HETATM    6  N   UNL     1      -9.091   8.973  71.144  1.00  0.00    -0.245 N  
HETATM    7  C   UNL     1      -8.241   8.124  73.374  1.00  0.00    -0.206 C  
HETATM    8  C   UNL     1     -10.425   9.134  71.185  1.00  0.00    -0.315 C  
HETATM    9  OXT UNL     1      -7.294   7.874  74.112  1.00  0.00    -0.128 OA 
HETATM   10  O   UNL     1      -9.503   7.884  73.780  1.00  0.00    -0.268 OA 
HETATM   11  CA  UNL     1     -10.421   9.730  69.724  1.00  0.00    -0.250 C  
HETATM   12  O   UNL     1     -11.195   8.946  72.100  1.00  0.00    -0.360 OA 
ENDROOT
BRANCH  11  13
HETATM   13  N   UNL     1     -10.719  11.186  69.657  1.00  0.00    -0.447 N  
HETATM   14  H   UNL     1     -10.245  11.801  70.318  1.00  0.00     0.000 HD 
HETATM   15  C   UNL     1     -11.589  11.755  68.761  1.00  0.00    -0.307 C  
HETATM   16  O   UNL     1     -12.281  11.066  68.012  1.00  0.00    -0.520 OA 
BRANCH  15  17
HETATM   17  C   UNL     1     -11.591  13.278  68.691  1.00  0.00    -0.362 C  
HETATM   18  C   UNL     1     -11.321  13.896  67.515  1.00  0.00    -0.342 C  
BRANCH  17  19
HETATM   19  C   UNL     1     -11.891  14.042  69.885  1.00  0.00    -0.329 A  
HETATM   20  C   UNL     1     -11.421  15.309  70.172  1.00  0.00    -0.292 A  
HETATM   21  H2  UNL     1     -13.898  14.867  73.541  1.00  0.00     0.000 HD 
HETATM   22  S   UNL     1     -12.085  15.853  71.658  1.00  0.00    -0.498 SA 
HETATM   23  H1  UNL     1     -14.299  13.275  72.909  1.00  0.00     0.000 HD 
HETATM   24  N   UNL     1     -12.756  13.518  70.835  1.00  0.00    -0.318 NA 
HETATM   25  N   UNL     1     -13.782  14.150  72.825  1.00  0.00    -0.666 NA 
HETATM   26  C   UNL     1     -12.954  14.382  71.799  1.00  0.00    -0.345 A  
ENDBRANCH  17  19
BRANCH  18  27
HETATM   27  C   UNL     1     -11.124  13.353  66.122  1.00  0.00    -0.299 C  
HETATM   28  O   UNL     1     -13.069  12.559  64.922  1.00  0.00    -0.833 OA 
HETATM   29  C   UNL     1     -12.306  13.481  65.178  1.00  0.00    -0.449 C  
HETATM   30  O   UNL     1     -12.437  14.698  64.612  1.00  0.00    -0.527 OA 
ENDBRANCH  18  27
ENDBRANCH  15  17
ENDBRANCH  11  13
TORSDOF 4
ENDMDL
MODEL        8
REMARK 921   NORMALIZED FREE ENERGY PREDICTED BY IDOCK:   -7.36 KCAL/MOL
REMARK 922        TOTAL FREE ENERGY PREDICTED BY IDOCK:   -9.64 KCAL/MOL
REMARK 923 INTER-LIGAND FREE ENERGY PREDICTED BY IDOCK:  -10.05 KCAL/MOL
REMARK 924 INTRA-LIGAND FREE ENERGY PREDICTED BY IDOCK:    0.42 KCAL/MOL
REMARK 927      BINDING AFFINITY PREDICTED BY RF-SCORE:    0.00 PKD
ROOT
HETATM    1  CE  UNL     1      -9.612  12.787  66.431  1.00  0.00    -0.254 C  
HETATM    2  SD  UNL     1     -10.954  11.602  66.154  1.00  0.00    -0.265 SA 
HETATM    3  CG  UNL     1     -11.212  12.089  64.426  1.00  0.00    -0.344 C  
HETATM    4  CB  UNL     1     -11.272  13.576  64.246  1.00  0.00    -0.383 C  
HETATM    5  CA  UNL     1     -10.797  14.515  65.091  1.00  0.00    -0.395 C  
HETATM    6  N   UNL     1     -10.121  14.131  66.208  1.00  0.00    -0.290 N  
HETATM    7  C   UNL     1     -11.113  15.940  64.738  1.00  0.00    -0.384 C  
HETATM    8  C   UNL     1      -9.704  14.655  67.373  1.00  0.00    -0.218 C  
HETATM    9  OXT UNL     1     -11.741  16.248  63.730  1.00  0.00    -0.969 OA 
HETATM   10  O   UNL     1     -10.643  16.891  65.567  1.00  0.00    -0.523 OA 
HETATM   11  CA  UNL     1      -9.315  13.221  67.906  1.00  0.00    -0.214 C  
HETATM   12  O   UNL     1      -9.761  15.798  67.767  1.00  0.00    -0.215 OA 
ENDROOT
BRANCH  11  13
HETATM   13  N   UNL     1     -10.198  12.712  68.990  1.00  0.00    -0.428 N  
HETATM   14  H   UNL     1      -9.799  12.056  69.661  1.00  0.00     0.000 HD 
HETATM   15  C   UNL     1     -11.514  13.068  69.144  1.00  0.00    -0.299 C  
HETATM   16  O   UNL     1     -12.094  13.762  68.310  1.00  0.00    -0.362 OA 
BRANCH  15  17
HETATM   17  C   UNL     1     -12.189  12.626  70.438  1.00  0.00    -0.368 C  
HETATM   18  C   UNL     1     -12.754  13.553  71.251  1.00  0.00    -0.432 C  
BRANCH  17  19
HETATM   19  C   UNL     1     -12.222  11.217  70.774  1.00  0.00    -0.380 A  
HETATM   20  C   UNL     1     -13.080  10.624  71.682  1.00  0.00    -0.450 A  
HETATM   21  H2  UNL     1     -11.177   7.118  70.352  1.00  0.00     0.000 HD 
HETATM   22  S   UNL     1     -12.812   8.930  71.712  1.00  0.00    -0.389 SA 
HETATM   23  H1  UNL     1     -10.226   8.157  69.299  1.00  0.00     0.000 HD 
HETATM   24  N   UNL     1     -11.370  10.337  70.124  1.00  0.00    -0.294 NA 
HETATM   25  N   UNL     1     -10.947   8.052  70.012  1.00  0.00    -0.235 NA 
HETATM   26  C   UNL     1     -11.600   9.107  70.514  1.00  0.00    -0.197 A  
ENDBRANCH  17  19
BRANCH  18  27
HETATM   27  C   UNL     1     -12.983  15.033  71.072  1.00  0.00    -0.466 C  
HETATM   28  O   UNL     1     -11.904  16.549  72.619  1.00  0.00    -0.541 OA 
HETATM   29  C   UNL     1     -11.871  15.948  71.553  1.00  0.00    -0.468 C  
HETATM   30  O   UNL     1     -10.840  16.071  70.692  1.00  0.00    -0.291 OA 
ENDBRANCH  18  27
ENDBRANCH  15  17
ENDBRANCH  11  13
TORSDOF 4
ENDMDL
MODEL        9
REMARK 921   NORMALIZED FREE ENERGY PREDICTED BY IDOCK:   -7.33 KCAL/MOL
REMARK 922        TOTAL FREE ENERGY PREDICTED BY IDOCK:   -9.59 KCAL/MOL
REMARK 923 INTER-LIGAND FREE ENERGY PREDICTED BY IDOCK:   -8.29 KCAL/MOL
REMARK 924 INTRA-LIGAND FREE ENERGY PREDICTED BY IDOCK:   -1.31 KCAL/MOL
REMARK 927      BINDING AFFINITY PREDICTED BY RF-SCORE:    0.00 PKD
ROOT
HETATM    1  CE  UNL     1      -9.674  11.110  66.699  1.00  0.00    -0.196 C  
HETATM    2  SD  UNL     1      -9.567   9.493  65.890  1.00  0.00    -0.276 SA 
HETATM    3  CG  UNL     1      -9.569  10.179  64.211  1.00  0.00    -0.290 C  
HETATM    4  CB  UNL     1     -10.633  11.217  64.011  1.00  0.00    -0.450 C  
HETATM    5  CA  UNL     1     -11.268  11.921  64.971  1.00  0.00    -0.293 C  
HETATM    6  N   UNL     1     -10.899  11.766  66.272  1.00  0.00    -0.271 N  
HETATM    7  C   UNL     1     -12.394  12.799  64.507  1.00  0.00    -0.445 C  
HETATM    8  C   UNL     1     -11.365  12.050  67.500  1.00  0.00    -0.319 C  
HETATM    9  OXT UNL     1     -12.710  12.902  63.326  1.00  0.00    -0.660 OA 
HETATM   10  O   UNL     1     -13.038  13.514  65.450  1.00  0.00    -0.663 OA 
HETATM   11  CA  UNL     1     -10.240  11.160  68.158  1.00  0.00    -0.181 C  
HETATM   12  O   UNL     1     -12.347  12.681  67.824  1.00  0.00    -0.250 OA 
ENDROOT
BRANCH  11  13
HETATM   13  N   UNL     1     -10.739   9.900  68.771  1.00  0.00    -0.217 N  
HETATM   14  H   UNL     1     -11.637   9.536  68.452  1.00  0.00     0.000 HD 
HETATM   15  C   UNL     1     -10.070   9.195  69.740  1.00  0.00    -0.199 C  
HETATM   16  O   UNL     1      -9.040   9.631  70.255  1.00  0.00    -0.235 OA 
BRANCH  15  17
HETATM   17  C   UNL     1     -10.622   7.816  70.080  1.00  0.00    -0.237 C  
HETATM   18  C   UNL     1     -11.437   7.665  71.154  1.00  0.00    -0.296 C  
BRANCH  17  19
HETATM   19  C   UNL     1     -10.272   6.686  69.243  1.00  0.00    -0.183 A  
HETATM   20  C   UNL     1      -9.543   5.582  69.640  1.00  0.00    -0.158 A  
HETATM   21  H2  UNL     1     -10.398   4.296  65.729  1.00  0.00     0.000 HD 
HETATM   22  S   UNL     1      -9.428   4.464  68.344  1.00  0.00    -0.146 SA 
HETATM   23  H1  UNL     1     -11.260   5.816  65.529  1.00  0.00     0.000 HD 
HETATM   24  N   UNL     1     -10.722   6.640  67.931  1.00  0.00    -0.248 NA 
HETATM   25  N   UNL     1     -10.703   5.192  66.111  1.00  0.00    -0.265 NA 
HETATM   26  C   UNL     1     -10.363   5.515  67.365  1.00  0.00    -0.225 A  
ENDBRANCH  17  19
BRANCH  18  27
HETATM   27  C   UNL     1     -12.061   8.673  72.085  1.00  0.00    -0.451 C  
HETATM   28  O   UNL     1     -13.122  10.619  71.113  1.00  0.00    -0.368 OA 
HETATM   29  C   UNL     1     -13.225   9.472  71.527  1.00  0.00    -0.390 C  
HETATM   30  O   UNL     1     -14.407   8.821  71.547  1.00  0.00    -0.377 OA 
ENDBRANCH  18  27
ENDBRANCH  15  17
ENDBRANCH  11  13
TORSDOF 4
ENDMDL
MODEL       10
REMARK 921   NORMALIZED FREE ENERGY PREDICTED BY IDOCK:   -7.32 KCAL/MOL
REMARK 922        TOTAL FREE ENERGY PREDICTED BY IDOCK:   -9.58 KCAL/MOL
REMARK 923 INTER-LIGAND FREE ENERGY PREDICTED BY IDOCK:   -9.44 KCAL/MOL
REMARK 924 INTRA-LIGAND FREE ENERGY PREDICTED BY IDOCK:   -0.14 KCAL/MOL
REMARK 927      BINDING AFFINITY PREDICTED BY RF-SCORE:    0.00 PKD
ROOT
HETATM    1  CE  UNL     1      -9.477  12.571  66.674  1.00  0.00    -0.242 C  
HETATM    2  SD  UNL     1      -9.830  10.810  66.909  1.00  0.00    -0.192 SA 
HETATM    3  CG  UNL     1      -9.973  10.460  65.135  1.00  0.00    -0.322 C  
HETATM    4  CB  UNL     1     -10.827  11.461  64.415  1.00  0.00    -0.397 C  
HETATM    5  CA  UNL     1     -11.141  12.706  64.830  1.00  0.00    -0.296 C  
HETATM    6  N   UNL     1     -10.600  13.184  65.984  1.00  0.00    -0.277 N  
HETATM    7  C   UNL     1     -12.130  13.453  63.983  1.00  0.00    -0.449 C  
HETATM    8  C   UNL     1     -10.790  14.193  66.853  1.00  0.00    -0.296 C  
HETATM    9  OXT UNL     1     -12.611  12.983  62.957  1.00  0.00    -0.554 OA 
HETATM   10  O   UNL     1     -12.453  14.700  64.378  1.00  0.00    -0.624 OA 
HETATM   11  CA  UNL     1      -9.772  13.540  67.868  1.00  0.00    -0.225 C  
HETATM   12  O   UNL     1     -11.558  15.126  66.793  1.00  0.00    -0.270 OA 
ENDROOT
BRANCH  11  13
HETATM   13  N   UNL     1     -10.404  12.986  69.095  1.00  0.00    -0.430 N  
HETATM   14  H   UNL     1      -9.825  12.890  69.929  1.00  0.00     0.000 HD 
HETATM   15  C   UNL     1     -11.717  12.596  69.179  1.00  0.00    -0.321 C  
HETATM   16  O   UNL     1     -12.445  12.575  68.186  1.00  0.00    -0.011 OA 
BRANCH  15  17
HETATM   17  C   UNL     1     -12.242  12.271  70.573  1.00  0.00    -0.387 C  
HETATM   18  C   UNL     1     -12.752  13.261  71.346  1.00  0.00    -0.401 C  
BRANCH  17  19
HETATM   19  C   UNL     1     -12.193  10.902  71.046  1.00  0.00    -0.358 A  
HETATM   20  C   UNL     1     -13.113  10.306  71.888  1.00  0.00    -0.463 A  
HETATM   21  H2  UNL     1     -10.726   6.915  71.195  1.00  0.00     0.000 HD 
HETATM   22  S   UNL     1     -12.698   8.659  72.130  1.00  0.00    -0.402 SA 
HETATM   23  H1  UNL     1      -9.734   7.949  70.176  1.00  0.00     0.000 HD 
HETATM   24  N   UNL     1     -11.180  10.062  70.610  1.00  0.00    -0.328 NA 
HETATM   25  N   UNL     1     -10.536   7.833  70.794  1.00  0.00    -0.215 NA 
HETATM   26  C   UNL     1     -11.349   8.855  71.092  1.00  0.00    -0.291 A  
ENDBRANCH  17  19
BRANCH  18  27
HETATM   27  C   UNL     1     -13.048  14.709  71.049  1.00  0.00    -0.427 C  
HETATM   28  O   UNL     1     -11.916  16.397  72.363  1.00  0.00    -0.530 OA 
HETATM   29  C   UNL     1     -11.939  15.699  71.358  1.00  0.00    -0.418 C  
HETATM   30  O   UNL     1     -10.978  15.771  70.414  1.00  0.00    -0.311 OA 
ENDBRANCH  18  27
ENDBRANCH  15  17
ENDBRANCH  11  13
TORSDOF 4
ENDMDL
MODEL       11
REMARK 921   NORMALIZED FREE ENERGY PREDICTED BY IDOCK:   -7.28 KCAL/MOL
REMARK 922        TOTAL FREE ENERGY PREDICTED BY IDOCK:   -9.53 KCAL/MOL
REMARK 923 INTER-LIGAND FREE ENERGY PREDICTED BY IDOCK:   -8.76 KCAL/MOL
REMARK 924 INTRA-LIGAND FREE ENERGY PREDICTED BY IDOCK:   -0.77 KCAL/MOL
REMARK 927      BINDING AFFINITY PREDICTED BY RF-SCORE:    0.00 PKD
ROOT
HETATM    1  CE  UNL     1     -12.203  12.271  65.990  1.00  0.00     0.031 C  
HETATM    2  SD  UNL     1     -12.381  13.872  65.163  1.00  0.00    -0.453 SA 
HETATM    3  CG  UNL     1     -12.197  13.186  63.493  1.00  0.00    -0.476 C  
HETATM    4  CB  UNL     1     -11.040  12.238  63.381  1.00  0.00    -0.487 C  
HETATM    5  CA  UNL     1     -10.423  11.590  64.391  1.00  0.00    -0.325 C  
HETATM    6  N   UNL     1     -10.900  11.717  65.660  1.00  0.00    -0.282 N  
HETATM    7  C   UNL     1      -9.198  10.806  64.019  1.00  0.00    -0.227 C  
HETATM    8  C   UNL     1     -10.506  11.473  66.922  1.00  0.00    -0.235 C  
HETATM    9  OXT UNL     1      -8.787  10.729  62.866  1.00  0.00    -0.207 OA 
HETATM   10  O   UNL     1      -8.571  10.148  65.013  1.00  0.00    -0.150 OA 
HETATM   11  CA  UNL     1     -11.745  12.270  67.487  1.00  0.00    -0.332 C  
HETATM   12  O   UNL     1      -9.503  10.926  67.323  1.00  0.00    -0.158 OA 
ENDROOT
BRANCH  11  13
HETATM   13  N   UNL     1     -11.398  13.568  68.126  1.00  0.00    -0.268 N  
HETATM   14  H   UNL     1     -10.904  14.260  67.564  1.00  0.00     0.000 HD 
HETATM   15  C   UNL     1     -11.699  13.893  69.425  1.00  0.00    -0.315 C  
HETATM   16  O   UNL     1     -12.190  13.069  70.196  1.00  0.00    -0.321 OA 
BRANCH  15  17
HETATM   17  C   UNL     1     -11.471  15.344  69.832  1.00  0.00    -0.329 C  
HETATM   18  C   UNL     1     -12.360  15.961  70.650  1.00  0.00    -0.311 C  
BRANCH  17  19
HETATM   19  C   UNL     1     -10.299  16.041  69.341  1.00  0.00    -0.272 A  
HETATM   20  C   UNL     1     -10.291  17.284  68.739  1.00  0.00    -0.358 A  
HETATM   21  H2  UNL     1      -6.132  16.675  68.787  1.00  0.00     0.000 HD 
HETATM   22  S   UNL     1      -8.679  17.748  68.381  1.00  0.00    -0.291 SA 
HETATM   23  H1  UNL     1      -6.471  15.127  69.550  1.00  0.00     0.000 HD 
HETATM   24  N   UNL     1      -9.044  15.473  69.507  1.00  0.00    -0.281 NA 
HETATM   25  N   UNL     1      -6.808  16.000  69.143  1.00  0.00    -0.167 NA 
HETATM   26  C   UNL     1      -8.114  16.282  69.065  1.00  0.00    -0.236 A  
ENDBRANCH  17  19
BRANCH  18  27
HETATM   27  C   UNL     1     -13.556  15.436  71.402  1.00  0.00    -0.604 C  
HETATM   28  O   UNL     1     -13.164  14.007  73.315  1.00  0.00    -0.535 OA 
HETATM   29  C   UNL     1     -13.345  15.135  72.875  1.00  0.00    -0.502 C  
HETATM   30  O   UNL     1     -13.400  16.218  73.677  1.00  0.00    -0.670 OA 
ENDBRANCH  18  27
ENDBRANCH  15  17
ENDBRANCH  11  13
TORSDOF 4
ENDMDL
MODEL       12
REMARK 921   NORMALIZED FREE ENERGY PREDICTED BY IDOCK:   -7.26 KCAL/MOL
REMARK 922        TOTAL FREE ENERGY PREDICTED BY IDOCK:   -9.51 KCAL/MOL
REMARK 923 INTER-LIGAND FREE ENERGY PREDICTED BY IDOCK:   -8.45 KCAL/MOL
REMARK 924 INTRA-LIGAND FREE ENERGY PREDICTED BY IDOCK:   -1.06 KCAL/MOL
REMARK 927      BINDING AFFINITY PREDICTED BY RF-SCORE:    0.00 PKD
ROOT
HETATM    1  CE  UNL     1     -10.769  10.669  69.214  1.00  0.00    -0.238 C  
HETATM    2  SD  UNL     1      -9.189  11.540  69.064  1.00  0.00     0.238 SA 
HETATM    3  CG  UNL     1      -8.189  10.031  69.176  1.00  0.00    -0.137 C  
HETATM    4  CB  UNL     1      -8.619   9.133  70.297  1.00  0.00    -0.218 C  
HETATM    5  CA  UNL     1      -9.815   9.134  70.923  1.00  0.00    -0.291 C  
HETATM    6  N   UNL     1     -10.798   9.969  70.488  1.00  0.00    -0.311 N  
HETATM    7  C   UNL     1      -9.937   8.224  72.111  1.00  0.00    -0.273 C  
HETATM    8  C   UNL     1     -11.978  10.455  70.912  1.00  0.00    -0.377 C  
HETATM    9  OXT UNL     1      -9.023   7.497  72.484  1.00  0.00    -0.124 OA 
HETATM   10  O   UNL     1     -11.125   8.207  72.745  1.00  0.00    -0.382 OA 
HETATM   11  CA  UNL     1     -12.008  11.485  69.716  1.00  0.00    -0.346 C  
HETATM   12  O   UNL     1     -12.610  10.183  71.907  1.00  0.00    -0.396 OA 
ENDROOT
BRANCH  11  13
HETATM   13  N   UNL     1     -11.809  12.902  70.124  1.00  0.00    -0.504 N  
HETATM   14  H   UNL     1     -11.610  13.092  71.106  1.00  0.00     0.000 HD 
HETATM   15  C   UNL     1     -11.876  13.969  69.264  1.00  0.00    -0.344 C  
HETATM   16  O   UNL     1     -12.224  13.829  68.092  1.00  0.00    -0.331 OA 
BRANCH  15  17
HETATM   17  C   UNL     1     -11.420  15.315  69.816  1.00  0.00    -0.332 C  
HETATM   18  C   UNL     1     -12.170  15.946  70.753  1.00  0.00    -0.373 C  
BRANCH  17  19
HETATM   19  C   UNL     1     -10.183  15.896  69.333  1.00  0.00    -0.262 A  
HETATM   20  C   UNL     1      -8.967  15.246  69.244  1.00  0.00    -0.241 A  
HETATM   21  H2  UNL     1      -7.770  18.889  67.520  1.00  0.00     0.000 HD 
HETATM   22  S   UNL     1      -7.797  16.294  68.555  1.00  0.00    -0.204 SA 
HETATM   23  H1  UNL     1      -9.421  19.435  67.777  1.00  0.00     0.000 HD 
HETATM   24  N   UNL     1     -10.176  17.202  68.867  1.00  0.00    -0.317 NA 
HETATM   25  N   UNL     1      -8.713  18.707  67.862  1.00  0.00    -0.283 NA 
HETATM   26  C   UNL     1      -8.988  17.518  68.412  1.00  0.00    -0.276 A  
ENDBRANCH  17  19
BRANCH  18  27
HETATM   27  C   UNL     1     -13.394  15.506  71.516  1.00  0.00    -0.593 C  
HETATM   28  O   UNL     1     -13.311  13.385  72.679  1.00  0.00    -0.531 OA 
HETATM   29  C   UNL     1     -13.152  14.598  72.709  1.00  0.00    -0.486 C  
HETATM   30  O   UNL     1     -12.767  15.244  73.830  1.00  0.00    -0.520 OA 
ENDBRANCH  18  27
ENDBRANCH  15  17
ENDBRANCH  11  13
TORSDOF 4
ENDMDL
MODEL       13
REMARK 921   NORMALIZED FREE ENERGY PREDICTED BY IDOCK:   -7.19 KCAL/MOL
REMARK 922        TOTAL FREE ENERGY PREDICTED BY IDOCK:   -9.43 KCAL/MOL
REMARK 923 INTER-LIGAND FREE ENERGY PREDICTED BY IDOCK:   -8.64 KCAL/MOL
REMARK 924 INTRA-LIGAND FREE ENERGY PREDICTED BY IDOCK:   -0.79 KCAL/MOL
REMARK 927      BINDING AFFINITY PREDICTED BY RF-SCORE:    0.00 PKD
ROOT
HETATM    1  CE  UNL     1     -10.359  14.914  67.159  1.00  0.00    -0.260 C  
HETATM    2  SD  UNL     1     -11.128  16.153  68.233  1.00  0.00    -0.331 SA 
HETATM    3  CG  UNL     1     -10.240  17.550  67.490  1.00  0.00    -0.340 C  
HETATM    4  CB  UNL     1      -8.773  17.283  67.329  1.00  0.00    -0.221 C  
HETATM    5  CA  UNL     1      -8.166  16.078  67.308  1.00  0.00    -0.182 C  
HETATM    6  N   UNL     1      -8.920  14.946  67.364  1.00  0.00    -0.181 N  
HETATM    7  C   UNL     1      -6.665  16.097  67.275  1.00  0.00    -0.198 C  
HETATM    8  C   UNL     1      -8.762  13.631  67.593  1.00  0.00    -0.182 C  
HETATM    9  OXT UNL     1      -6.017  17.138  67.242  1.00  0.00    -0.127 OA 
HETATM   10  O   UNL     1      -6.041  14.903  67.248  1.00  0.00    -0.312 OA 
HETATM   11  CA  UNL     1     -10.327  13.432  67.661  1.00  0.00    -0.238 C  
HETATM   12  O   UNL     1      -7.746  12.996  67.763  1.00  0.00    -0.122 OA 
ENDROOT
BRANCH  11  13
HETATM   13  N   UNL     1     -10.846  13.130  69.022  1.00  0.00    -0.394 N  
HETATM   14  H   UNL     1     -10.481  13.674  69.804  1.00  0.00     0.000 HD 
HETATM   15  C   UNL     1     -11.785  12.166  69.294  1.00  0.00    -0.328 C  
HETATM   16  O   UNL     1     -12.185  11.396  68.421  1.00  0.00    -0.571 OA 
BRANCH  15  17
HETATM   17  C   UNL     1     -12.360  12.158  70.705  1.00  0.00    -0.391 C  
HETATM   18  C   UNL     1     -12.465  10.987  71.381  1.00  0.00    -0.436 C  
BRANCH  17  19
HETATM   19  C   UNL     1     -12.780  13.408  71.306  1.00  0.00    -0.338 A  
HETATM   20  C   UNL     1     -13.972  13.624  71.971  1.00  0.00    -0.428 A  
HETATM   21  H2  UNL     1     -12.285  17.420  72.623  1.00  0.00     0.000 HD 
HETATM   22  S   UNL     1     -14.018  15.228  72.576  1.00  0.00    -0.473 SA 
HETATM   23  H1  UNL     1     -10.894  16.844  71.715  1.00  0.00     0.000 HD 
HETATM   24  N   UNL     1     -11.927  14.502  71.279  1.00  0.00    -0.346 NA 
HETATM   25  N   UNL     1     -11.824  16.677  72.098  1.00  0.00    -0.309 NA 
HETATM   26  C   UNL     1     -12.455  15.508  71.931  1.00  0.00    -0.400 A  
ENDBRANCH  17  19
BRANCH  18  27
HETATM   27  C   UNL     1     -11.980   9.597  71.053  1.00  0.00    -0.427 C  
HETATM   28  O   UNL     1     -11.545   8.079  72.887  1.00  0.00    -0.397 OA 
HETATM   29  C   UNL     1     -12.331   8.510  72.053  1.00  0.00    -0.365 C  
HETATM   30  O   UNL     1     -13.585   8.029  71.934  1.00  0.00    -0.338 OA 
ENDBRANCH  18  27
ENDBRANCH  15  17
ENDBRANCH  11  13
TORSDOF 4
ENDMDL
MODEL       14
REMARK 921   NORMALIZED FREE ENERGY PREDICTED BY IDOCK:   -7.14 KCAL/MOL
REMARK 922        TOTAL FREE ENERGY PREDICTED BY IDOCK:   -9.37 KCAL/MOL
REMARK 923 INTER-LIGAND FREE ENERGY PREDICTED BY IDOCK:   -8.50 KCAL/MOL
REMARK 924 INTRA-LIGAND FREE ENERGY PREDICTED BY IDOCK:   -0.87 KCAL/MOL
REMARK 927      BINDING AFFINITY PREDICTED BY RF-SCORE:    0.00 PKD
ROOT
HETATM    1  CE  UNL     1      -9.819   9.663  67.139  1.00  0.00    -0.186 C  
HETATM    2  SD  UNL     1      -8.567  10.869  66.634  1.00  0.00    -0.153 SA 
HETATM    3  CG  UNL     1      -7.226   9.649  66.551  1.00  0.00    -0.090 C  
HETATM    4  CB  UNL     1      -7.182   8.755  67.754  1.00  0.00    -0.084 C  
HETATM    5  CA  UNL     1      -8.185   8.517  68.625  1.00  0.00    -0.122 C  
HETATM    6  N   UNL     1      -9.411   9.065  68.401  1.00  0.00    -0.139 N  
HETATM    7  C   UNL     1      -7.832   7.688  69.825  1.00  0.00    -0.110 C  
HETATM    8  C   UNL     1     -10.560   9.288  69.062  1.00  0.00    -0.205 C  
HETATM    9  OXT UNL     1      -6.711   7.224  70.003  1.00  0.00    -0.048 OA 
HETATM   10  O   UNL     1      -8.822   7.435  70.703  1.00  0.00    -0.148 OA 
HETATM   11  CA  UNL     1     -11.088  10.197  67.885  1.00  0.00    -0.238 C  
HETATM   12  O   UNL     1     -10.886   8.944  70.176  1.00  0.00    -0.227 OA 
ENDROOT
BRANCH  11  13
HETATM   13  N   UNL     1     -11.162  11.645  68.216  1.00  0.00    -0.238 N  
HETATM   14  H   UNL     1     -10.783  11.950  69.113  1.00  0.00     0.000 HD 
HETATM   15  C   UNL     1     -11.708  12.598  67.393  1.00  0.00    -0.369 C  
HETATM   16  O   UNL     1     -12.285  12.291  66.350  1.00  0.00    -0.613 OA 
BRANCH  15  17
HETATM   17  C   UNL     1     -11.488  14.051  67.798  1.00  0.00    -0.351 C  
HETATM   18  C   UNL     1     -10.990  14.932  66.895  1.00  0.00    -0.327 C  
BRANCH  17  19
HETATM   19  C   UNL     1     -11.823  14.470  69.145  1.00  0.00    -0.319 A  
HETATM   20  C   UNL     1     -11.661  15.742  69.659  1.00  0.00    -0.358 A  
HETATM   21  H2  UNL     1     -13.508  14.024  73.022  1.00  0.00     0.000 HD 
HETATM   22  S   UNL     1     -12.252  15.799  71.268  1.00  0.00    -0.441 SA 
HETATM   23  H1  UNL     1     -13.564  12.528  72.099  1.00  0.00     0.000 HD 
HETATM   24  N   UNL     1     -12.402  13.563  70.020  1.00  0.00    -0.287 NA 
HETATM   25  N   UNL     1     -13.302  13.511  72.165  1.00  0.00    -0.466 NA 
HETATM   26  C   UNL     1     -12.693  14.147  71.156  1.00  0.00    -0.361 A  
ENDBRANCH  17  19
BRANCH  18  27
HETATM   27  C   UNL     1     -10.701  14.797  65.422  1.00  0.00    -0.385 C  
HETATM   28  O   UNL     1     -12.570  14.825  63.885  1.00  0.00    -0.834 OA 
HETATM   29  C   UNL     1     -11.698  15.446  64.479  1.00  0.00    -0.277 C  
HETATM   30  O   UNL     1     -11.532  16.775  64.322  1.00  0.00    -1.125 OA 
ENDBRANCH  18  27
ENDBRANCH  15  17
ENDBRANCH  11  13
TORSDOF 4
ENDMDL
MODEL       15
REMARK 921   NORMALIZED FREE ENERGY PREDICTED BY IDOCK:   -7.07 KCAL/MOL
REMARK 922        TOTAL FREE ENERGY PREDICTED BY IDOCK:   -9.28 KCAL/MOL
REMARK 923 INTER-LIGAND FREE ENERGY PREDICTED BY IDOCK:   -8.34 KCAL/MOL
REMARK 924 INTRA-LIGAND FREE ENERGY PREDICTED BY IDOCK:   -0.94 KCAL/MOL
REMARK 927      BINDING AFFINITY PREDICTED BY RF-SCORE:    0.00 PKD
ROOT
HETATM    1  CE  UNL     1     -10.751  13.259  67.207  1.00  0.00    -0.255 C  
HETATM    2  SD  UNL     1      -8.947  13.331  67.057  1.00  0.00    -0.210 SA 
HETATM    3  CG  UNL     1      -8.898  15.132  66.844  1.00  0.00    -0.256 C  
HETATM    4  CB  UNL     1      -9.906  15.625  65.849  1.00  0.00    -0.382 C  
HETATM    5  CA  UNL     1     -11.015  14.980  65.431  1.00  0.00    -0.373 C  
HETATM    6  N   UNL     1     -11.343  13.782  65.987  1.00  0.00    -0.309 N  
HETATM    7  C   UNL     1     -11.780  15.638  64.319  1.00  0.00    -0.169 C  
HETATM    8  C   UNL     1     -12.156  12.738  65.745  1.00  0.00    -0.448 C  
HETATM    9  OXT UNL     1     -11.445  16.712  63.830  1.00  0.00    -1.186 OA 
HETATM   10  O   UNL     1     -12.893  15.012  63.892  1.00  0.00    -0.679 OA 
HETATM   11  CA  UNL     1     -11.456  11.900  66.884  1.00  0.00    -0.322 C  
HETATM   12  O   UNL     1     -12.991  12.598  64.880  1.00  0.00    -0.830 OA 
ENDROOT
BRANCH  11  13
HETATM   13  N   UNL     1     -10.628  10.768  66.389  1.00  0.00    -0.232 N  
HETATM   14  H   UNL     1     -10.248  10.831  65.445  1.00  0.00     0.000 HD 
HETATM   15  C   UNL     1     -10.343   9.642  67.121  1.00  0.00    -0.254 C  
HETATM   16  O   UNL     1     -10.860   9.444  68.221  1.00  0.00    -0.197 OA 
BRANCH  15  17
HETATM   17  C   UNL     1      -9.296   8.700  66.538  1.00  0.00    -0.257 C  
HETATM   18  C   UNL     1      -9.473   7.359  66.632  1.00  0.00    -0.240 C  
BRANCH  17  19
HETATM   19  C   UNL     1      -8.129   9.257  65.883  1.00  0.00    -0.111 A  
HETATM   20  C   UNL     1      -7.726   8.990  64.589  1.00  0.00    -0.115 A  
HETATM   21  H2  UNL     1      -4.779  11.846  65.503  1.00  0.00     0.000 HD 
HETATM   22  S   UNL     1      -6.334   9.917  64.211  1.00  0.00    -0.131 SA 
HETATM   23  H1  UNL     1      -5.526  11.957  67.091  1.00  0.00     0.000 HD 
HETATM   24  N   UNL     1      -7.340  10.177  66.556  1.00  0.00    -0.104 NA 
HETATM   25  N   UNL     1      -5.498  11.543  66.160  1.00  0.00    -0.272 NA 
HETATM   26  C   UNL     1      -6.381  10.613  65.776  1.00  0.00    -0.117 A  
ENDBRANCH  17  19
BRANCH  18  27
HETATM   27  C   UNL     1     -10.637   6.536  67.121  1.00  0.00    -0.398 C  
HETATM   28  O   UNL     1     -10.172   4.622  68.527  1.00  0.00    -0.067 OA 
HETATM   29  C   UNL     1     -10.442   5.813  68.442  1.00  0.00    -0.222 C  
HETATM   30  O   UNL     1     -10.619   6.588  69.531  1.00  0.00    -0.206 OA 
ENDBRANCH  18  27
ENDBRANCH  15  17
ENDBRANCH  11  13
TORSDOF 4
ENDMDL
MODEL       16
REMARK 921   NORMALIZED FREE ENERGY PREDICTED BY IDOCK:   -7.05 KCAL/MOL
REMARK 922        TOTAL FREE ENERGY PREDICTED BY IDOCK:   -9.25 KCAL/MOL
REMARK 923 INTER-LIGAND FREE ENERGY PREDICTED BY IDOCK:   -8.55 KCAL/MOL
REMARK 924 INTRA-LIGAND FREE ENERGY PREDICTED BY IDOCK:   -0.70 KCAL/MOL
REMARK 927      BINDING AFFINITY PREDICTED BY RF-SCORE:    0.00 PKD
ROOT
HETATM    1  CE  UNL     1     -10.336   9.391  70.707  1.00  0.00    -0.298 C  
HETATM    2  SD  UNL     1     -12.113   9.486  71.044  1.00  0.00    -0.312 SA 
HETATM    3  CG  UNL     1     -12.241   7.762  71.594  1.00  0.00    -0.313 C  
HETATM    4  CB  UNL     1     -11.550   6.806  70.668  1.00  0.00    -0.422 C  
HETATM    5  CA  UNL     1     -10.589   7.102  69.768  1.00  0.00    -0.234 C  
HETATM    6  N   UNL     1     -10.106   8.372  69.695  1.00  0.00    -0.194 N  
HETATM    7  C   UNL     1     -10.164   5.980  68.865  1.00  0.00    -0.196 C  
HETATM    8  C   UNL     1      -9.377   9.136  68.863  1.00  0.00    -0.146 C  
HETATM    9  OXT UNL     1     -10.633   4.850  68.948  1.00  0.00    -0.013 OA 
HETATM   10  O   UNL     1      -9.201   6.254  67.963  1.00  0.00    -0.119 OA 
HETATM   11  CA  UNL     1      -9.728  10.426  69.702  1.00  0.00    -0.124 C  
HETATM   12  O   UNL     1      -8.807   8.831  67.839  1.00  0.00    -0.135 OA 
ENDROOT
BRANCH  11  13
HETATM   13  N   UNL     1     -10.646  11.372  69.012  1.00  0.00    -0.273 N  
HETATM   14  H   UNL     1     -11.640  11.146  68.994  1.00  0.00     0.000 HD 
HETATM   15  C   UNL     1     -10.240  12.531  68.398  1.00  0.00    -0.228 C  
HETATM   16  O   UNL     1      -9.048  12.811  68.279  1.00  0.00    -0.199 OA 
BRANCH  15  17
HETATM   17  C   UNL     1     -11.343  13.482  67.948  1.00  0.00    -0.320 C  
HETATM   18  C   UNL     1     -12.140  14.072  68.873  1.00  0.00    -0.351 C  
BRANCH  17  19
HETATM   19  C   UNL     1     -11.516  13.748  66.534  1.00  0.00    -0.348 A  
HETATM   20  C   UNL     1     -11.846  12.812  65.571  1.00  0.00    -0.422 A  
HETATM   21  H2  UNL     1     -11.870  16.197  63.077  1.00  0.00     0.000 HD 
HETATM   22  S   UNL     1     -12.012  13.581  64.047  1.00  0.00    -0.416 SA 
HETATM   23  H1  UNL     1     -11.439  17.126  64.507  1.00  0.00     0.000 HD 
HETATM   24  N   UNL     1     -11.395  15.045  66.060  1.00  0.00    -0.313 NA 
HETATM   25  N   UNL     1     -11.652  16.228  64.073  1.00  0.00    -1.007 NA 
HETATM   26  C   UNL     1     -11.654  15.089  64.777  1.00  0.00    -0.395 A  
ENDBRANCH  17  19
BRANCH  18  27
HETATM   27  C   UNL     1     -12.084  14.083  70.380  1.00  0.00    -0.426 C  
HETATM   28  O   UNL     1     -11.872  16.219  71.498  1.00  0.00    -0.458 OA 
HETATM   29  C   UNL     1     -12.601  15.337  71.062  1.00  0.00    -0.406 C  
HETATM   30  O   UNL     1     -13.943  15.393  71.179  1.00  0.00    -0.480 OA 
ENDBRANCH  18  27
ENDBRANCH  15  17
ENDBRANCH  11  13
TORSDOF 4
ENDMDL
MODEL       17
REMARK 921   NORMALIZED FREE ENERGY PREDICTED BY IDOCK:   -7.03 KCAL/MOL
REMARK 922        TOTAL FREE ENERGY PREDICTED BY IDOCK:   -9.22 KCAL/MOL
REMARK 923 INTER-LIGAND FREE ENERGY PREDICTED BY IDOCK:   -8.08 KCAL/MOL
REMARK 924 INTRA-LIGAND FREE ENERGY PREDICTED BY IDOCK:   -1.15 KCAL/MOL
REMARK 927      BINDING AFFINITY PREDICTED BY RF-SCORE:    0.00 PKD
ROOT
HETATM    1  CE  UNL     1     -11.869  14.294  68.605  1.00  0.00    -0.344 C  
HETATM    2  SD  UNL     1     -10.434  13.271  68.183  1.00  0.00    -0.250 SA 
HETATM    3  CG  UNL     1     -11.299  11.700  68.459  1.00  0.00    -0.274 C  
HETATM    4  CB  UNL     1     -12.071  11.682  69.744  1.00  0.00    -0.357 C  
HETATM    5  CA  UNL     1     -12.482  12.751  70.458  1.00  0.00    -0.202 C  
HETATM    6  N   UNL     1     -12.261  14.005  69.975  1.00  0.00    -0.339 N  
HETATM    7  C   UNL     1     -13.116  12.453  71.785  1.00  0.00    -0.342 C  
HETATM    8  C   UNL     1     -12.275  15.277  70.408  1.00  0.00    -0.363 C  
HETATM    9  OXT UNL     1     -13.283  11.309  72.197  1.00  0.00    -0.481 OA 
HETATM   10  O   UNL     1     -13.538  13.507  72.510  1.00  0.00    -0.560 OA 
HETATM   11  CA  UNL     1     -11.605  15.766  69.066  1.00  0.00    -0.400 C  
HETATM   12  O   UNL     1     -12.610  15.720  71.484  1.00  0.00    -0.420 OA 
ENDROOT
BRANCH  11  13
HETATM   13  N   UNL     1     -10.197  16.223  69.217  1.00  0.00    -0.253 N  
HETATM   14  H   UNL     1      -9.762  16.134  70.135  1.00  0.00     0.000 HD 
HETATM   15  C   UNL     1      -9.446  16.758  68.201  1.00  0.00    -0.234 C  
HETATM   16  O   UNL     1      -9.937  17.002  67.099  1.00  0.00    -0.265 OA 
BRANCH  15  17
HETATM   17  C   UNL     1      -7.961  16.954  68.485  1.00  0.00    -0.242 C  
HETATM   18  C   UNL     1      -7.458  18.208  68.594  1.00  0.00    -0.300 C  
BRANCH  17  19
HETATM   19  C   UNL     1      -7.110  15.791  68.641  1.00  0.00    -0.129 A  
HETATM   20  C   UNL     1      -6.208  15.318  67.707  1.00  0.00    -0.158 A  
HETATM   21  H2  UNL     1      -5.323  12.569  70.762  1.00  0.00     0.000 HD 
HETATM   22  S   UNL     1      -5.371  13.962  68.341  1.00  0.00    -0.109 SA 
HETATM   23  H1  UNL     1      -6.553  13.389  71.715  1.00  0.00     0.000 HD 
HETATM   24  N   UNL     1      -7.133  15.081  69.832  1.00  0.00    -0.170 NA 
HETATM   25  N   UNL     1      -6.031  13.299  70.844  1.00  0.00    -0.196 NA 
HETATM   26  C   UNL     1      -6.249  14.114  69.805  1.00  0.00    -0.138 A  
ENDBRANCH  17  19
BRANCH  18  27
HETATM   27  C   UNL     1      -8.132  19.557  68.619  1.00  0.00    -0.375 C  
HETATM   28  O   UNL     1      -7.236  21.306  67.207  1.00  0.00    -0.508 OA 
HETATM   29  C   UNL     1      -8.028  20.384  67.350  1.00  0.00    -0.323 C  
HETATM   30  O   UNL     1      -8.906  20.037  66.386  1.00  0.00    -0.345 OA 
ENDBRANCH  18  27
ENDBRANCH  15  17
ENDBRANCH  11  13
TORSDOF 4
ENDMDL
MODEL       18
REMARK 921   NORMALIZED FREE ENERGY PREDICTED BY IDOCK:   -6.99 KCAL/MOL
REMARK 922        TOTAL FREE ENERGY PREDICTED BY IDOCK:   -9.18 KCAL/MOL
REMARK 923 INTER-LIGAND FREE ENERGY PREDICTED BY IDOCK:   -8.52 KCAL/MOL
REMARK 924 INTRA-LIGAND FREE ENERGY PREDICTED BY IDOCK:   -0.67 KCAL/MOL
REMARK 927      BINDING AFFINITY PREDICTED BY RF-SCORE:    0.00 PKD
ROOT
HETATM    1  CE  UNL     1     -10.052  15.687  67.487  1.00  0.00    -0.253 C  
HETATM    2  SD  UNL     1     -10.711  16.577  68.920  1.00  0.00    -0.349 SA 
HETATM    3  CG  UNL     1      -9.788  18.100  68.574  1.00  0.00    -0.382 C  
HETATM    4  CB  UNL     1      -8.344  17.842  68.260  1.00  0.00    -0.286 C  
HETATM    5  CA  UNL     1      -7.799  16.678  67.850  1.00  0.00    -0.166 C  
HETATM    6  N   UNL     1      -8.605  15.608  67.612  1.00  0.00    -0.164 N  
HETATM    7  C   UNL     1      -6.302  16.655  67.741  1.00  0.00    -0.140 C  
HETATM    8  C   UNL     1      -8.503  14.279  67.435  1.00  0.00    -0.203 C  
HETATM    9  OXT UNL     1      -5.605  17.635  67.980  1.00  0.00    -0.143 OA 
HETATM   10  O   UNL     1      -5.739  15.503  67.328  1.00  0.00    -0.336 OA 
HETATM   11  CA  UNL     1     -10.070  14.122  67.528  1.00  0.00    -0.236 C  
HETATM   12  O   UNL     1      -7.512  13.588  67.352  1.00  0.00    -0.168 OA 
ENDROOT
BRANCH  11  13
HETATM   13  N   UNL     1     -10.545  13.448  68.766  1.00  0.00    -0.326 N  
HETATM   14  H   UNL     1     -10.021  13.607  69.627  1.00  0.00     0.000 HD 
HETATM   15  C   UNL     1     -11.641  12.625  68.825  1.00  0.00    -0.313 C  
HETATM   16  O   UNL     1     -12.252  12.296  67.808  1.00  0.00    -0.425 OA 
BRANCH  15  17
HETATM   17  C   UNL     1     -12.106  12.212  70.217  1.00  0.00    -0.385 C  
HETATM   18  C   UNL     1     -12.562  13.153  71.080  1.00  0.00    -0.397 C  
BRANCH  17  19
HETATM   19  C   UNL     1     -12.059  10.813  70.593  1.00  0.00    -0.370 A  
HETATM   20  C   UNL     1     -10.928  10.020  70.613  1.00  0.00    -0.322 A  
HETATM   21  H2  UNL     1     -13.619   7.175  72.143  1.00  0.00     0.000 HD 
HETATM   22  S   UNL     1     -11.326   8.453  71.186  1.00  0.00    -0.275 SA 
HETATM   23  H1  UNL     1     -14.856   8.415  71.990  1.00  0.00     0.000 HD 
HETATM   24  N   UNL     1     -13.216  10.179  71.020  1.00  0.00    -0.385 NA 
HETATM   25  N   UNL     1     -13.887   8.121  71.874  1.00  0.00    -0.368 NA 
HETATM   26  C   UNL     1     -12.956   8.946  71.380  1.00  0.00    -0.278 A  
ENDBRANCH  17  19
BRANCH  18  27
HETATM   27  C   UNL     1     -12.846  14.623  70.897  1.00  0.00    -0.427 C  
HETATM   28  O   UNL     1     -13.800  15.840  72.758  1.00  0.00    -0.581 OA 
HETATM   29  C   UNL     1     -12.801  15.477  72.151  1.00  0.00    -0.408 C  
HETATM   30  O   UNL     1     -11.559  15.833  72.537  1.00  0.00    -0.431 OA 
ENDBRANCH  18  27
ENDBRANCH  15  17
ENDBRANCH  11  13
TORSDOF 4
ENDMDL
MODEL       19
REMARK 921   NORMALIZED FREE ENERGY PREDICTED BY IDOCK:   -6.99 KCAL/MOL
REMARK 922        TOTAL FREE ENERGY PREDICTED BY IDOCK:   -9.18 KCAL/MOL
REMARK 923 INTER-LIGAND FREE ENERGY PREDICTED BY IDOCK:   -8.36 KCAL/MOL
REMARK 924 INTRA-LIGAND FREE ENERGY PREDICTED BY IDOCK:   -0.82 KCAL/MOL
REMARK 927      BINDING AFFINITY PREDICTED BY RF-SCORE:    0.00 PKD
ROOT
HETATM    1  CE  UNL     1     -10.373   8.860  70.729  1.00  0.00    -0.226 C  
HETATM    2  SD  UNL     1     -12.166   8.749  70.959  1.00  0.00    -0.123 SA 
HETATM    3  CG  UNL     1     -12.161   6.954  71.222  1.00  0.00    -0.380 C  
HETATM    4  CB  UNL     1     -11.337   6.223  70.204  1.00  0.00    -0.476 C  
HETATM    5  CA  UNL     1     -10.363   6.740  69.427  1.00  0.00    -0.199 C  
HETATM    6  N   UNL     1      -9.998   8.041  69.587  1.00  0.00    -0.185 N  
HETATM    7  C   UNL     1      -9.790   5.819  68.389  1.00  0.00    -0.140 C  
HETATM    8  C   UNL     1      -9.301   8.988  68.935  1.00  0.00    -0.143 C  
HETATM    9  OXT UNL     1     -10.156   4.655  68.262  1.00  0.00    -0.101 OA 
HETATM   10  O   UNL     1      -8.812   6.316  67.607  1.00  0.00    -0.113 OA 
HETATM   11  CA  UNL     1      -9.813  10.091  69.941  1.00  0.00    -0.224 C  
HETATM   12  O   UNL     1      -8.653   8.902  67.916  1.00  0.00    -0.125 OA 
ENDROOT
BRANCH  11  13
HETATM   13  N   UNL     1     -10.778  11.057  69.350  1.00  0.00    -0.324 N  
HETATM   14  H   UNL     1     -11.773  10.890  69.499  1.00  0.00     0.000 HD 
HETATM   15  C   UNL     1     -10.416  12.159  68.616  1.00  0.00    -0.216 C  
HETATM   16  O   UNL     1      -9.244  12.361  68.298  1.00  0.00    -0.200 OA 
BRANCH  15  17
HETATM   17  C   UNL     1     -11.525  13.152  68.290  1.00  0.00    -0.349 C  
HETATM   18  C   UNL     1     -12.198  13.762  69.297  1.00  0.00    -0.307 C  
BRANCH  17  19
HETATM   19  C   UNL     1     -11.838  13.434  66.904  1.00  0.00    -0.403 A  
HETATM   20  C   UNL     1     -11.782  14.676  66.300  1.00  0.00    -0.320 A  
HETATM   21  H2  UNL     1     -12.778  12.447  62.877  1.00  0.00     0.000 HD 
HETATM   22  S   UNL     1     -12.168  14.531  64.635  1.00  0.00    -0.409 SA 
HETATM   23  H1  UNL     1     -12.776  11.033  63.923  1.00  0.00     0.000 HD 
HETATM   24  N   UNL     1     -12.186  12.394  66.054  1.00  0.00    -0.624 NA 
HETATM   25  N   UNL     1     -12.661  12.039  63.804  1.00  0.00    -0.660 NA 
HETATM   26  C   UNL     1     -12.361  12.840  64.834  1.00  0.00    -0.490 A  
ENDBRANCH  17  19
BRANCH  18  27
HETATM   27  C   UNL     1     -11.981  13.760  70.789  1.00  0.00    -0.318 C  
HETATM   28  O   UNL     1     -13.919  13.970  72.224  1.00  0.00    -0.485 OA 
HETATM   29  C   UNL     1     -13.131  13.242  71.635  1.00  0.00    -0.363 C  
HETATM   30  O   UNL     1     -13.204  11.897  71.710  1.00  0.00    -0.454 OA 
ENDBRANCH  18  27
ENDBRANCH  15  17
ENDBRANCH  11  13
TORSDOF 4
ENDMDL
MODEL       20
REMARK 921   NORMALIZED FREE ENERGY PREDICTED BY IDOCK:   -6.93 KCAL/MOL
REMARK 922        TOTAL FREE ENERGY PREDICTED BY IDOCK:   -9.11 KCAL/MOL
REMARK 923 INTER-LIGAND FREE ENERGY PREDICTED BY IDOCK:   -8.23 KCAL/MOL
REMARK 924 INTRA-LIGAND FREE ENERGY PREDICTED BY IDOCK:   -0.87 KCAL/MOL
REMARK 927      BINDING AFFINITY PREDICTED BY RF-SCORE:    0.00 PKD
ROOT
HETATM    1  CE  UNL     1     -10.465   8.429  69.387  1.00  0.00    -0.217 C  
HETATM    2  SD  UNL     1     -10.334   9.230  67.768  1.00  0.00    -0.246 SA 
HETATM    3  CG  UNL     1      -9.224   7.970  67.080  1.00  0.00    -0.142 C  
HETATM    4  CB  UNL     1      -8.097   7.624  68.007  1.00  0.00    -0.123 C  
HETATM    5  CA  UNL     1      -8.050   7.833  69.339  1.00  0.00    -0.126 C  
HETATM    6  N   UNL     1      -9.138   8.347  69.976  1.00  0.00    -0.148 N  
HETATM    7  C   UNL     1      -6.743   7.520  70.010  1.00  0.00    -0.046 C  
HETATM    8  C   UNL     1      -9.453   8.907  71.157  1.00  0.00    -0.265 C  
HETATM    9  OXT UNL     1      -5.777   7.074  69.400  1.00  0.00    -0.015 OA 
HETATM   10  O   UNL     1      -6.679   7.718  71.340  1.00  0.00    -0.044 OA 
HETATM   11  CA  UNL     1     -10.875   9.317  70.609  1.00  0.00    -0.278 C  
HETATM   12  O   UNL     1      -8.768   9.059  72.143  1.00  0.00    -0.368 OA 
ENDROOT
BRANCH  11  13
HETATM   13  N   UNL     1     -11.052  10.779  70.399  1.00  0.00    -0.462 N  
HETATM   14  H   UNL     1     -10.268  11.304  70.013  1.00  0.00     0.000 HD 
HETATM   15  C   UNL     1     -12.203  11.467  70.693  1.00  0.00    -0.378 C  
HETATM   16  O   UNL     1     -13.147  10.924  71.266  1.00  0.00    -0.374 OA 
BRANCH  15  17
HETATM   17  C   UNL     1     -12.277  12.907  70.199  1.00  0.00    -0.336 C  
HETATM   18  C   UNL     1     -12.846  13.857  70.981  1.00  0.00    -0.394 C  
BRANCH  17  19
HETATM   19  C   UNL     1     -11.728  13.239  68.899  1.00  0.00    -0.327 A  
HETATM   20  C   UNL     1     -10.808  14.238  68.643  1.00  0.00    -0.253 A  
HETATM   21  H2  UNL     1     -11.029  12.680  64.743  1.00  0.00     0.000 HD 
HETATM   22  S   UNL     1     -10.390  14.230  66.979  1.00  0.00    -0.268 SA 
HETATM   23  H1  UNL     1     -12.195  11.528  65.380  1.00  0.00     0.000 HD 
HETATM   24  N   UNL     1     -12.092  12.491  67.790  1.00  0.00    -0.398 NA 
HETATM   25  N   UNL     1     -11.570  12.320  65.529  1.00  0.00    -0.368 NA 
HETATM   26  C   UNL     1     -11.441  12.899  66.729  1.00  0.00    -0.340 A  
ENDBRANCH  17  19
BRANCH  18  27
HETATM   27  C   UNL     1     -13.351  13.812  72.401  1.00  0.00    -0.635 C  
HETATM   28  O   UNL     1     -12.093  14.995  74.097  1.00  0.00    -0.579 OA 
HETATM   29  C   UNL     1     -13.002  15.002  73.277  1.00  0.00    -0.525 C  
HETATM   30  O   UNL     1     -13.799  16.076  73.099  1.00  0.00    -0.576 OA 
ENDBRANCH  18  27
ENDBRANCH  15  17
ENDBRANCH  11  13
TORSDOF 4
ENDMDL
MODEL       21
REMARK 921   NORMALIZED FREE ENERGY PREDICTED BY IDOCK:   -6.89 KCAL/MOL
REMARK 922        TOTAL FREE ENERGY PREDICTED BY IDOCK:   -9.05 KCAL/MOL
REMARK 923 INTER-LIGAND FREE ENERGY PREDICTED BY IDOCK:   -7.70 KCAL/MOL
REMARK 924 INTRA-LIGAND FREE ENERGY PREDICTED BY IDOCK:   -1.35 KCAL/MOL
REMARK 927      BINDING AFFINITY PREDICTED BY RF-SCORE:    0.00 PKD
ROOT
HETATM    1  CE  UNL     1     -11.810  15.028  68.764  1.00  0.00    -0.301 C  
HETATM    2  SD  UNL     1     -10.488  15.354  69.959  1.00  0.00    -0.253 SA 
HETATM    3  CG  UNL     1     -10.391  17.125  69.577  1.00  0.00    -0.117 C  
HETATM    4  CB  UNL     1     -10.360  17.399  68.103  1.00  0.00    -0.366 C  
HETATM    5  CA  UNL     1     -10.766  16.572  67.116  1.00  0.00    -0.220 C  
HETATM    6  N   UNL     1     -11.335  15.377  67.435  1.00  0.00    -0.290 N  
HETATM    7  C   UNL     1     -10.496  17.036  65.715  1.00  0.00    -0.251 C  
HETATM    8  C   UNL     1     -11.651  14.212  66.842  1.00  0.00    -0.391 C  
HETATM    9  OXT UNL     1      -9.964  18.113  65.466  1.00  0.00    -0.440 OA 
HETATM   10  O   UNL     1     -10.898  16.227  64.716  1.00  0.00    -0.671 OA 
HETATM   11  CA  UNL     1     -11.977  13.562  68.243  1.00  0.00    -0.342 C  
HETATM   12  O   UNL     1     -11.569  13.895  65.677  1.00  0.00    -0.319 OA 
ENDROOT
BRANCH  11  13
HETATM   13  N   UNL     1     -10.996  12.533  68.682  1.00  0.00    -0.245 N  
HETATM   14  H   UNL     1     -10.282  12.812  69.355  1.00  0.00     0.000 HD 
HETATM   15  C   UNL     1     -10.990  11.234  68.241  1.00  0.00    -0.224 C  
HETATM   16  O   UNL     1     -11.746  10.856  67.346  1.00  0.00    -0.510 OA 
BRANCH  15  17
HETATM   17  C   UNL     1     -10.059  10.273  68.972  1.00  0.00    -0.225 C  
HETATM   18  C   UNL     1      -8.810  10.053  68.492  1.00  0.00    -0.120 C  
BRANCH  17  19
HETATM   19  C   UNL     1     -10.524   9.615  70.176  1.00  0.00    -0.273 A  
HETATM   20  C   UNL     1      -9.749   8.854  71.031  1.00  0.00    -0.252 A  
HETATM   21  H2  UNL     1     -13.323   8.693  73.240  1.00  0.00     0.000 HD 
HETATM   22  S   UNL     1     -10.696   8.327  72.360  1.00  0.00    -0.332 SA 
HETATM   23  H1  UNL     1     -14.033   9.676  71.967  1.00  0.00     0.000 HD 
HETATM   24  N   UNL     1     -11.844   9.767  70.574  1.00  0.00    -0.260 NA 
HETATM   25  N   UNL     1     -13.228   9.182  72.350  1.00  0.00    -0.445 NA 
HETATM   26  C   UNL     1     -12.050   9.158  71.716  1.00  0.00    -0.376 A  
ENDBRANCH  17  19
BRANCH  18  27
HETATM   27  C   UNL     1      -8.041  10.703  67.369  1.00  0.00    -0.112 C  
HETATM   28  O   UNL     1      -8.201  13.104  67.117  1.00  0.00    -0.176 OA 
HETATM   29  C   UNL     1      -7.613  12.142  67.593  1.00  0.00    -0.140 C  
HETATM   30  O   UNL     1      -6.501  12.281  68.344  1.00  0.00    -0.051 OA 
ENDBRANCH  18  27
ENDBRANCH  15  17
ENDBRANCH  11  13
TORSDOF 4
ENDMDL
MODEL       22
REMARK 921   NORMALIZED FREE ENERGY PREDICTED BY IDOCK:   -6.87 KCAL/MOL
REMARK 922        TOTAL FREE ENERGY PREDICTED BY IDOCK:   -9.03 KCAL/MOL
REMARK 923 INTER-LIGAND FREE ENERGY PREDICTED BY IDOCK:   -8.11 KCAL/MOL
REMARK 924 INTRA-LIGAND FREE ENERGY PREDICTED BY IDOCK:   -0.92 KCAL/MOL
REMARK 927      BINDING AFFINITY PREDICTED BY RF-SCORE:    0.00 PKD
ROOT
HETATM    1  CE  UNL     1     -11.206  13.771  67.887  1.00  0.00    -0.274 C  
HETATM    2  SD  UNL     1      -9.444  14.103  68.141  1.00  0.00    -0.218 SA 
HETATM    3  CG  UNL     1      -9.561  15.848  67.657  1.00  0.00    -0.221 C  
HETATM    4  CB  UNL     1     -10.342  16.047  66.392  1.00  0.00    -0.312 C  
HETATM    5  CA  UNL     1     -11.227  15.189  65.842  1.00  0.00    -0.280 C  
HETATM    6  N   UNL     1     -11.535  14.035  66.495  1.00  0.00    -0.342 N  
HETATM    7  C   UNL     1     -11.766  15.572  64.495  1.00  0.00    -0.253 C  
HETATM    8  C   UNL     1     -12.131  12.856  66.247  1.00  0.00    -0.365 C  
HETATM    9  OXT UNL     1     -11.452  16.614  63.928  1.00  0.00    -1.186 OA 
HETATM   10  O   UNL     1     -12.655  14.731  63.932  1.00  0.00    -0.834 OA 
HETATM   11  CA  UNL     1     -11.640  12.289  67.635  1.00  0.00    -0.354 C  
HETATM   12  O   UNL     1     -12.703  12.478  65.249  1.00  0.00    -0.654 OA 
ENDROOT
BRANCH  11  13
HETATM   13  N   UNL     1     -10.585  11.246  67.531  1.00  0.00    -0.207 N  
HETATM   14  H   UNL     1     -10.084  11.160  66.647  1.00  0.00     0.000 HD 
HETATM   15  C   UNL     1     -10.242  10.390  68.548  1.00  0.00    -0.173 C  
HETATM   16  O   UNL     1     -10.879  10.357  69.601  1.00  0.00    -0.240 OA 
BRANCH  15  17
HETATM   17  C   UNL     1      -8.989   9.549  68.334  1.00  0.00    -0.127 C  
HETATM   18  C   UNL     1      -9.091   8.327  67.755  1.00  0.00    -0.138 C  
BRANCH  17  19
HETATM   19  C   UNL     1      -7.704  10.075  68.748  1.00  0.00    -0.085 A  
HETATM   20  C   UNL     1      -6.783  10.696  67.926  1.00  0.00    -0.064 A  
HETATM   21  H2  UNL     1      -4.710  11.200  71.549  1.00  0.00     0.000 HD 
HETATM   22  S   UNL     1      -5.436  11.218  68.851  1.00  0.00    -0.039 SA 
HETATM   23  H1  UNL     1      -6.051  10.358  72.314  1.00  0.00     0.000 HD 
HETATM   24  N   UNL     1      -7.337  10.015  70.084  1.00  0.00    -0.157 NA 
HETATM   25  N   UNL     1      -5.609  10.725  71.472  1.00  0.00    -0.326 NA 
HETATM   26  C   UNL     1      -6.179  10.601  70.267  1.00  0.00    -0.139 A  
ENDBRANCH  17  19
BRANCH  18  27
HETATM   27  C   UNL     1     -10.258   7.619  67.115  1.00  0.00    -0.360 C  
HETATM   28  O   UNL     1     -10.401   5.215  67.347  1.00  0.00    -0.191 OA 
HETATM   29  C   UNL     1     -10.700   6.323  67.770  1.00  0.00    -0.306 C  
HETATM   30  O   UNL     1     -11.483   6.488  68.856  1.00  0.00    -0.266 OA 
ENDBRANCH  18  27
ENDBRANCH  15  17
ENDBRANCH  11  13
TORSDOF 4
ENDMDL
MODEL       23
REMARK 921   NORMALIZED FREE ENERGY PREDICTED BY IDOCK:   -6.85 KCAL/MOL
REMARK 922        TOTAL FREE ENERGY PREDICTED BY IDOCK:   -9.01 KCAL/MOL
REMARK 923 INTER-LIGAND FREE ENERGY PREDICTED BY IDOCK:   -8.35 KCAL/MOL
REMARK 924 INTRA-LIGAND FREE ENERGY PREDICTED BY IDOCK:   -0.66 KCAL/MOL
REMARK 927      BINDING AFFINITY PREDICTED BY RF-SCORE:    0.00 PKD
ROOT
HETATM    1  CE  UNL     1      -8.986   8.896  69.540  1.00  0.00    -0.145 C  
HETATM    2  SD  UNL     1      -7.656  10.115  69.696  1.00  0.00    -0.165 SA 
HETATM    3  CG  UNL     1      -6.685   9.112  70.854  1.00  0.00    -0.087 C  
HETATM    4  CB  UNL     1      -7.518   8.540  71.963  1.00  0.00    -0.120 C  
HETATM    5  CA  UNL     1      -8.857   8.374  71.969  1.00  0.00    -0.211 C  
HETATM    6  N   UNL     1      -9.574   8.674  70.852  1.00  0.00    -0.187 N  
HETATM    7  C   UNL     1      -9.457   7.908  73.263  1.00  0.00    -0.285 C  
HETATM    8  C   UNL     1     -10.852   8.882  70.491  1.00  0.00    -0.236 C  
HETATM    9  OXT UNL     1      -8.781   7.662  74.256  1.00  0.00    -0.235 OA 
HETATM   10  O   UNL     1     -10.792   7.731  73.287  1.00  0.00    -0.383 OA 
HETATM   11  CA  UNL     1     -10.392   9.405  69.075  1.00  0.00    -0.210 C  
HETATM   12  O   UNL     1     -11.865   8.766  71.144  1.00  0.00    -0.287 OA 
ENDROOT
BRANCH  11  13
HETATM   13  N   UNL     1     -10.588  10.865  68.869  1.00  0.00    -0.198 N  
HETATM   14  H   UNL     1      -9.758  11.448  68.768  1.00  0.00     0.000 HD 
HETATM   15  C   UNL     1     -11.814  11.478  68.805  1.00  0.00    -0.330 C  
HETATM   16  O   UNL     1     -12.854  10.858  69.031  1.00  0.00    -0.082 OA 
BRANCH  15  17
HETATM   17  C   UNL     1     -11.822  12.936  68.361  1.00  0.00    -0.357 C  
HETATM   18  C   UNL     1     -12.058  13.913  69.271  1.00  0.00    -0.383 C  
BRANCH  17  19
HETATM   19  C   UNL     1     -11.569  13.254  66.971  1.00  0.00    -0.359 A  
HETATM   20  C   UNL     1     -10.518  14.017  66.496  1.00  0.00    -0.281 A  
HETATM   21  H2  UNL     1     -12.165  12.970  62.771  1.00  0.00     0.000 HD 
HETATM   22  S   UNL     1     -10.572  14.077  64.782  1.00  0.00    -0.390 SA 
HETATM   23  H1  UNL     1     -13.383  12.082  63.676  1.00  0.00     0.000 HD 
HETATM   24  N   UNL     1     -12.397  12.736  65.987  1.00  0.00    -0.554 NA 
HETATM   25  N   UNL     1     -12.555  12.676  63.666  1.00  0.00    -0.739 NA 
HETATM   26  C   UNL     1     -11.965  13.079  64.798  1.00  0.00    -0.395 A  
ENDBRANCH  17  19
BRANCH  18  27
HETATM   27  C   UNL     1     -12.204  13.869  70.771  1.00  0.00    -0.441 C  
HETATM   28  O   UNL     1     -11.538  15.818  72.041  1.00  0.00    -0.413 OA 
HETATM   29  C   UNL     1     -12.424  15.201  71.465  1.00  0.00    -0.350 C  
HETATM   30  O   UNL     1     -13.697  15.647  71.422  1.00  0.00    -0.523 OA 
ENDBRANCH  18  27
ENDBRANCH  15  17
ENDBRANCH  11  13
TORSDOF 4
ENDMDL
MODEL       24
REMARK 921   NORMALIZED FREE ENERGY PREDICTED BY IDOCK:   -6.84 KCAL/MOL
REMARK 922        TOTAL FREE ENERGY PREDICTED BY IDOCK:   -8.99 KCAL/MOL
REMARK 923 INTER-LIGAND FREE ENERGY PREDICTED BY IDOCK:   -7.91 KCAL/MOL
REMARK 924 INTRA-LIGAND FREE ENERGY PREDICTED BY IDOCK:   -1.09 KCAL/MOL
REMARK 927      BINDING AFFINITY PREDICTED BY RF-SCORE:    0.00 PKD
ROOT
HETATM    1  CE  UNL     1      -9.310  10.953  68.255  1.00  0.00    -0.168 C  
HETATM    2  SD  UNL     1      -7.743  11.854  68.379  1.00  0.00    -0.134 SA 
HETATM    3  CG  UNL     1      -6.742  10.358  68.602  1.00  0.00    -0.053 C  
HETATM    4  CB  UNL     1      -7.323   9.418  69.617  1.00  0.00    -0.077 C  
HETATM    5  CA  UNL     1      -8.601   9.380  70.048  1.00  0.00    -0.203 C  
HETATM    6  N   UNL     1      -9.521  10.213  69.489  1.00  0.00    -0.220 N  
HETATM    7  C   UNL     1      -8.888   8.431  71.175  1.00  0.00    -0.164 C  
HETATM    8  C   UNL     1     -10.762  10.667  69.736  1.00  0.00    -0.230 C  
HETATM    9  OXT UNL     1      -8.028   7.708  71.666  1.00  0.00    -0.087 OA 
HETATM   10  O   UNL     1     -10.160   8.375  71.615  1.00  0.00    -0.199 OA 
HETATM   11  CA  UNL     1     -10.627  11.733  68.580  1.00  0.00    -0.223 C  
HETATM   12  O   UNL     1     -11.536  10.353  70.613  1.00  0.00    -0.305 OA 
ENDROOT
BRANCH  11  13
HETATM   13  N   UNL     1     -10.524  13.139  69.055  1.00  0.00    -0.432 N  
HETATM   14  H   UNL     1      -9.609  13.588  69.022  1.00  0.00     0.000 HD 
HETATM   15  C   UNL     1     -11.581  13.872  69.535  1.00  0.00    -0.301 C  
HETATM   16  O   UNL     1     -12.687  13.362  69.711  1.00  0.00    -0.028 OA 
BRANCH  15  17
HETATM   17  C   UNL     1     -11.330  15.359  69.757  1.00  0.00    -0.317 C  
HETATM   18  C   UNL     1     -11.470  15.885  70.999  1.00  0.00    -0.461 C  
BRANCH  17  19
HETATM   19  C   UNL     1     -10.938  16.186  68.634  1.00  0.00    -0.336 A  
HETATM   20  C   UNL     1     -10.578  17.519  68.699  1.00  0.00    -0.288 A  
HETATM   21  H2  UNL     1      -9.858  16.959  64.595  1.00  0.00     0.000 HD 
HETATM   22  S   UNL     1     -10.125  18.077  67.142  1.00  0.00    -0.363 SA 
HETATM   23  H1  UNL     1     -10.382  15.297  64.835  1.00  0.00     0.000 HD 
HETATM   24  N   UNL     1     -10.857  15.628  67.367  1.00  0.00    -0.317 NA 
HETATM   25  N   UNL     1     -10.206  16.227  65.214  1.00  0.00    -0.568 NA 
HETATM   26  C   UNL     1     -10.420  16.513  66.505  1.00  0.00    -0.270 A  
ENDBRANCH  17  19
BRANCH  18  27
HETATM   27  C   UNL     1     -11.721  15.238  72.336  1.00  0.00    -0.538 C  
HETATM   28  O   UNL     1     -13.317  16.280  73.828  1.00  0.00    -0.670 OA 
HETATM   29  C   UNL     1     -13.094  15.461  72.945  1.00  0.00    -0.492 C  
HETATM   30  O   UNL     1     -14.059  14.659  72.451  1.00  0.00    -0.463 OA 
ENDBRANCH  18  27
ENDBRANCH  15  17
ENDBRANCH  11  13
TORSDOF 4
ENDMDL
MODEL       25
REMARK 921   NORMALIZED FREE ENERGY PREDICTED BY IDOCK:   -6.80 KCAL/MOL
REMARK 922        TOTAL FREE ENERGY PREDICTED BY IDOCK:   -8.94 KCAL/MOL
REMARK 923 INTER-LIGAND FREE ENERGY PREDICTED BY IDOCK:   -8.05 KCAL/MOL
REMARK 924 INTRA-LIGAND FREE ENERGY PREDICTED BY IDOCK:   -0.90 KCAL/MOL
REMARK 927      BINDING AFFINITY PREDICTED BY RF-SCORE:    0.00 PKD
ROOT
HETATM    1  CE  UNL     1     -11.657  14.806  68.818  1.00  0.00    -0.320 C  
HETATM    2  SD  UNL     1     -10.031  15.345  69.406  1.00  0.00    -0.277 SA 
HETATM    3  CG  UNL     1     -10.064  16.909  68.488  1.00  0.00    -0.297 C  
HETATM    4  CB  UNL     1     -10.493  16.734  67.062  1.00  0.00    -0.285 C  
HETATM    5  CA  UNL     1     -11.181  15.695  66.544  1.00  0.00    -0.048 C  
HETATM    6  N   UNL     1     -11.619  14.705  67.368  1.00  0.00    -0.378 N  
HETATM    7  C   UNL     1     -11.361  15.702  65.054  1.00  0.00    -0.253 C  
HETATM    8  C   UNL     1     -12.098  13.451  67.284  1.00  0.00    -0.304 C  
HETATM    9  OXT UNL     1     -10.937  16.604  64.340  1.00  0.00    -0.924 OA 
HETATM   10  O   UNL     1     -12.050  14.675  64.519  1.00  0.00    -0.461 OA 
HETATM   11  CA  UNL     1     -11.972  13.273  68.847  1.00  0.00    -0.297 C  
HETATM   12  O   UNL     1     -12.381  12.800  66.303  1.00  0.00    -0.521 OA 
ENDROOT
BRANCH  11  13
HETATM   13  N   UNL     1     -10.899  12.333  69.270  1.00  0.00    -0.435 N  
HETATM   14  H   UNL     1     -10.088  12.721  69.752  1.00  0.00     0.000 HD 
HETATM   15  C   UNL     1     -10.929  10.979  69.052  1.00  0.00    -0.233 C  
HETATM   16  O   UNL     1     -11.817  10.457  68.378  1.00  0.00    -0.304 OA 
BRANCH  15  17
HETATM   17  C   UNL     1      -9.858  10.154  69.756  1.00  0.00    -0.245 C  
HETATM   18  C   UNL     1     -10.162   9.492  70.900  1.00  0.00    -0.356 C  
BRANCH  17  19
HETATM   19  C   UNL     1      -8.528  10.084  69.183  1.00  0.00    -0.156 A  
HETATM   20  C   UNL     1      -7.618   9.063  69.379  1.00  0.00    -0.078 A  
HETATM   21  H2  UNL     1      -5.348  11.305  66.641  1.00  0.00     0.000 HD 
HETATM   22  S   UNL     1      -6.203   9.361  68.456  1.00  0.00    -0.048 SA 
HETATM   23  H1  UNL     1      -6.692  12.438  66.612  1.00  0.00     0.000 HD 
HETATM   24  N   UNL     1      -8.100  11.082  68.321  1.00  0.00    -0.121 NA 
HETATM   25  N   UNL     1      -6.273  11.580  66.969  1.00  0.00    -0.119 NA 
HETATM   26  C   UNL     1      -6.907  10.804  67.857  1.00  0.00    -0.072 A  
ENDBRANCH  17  19
BRANCH  18  27
HETATM   27  C   UNL     1     -11.473   9.283  71.614  1.00  0.00    -0.468 C  
HETATM   28  O   UNL     1     -12.545   7.122  71.422  1.00  0.00    -0.359 OA 
HETATM   29  C   UNL     1     -11.788   7.859  72.039  1.00  0.00    -0.318 C  
HETATM   30  O   UNL     1     -11.180   7.472  73.179  1.00  0.00    -0.369 OA 
ENDBRANCH  18  27
ENDBRANCH  15  17
ENDBRANCH  11  13
TORSDOF 4
ENDMDL
MODEL       26
REMARK 921   NORMALIZED FREE ENERGY PREDICTED BY IDOCK:   -6.80 KCAL/MOL
REMARK 922        TOTAL FREE ENERGY PREDICTED BY IDOCK:   -8.94 KCAL/MOL
REMARK 923 INTER-LIGAND FREE ENERGY PREDICTED BY IDOCK:   -8.03 KCAL/MOL
REMARK 924 INTRA-LIGAND FREE ENERGY PREDICTED BY IDOCK:   -0.91 KCAL/MOL
REMARK 927      BINDING AFFINITY PREDICTED BY RF-SCORE:    0.00 PKD
ROOT
HETATM    1  CE  UNL     1      -9.597  10.794  66.554  1.00  0.00    -0.183 C  
HETATM    2  SD  UNL     1      -9.380   9.283  65.579  1.00  0.00    -0.215 SA 
HETATM    3  CG  UNL     1      -9.342  10.151  63.986  1.00  0.00    -0.287 C  
HETATM    4  CB  UNL     1     -10.443  11.160  63.851  1.00  0.00    -0.445 C  
HETATM    5  CA  UNL     1     -11.151  11.726  64.850  1.00  0.00    -0.285 C  
HETATM    6  N   UNL     1     -10.831  11.442  66.142  1.00  0.00    -0.273 N  
HETATM    7  C   UNL     1     -12.296  12.603  64.431  1.00  0.00    -0.446 C  
HETATM    8  C   UNL     1     -11.362  11.569  67.371  1.00  0.00    -0.298 C  
HETATM    9  OXT UNL     1     -12.565  12.822  63.255  1.00  0.00    -0.676 OA 
HETATM   10  O   UNL     1     -13.011  13.181  65.415  1.00  0.00    -0.617 OA 
HETATM   11  CA  UNL     1     -10.226  10.658  67.980  1.00  0.00    -0.175 C  
HETATM   12  O   UNL     1     -12.385  12.118  67.715  1.00  0.00    -0.313 OA 
ENDROOT
BRANCH  11  13
HETATM   13  N   UNL     1     -10.692   9.318  68.428  1.00  0.00    -0.389 N  
HETATM   14  H   UNL     1     -11.646   9.042  68.196  1.00  0.00     0.000 HD 
HETATM   15  C   UNL     1      -9.921   8.429  69.134  1.00  0.00    -0.196 C  
HETATM   16  O   UNL     1      -8.803   8.736  69.547  1.00  0.00    -0.139 OA 
BRANCH  15  17
HETATM   17  C   UNL     1     -10.487   7.024  69.303  1.00  0.00    -0.223 C  
HETATM   18  C   UNL     1     -11.149   6.700  70.442  1.00  0.00    -0.374 C  
BRANCH  17  19
HETATM   19  C   UNL     1     -10.315   6.058  68.237  1.00  0.00    -0.207 A  
HETATM   20  C   UNL     1     -10.855   6.150  66.969  1.00  0.00    -0.356 A  
HETATM   21  H2  UNL     1      -8.646   2.624  66.368  1.00  0.00     0.000 HD 
HETATM   22  S   UNL     1     -10.337   4.820  66.017  1.00  0.00    -0.260 SA 
HETATM   23  H1  UNL     1      -8.134   2.782  68.043  1.00  0.00     0.000 HD 
HETATM   24  N   UNL     1      -9.511   4.947  68.443  1.00  0.00    -0.131 NA 
HETATM   25  N   UNL     1      -8.676   3.130  67.253  1.00  0.00    -0.112 NA 
HETATM   26  C   UNL     1      -9.426   4.235  67.346  1.00  0.00    -0.180 A  
ENDBRANCH  17  19
BRANCH  18  27
HETATM   27  C   UNL     1     -11.586   7.537  71.617  1.00  0.00    -0.299 C  
HETATM   28  O   UNL     1     -10.750   6.948  73.810  1.00  0.00    -0.347 OA 
HETATM   29  C   UNL     1     -10.621   7.607  72.787  1.00  0.00    -0.325 C  
HETATM   30  O   UNL     1      -9.610   8.485  72.623  1.00  0.00    -0.280 OA 
ENDBRANCH  18  27
ENDBRANCH  15  17
ENDBRANCH  11  13
TORSDOF 4
ENDMDL
MODEL       27
REMARK 921   NORMALIZED FREE ENERGY PREDICTED BY IDOCK:   -6.77 KCAL/MOL
REMARK 922        TOTAL FREE ENERGY PREDICTED BY IDOCK:   -8.91 KCAL/MOL
REMARK 923 INTER-LIGAND FREE ENERGY PREDICTED BY IDOCK:   -7.99 KCAL/MOL
REMARK 924 INTRA-LIGAND FREE ENERGY PREDICTED BY IDOCK:   -0.92 KCAL/MOL
REMARK 927      BINDING AFFINITY PREDICTED BY RF-SCORE:    0.00 PKD
ROOT
HETATM    1  CE  UNL     1      -8.629  15.810  69.293  1.00  0.00    -0.259 C  
HETATM    2  SD  UNL     1      -7.186  15.296  68.327  1.00  0.00    -0.125 SA 
HETATM    3  CG  UNL     1      -6.367  16.911  68.432  1.00  0.00    -0.140 C  
HETATM    4  CB  UNL     1      -7.294  18.050  68.129  1.00  0.00    -0.250 C  
HETATM    5  CA  UNL     1      -8.643  18.033  68.177  1.00  0.00    -0.273 C  
HETATM    6  N   UNL     1      -9.284  16.911  68.605  1.00  0.00    -0.259 N  
HETATM    7  C   UNL     1      -9.336  19.272  67.689  1.00  0.00    -0.307 C  
HETATM    8  C   UNL     1     -10.519  16.382  68.597  1.00  0.00    -0.293 C  
HETATM    9  OXT UNL     1      -8.725  20.259  67.293  1.00  0.00    -0.337 OA 
HETATM   10  O   UNL     1     -10.682  19.275  67.734  1.00  0.00    -0.426 OA 
HETATM   11  CA  UNL     1      -9.956  15.000  69.110  1.00  0.00    -0.237 C  
HETATM   12  O   UNL     1     -11.562  16.867  68.218  1.00  0.00     0.007 OA 
ENDROOT
BRANCH  11  13
HETATM   13  N   UNL     1      -9.991  13.911  68.096  1.00  0.00    -0.233 N  
HETATM   14  H   UNL     1      -9.168  13.778  67.510  1.00  0.00     0.000 HD 
HETATM   15  C   UNL     1     -11.061  13.074  67.900  1.00  0.00    -0.255 C  
HETATM   16  O   UNL     1     -12.128  13.247  68.489  1.00  0.00    -0.341 OA 
BRANCH  15  17
HETATM   17  C   UNL     1     -10.829  11.880  66.981  1.00  0.00    -0.303 C  
HETATM   18  C   UNL     1     -10.812  12.060  65.637  1.00  0.00    -0.325 C  
BRANCH  17  19
HETATM   19  C   UNL     1     -10.621  10.569  67.563  1.00  0.00    -0.259 A  
HETATM   20  C   UNL     1     -10.544  10.288  68.914  1.00  0.00    -0.219 A  
HETATM   21  H2  UNL     1     -10.271   6.333  67.515  1.00  0.00     0.000 HD 
HETATM   22  S   UNL     1     -10.360   8.599  69.147  1.00  0.00    -0.210 SA 
HETATM   23  H1  UNL     1     -10.386   7.007  65.895  1.00  0.00     0.000 HD 
HETATM   24  N   UNL     1     -10.531   9.459  66.736  1.00  0.00    -0.226 NA 
HETATM   25  N   UNL     1     -10.353   7.145  66.905  1.00  0.00    -0.277 NA 
HETATM   26  C   UNL     1     -10.415   8.366  67.450  1.00  0.00    -0.283 A  
ENDBRANCH  17  19
BRANCH  18  27
HETATM   27  C   UNL     1     -10.855  13.310  64.796  1.00  0.00    -0.374 C  
HETATM   28  O   UNL     1     -12.565  13.480  63.092  1.00  0.00    -0.762 OA 
HETATM   29  C   UNL     1     -12.214  13.702  64.243  1.00  0.00    -0.396 C  
HETATM   30  O   UNL     1     -13.007  14.347  65.123  1.00  0.00    -0.631 OA 
ENDBRANCH  18  27
ENDBRANCH  15  17
ENDBRANCH  11  13
TORSDOF 4
ENDMDL
MODEL       28
REMARK 921   NORMALIZED FREE ENERGY PREDICTED BY IDOCK:   -6.73 KCAL/MOL
REMARK 922        TOTAL FREE ENERGY PREDICTED BY IDOCK:   -8.86 KCAL/MOL
REMARK 923 INTER-LIGAND FREE ENERGY PREDICTED BY IDOCK:   -7.90 KCAL/MOL
REMARK 924 INTRA-LIGAND FREE ENERGY PREDICTED BY IDOCK:   -0.96 KCAL/MOL
REMARK 927      BINDING AFFINITY PREDICTED BY RF-SCORE:    0.00 PKD
ROOT
HETATM    1  CE  UNL     1      -8.665  12.109  66.832  1.00  0.00    -0.194 C  
HETATM    2  SD  UNL     1      -7.395  12.446  68.079  1.00  0.00    -0.122 SA 
HETATM    3  CG  UNL     1      -6.471  10.920  67.751  1.00  0.00    -0.063 C  
HETATM    4  CB  UNL     1      -7.357   9.712  67.671  1.00  0.00    -0.090 C  
HETATM    5  CA  UNL     1      -8.686   9.696  67.438  1.00  0.00    -0.128 C  
HETATM    6  N   UNL     1      -9.334  10.863  67.171  1.00  0.00    -0.159 N  
HETATM    7  C   UNL     1      -9.358   8.358  67.549  1.00  0.00    -0.147 C  
HETATM    8  C   UNL     1     -10.591  11.337  67.116  1.00  0.00    -0.235 C  
HETATM    9  OXT UNL     1      -8.744   7.329  67.809  1.00  0.00    -0.126 OA 
HETATM   10  O   UNL     1     -10.684   8.321  67.315  1.00  0.00    -0.289 OA 
HETATM   11  CA  UNL     1     -10.052  12.816  66.993  1.00  0.00    -0.240 C  
HETATM   12  O   UNL     1     -11.642  10.748  67.233  1.00  0.00    -0.439 OA 
ENDROOT
BRANCH  11  13
HETATM   13  N   UNL     1     -10.288  13.654  68.199  1.00  0.00    -0.239 N  
HETATM   14  H   UNL     1      -9.637  13.563  68.978  1.00  0.00     0.000 HD 
HETATM   15  C   UNL     1     -11.325  14.543  68.330  1.00  0.00    -0.289 C  
HETATM   16  O   UNL     1     -12.213  14.624  67.481  1.00  0.00    -0.277 OA 
BRANCH  15  17
HETATM   17  C   UNL     1     -11.273  15.475  69.535  1.00  0.00    -0.300 C  
HETATM   18  C   UNL     1     -10.473  16.570  69.503  1.00  0.00    -0.298 C  
BRANCH  17  19
HETATM   19  C   UNL     1     -12.088  15.178  70.696  1.00  0.00    -0.329 A  
HETATM   20  C   UNL     1     -12.881  14.059  70.860  1.00  0.00    -0.318 A  
HETATM   21  H2  UNL     1     -13.526  15.750  74.656  1.00  0.00     0.000 HD 
HETATM   22  S   UNL     1     -13.613  14.087  72.411  1.00  0.00    -0.585 SA 
HETATM   23  H1  UNL     1     -12.463  17.053  74.141  1.00  0.00     0.000 HD 
HETATM   24  N   UNL     1     -12.071  16.039  71.783  1.00  0.00    -0.484 NA 
HETATM   25  N   UNL     1     -12.939  16.175  73.938  1.00  0.00    -0.686 NA 
HETATM   26  C   UNL     1     -12.813  15.564  72.753  1.00  0.00    -0.435 A  
ENDBRANCH  17  19
BRANCH  18  27
HETATM   27  C   UNL     1      -9.653  17.177  68.393  1.00  0.00    -0.281 C  
HETATM   28  O   UNL     1     -10.649  17.332  66.193  1.00  0.00    -0.304 OA 
HETATM   29  C   UNL     1     -10.428  17.855  67.278  1.00  0.00    -0.366 C  
HETATM   30  O   UNL     1     -10.840  19.106  67.568  1.00  0.00    -0.473 OA 
ENDBRANCH  18  27
ENDBRANCH  15  17
ENDBRANCH  11  13
TORSDOF 4
ENDMDL
MODEL       29
REMARK 921   NORMALIZED FREE ENERGY PREDICTED BY IDOCK:   -6.67 KCAL/MOL
REMARK 922        TOTAL FREE ENERGY PREDICTED BY IDOCK:   -8.79 KCAL/MOL
REMARK 923 INTER-LIGAND FREE ENERGY PREDICTED BY IDOCK:   -7.65 KCAL/MOL
REMARK 924 INTRA-LIGAND FREE ENERGY PREDICTED BY IDOCK:   -1.13 KCAL/MOL
REMARK 927      BINDING AFFINITY PREDICTED BY RF-SCORE:    0.00 PKD
ROOT
HETATM    1  CE  UNL     1     -11.059  13.743  67.816  1.00  0.00    -0.268 C  
HETATM    2  SD  UNL     1      -9.311  14.169  68.027  1.00  0.00    -0.209 SA 
HETATM    3  CG  UNL     1      -9.530  15.899  67.526  1.00  0.00    -0.219 C  
HETATM    4  CB  UNL     1     -10.347  16.040  66.276  1.00  0.00    -0.330 C  
HETATM    5  CA  UNL     1     -11.197  15.130  65.756  1.00  0.00    -0.287 C  
HETATM    6  N   UNL     1     -11.431  13.971  66.429  1.00  0.00    -0.339 N  
HETATM    7  C   UNL     1     -11.784  15.467  64.416  1.00  0.00    -0.242 C  
HETATM    8  C   UNL     1     -11.969  12.759  66.208  1.00  0.00    -0.395 C  
HETATM    9  OXT UNL     1     -11.537  16.516  63.830  1.00  0.00    -1.175 OA 
HETATM   10  O   UNL     1     -12.639  14.573  63.883  1.00  0.00    -0.827 OA 
HETATM   11  CA  UNL     1     -11.420  12.236  67.592  1.00  0.00    -0.336 C  
HETATM   12  O   UNL     1     -12.542  12.338  65.227  1.00  0.00    -0.583 OA 
ENDROOT
BRANCH  11  13
HETATM   13  N   UNL     1     -10.314  11.248  67.477  1.00  0.00    -0.188 N  
HETATM   14  H   UNL     1      -9.660  11.352  66.702  1.00  0.00     0.000 HD 
HETATM   15  C   UNL     1     -10.117  10.206  68.348  1.00  0.00    -0.164 C  
HETATM   16  O   UNL     1     -10.929   9.950  69.237  1.00  0.00    -0.224 OA 
BRANCH  15  17
HETATM   17  C   UNL     1      -8.807   9.440  68.205  1.00  0.00    -0.124 C  
HETATM   18  C   UNL     1      -8.594   8.673  67.106  1.00  0.00    -0.123 C  
BRANCH  17  19
HETATM   19  C   UNL     1      -7.804   9.551  69.245  1.00  0.00    -0.088 A  
HETATM   20  C   UNL     1      -7.243   8.497  69.941  1.00  0.00    -0.051 A  
HETATM   21  H2  UNL     1      -4.944  11.572  71.654  1.00  0.00     0.000 HD 
HETATM   22  S   UNL     1      -6.054   9.086  71.028  1.00  0.00    -0.060 SA 
HETATM   23  H1  UNL     1      -5.850  12.679  70.631  1.00  0.00     0.000 HD 
HETATM   24  N   UNL     1      -7.298  10.798  69.578  1.00  0.00    -0.138 NA 
HETATM   25  N   UNL     1      -5.669  11.729  70.954  1.00  0.00    -0.348 NA 
HETATM   26  C   UNL     1      -6.358  10.682  70.484  1.00  0.00    -0.074 A  
ENDBRANCH  17  19
BRANCH  18  27
HETATM   27  C   UNL     1      -9.390   8.501  65.838  1.00  0.00    -0.231 C  
HETATM   28  O   UNL     1      -9.862  10.470  64.512  1.00  0.00    -0.288 OA 
HETATM   29  C   UNL     1      -9.130   9.515  64.738  1.00  0.00    -0.218 C  
HETATM   30  O   UNL     1      -8.028   9.267  64.002  1.00  0.00    -0.123 OA 
ENDBRANCH  18  27
ENDBRANCH  15  17
ENDBRANCH  11  13
TORSDOF 4
ENDMDL
MODEL       30
REMARK 921   NORMALIZED FREE ENERGY PREDICTED BY IDOCK:   -6.64 KCAL/MOL
REMARK 922        TOTAL FREE ENERGY PREDICTED BY IDOCK:   -8.74 KCAL/MOL
REMARK 923 INTER-LIGAND FREE ENERGY PREDICTED BY IDOCK:   -7.73 KCAL/MOL
REMARK 924 INTRA-LIGAND FREE ENERGY PREDICTED BY IDOCK:   -1.01 KCAL/MOL
REMARK 927      BINDING AFFINITY PREDICTED BY RF-SCORE:    0.00 PKD
ROOT
HETATM    1  CE  UNL     1      -9.341  11.633  66.071  1.00  0.00    -0.227 C  
HETATM    2  SD  UNL     1      -9.753   9.969  65.488  1.00  0.00    -0.304 SA 
HETATM    3  CG  UNL     1      -9.916  10.468  63.752  1.00  0.00    -0.258 C  
HETATM    4  CB  UNL     1     -10.737  11.711  63.581  1.00  0.00    -0.500 C  
HETATM    5  CA  UNL     1     -11.007  12.640  64.522  1.00  0.00    -0.332 C  
HETATM    6  N   UNL     1     -10.445  12.526  65.757  1.00  0.00    -0.265 N  
HETATM    7  C   UNL     1     -11.973  13.718  64.125  1.00  0.00    -0.432 C  
HETATM    8  C   UNL     1     -10.596  13.034  66.992  1.00  0.00    -0.257 C  
HETATM    9  OXT UNL     1     -12.473  13.780  63.007  1.00  0.00    -0.712 OA 
HETATM   10  O   UNL     1     -12.250  14.658  65.050  1.00  0.00    -0.381 OA 
HETATM   11  CA  UNL     1      -9.598  11.962  67.580  1.00  0.00    -0.185 C  
HETATM   12  O   UNL     1     -11.332  13.915  67.377  1.00  0.00    -0.300 OA 
ENDROOT
BRANCH  11  13
HETATM   13  N   UNL     1     -10.243  10.930  68.434  1.00  0.00    -0.171 N  
HETATM   14  H   UNL     1     -11.252  10.805  68.353  1.00  0.00     0.000 HD 
HETATM   15  C   UNL     1      -9.568  10.133  69.325  1.00  0.00    -0.225 C  
HETATM   16  O   UNL     1      -8.372  10.303  69.560  1.00  0.00    -0.164 OA 
BRANCH  15  17
HETATM   17  C   UNL     1     -10.357   8.982  69.940  1.00  0.00    -0.219 C  
HETATM   18  C   UNL     1      -9.949   7.705  69.738  1.00  0.00    -0.184 C  
BRANCH  17  19
HETATM   19  C   UNL     1     -11.530   9.275  70.739  1.00  0.00    -0.292 A  
HETATM   20  C   UNL     1     -12.301   8.346  71.411  1.00  0.00    -0.299 A  
HETATM   21  H2  UNL     1     -14.319  11.792  72.729  1.00  0.00     0.000 HD 
HETATM   22  S   UNL     1     -13.546   9.144  72.281  1.00  0.00    -0.487 SA 
HETATM   23  H1  UNL     1     -13.174  12.708  71.758  1.00  0.00     0.000 HD 
HETATM   24  N   UNL     1     -11.930  10.592  70.913  1.00  0.00    -0.357 NA 
HETATM   25  N   UNL     1     -13.523  11.810  72.093  1.00  0.00    -0.349 NA 
HETATM   26  C   UNL     1     -12.961  10.654  71.719  1.00  0.00    -0.472 A  
ENDBRANCH  17  19
BRANCH  18  27
HETATM   27  C   UNL     1      -8.712   7.142  69.086  1.00  0.00    -0.133 C  
HETATM   28  O   UNL     1      -6.585   7.486  70.187  1.00  0.00    -0.041 OA 
HETATM   29  C   UNL     1      -7.568   6.778  70.016  1.00  0.00    -0.100 C  
HETATM   30  O   UNL     1      -7.708   5.584  70.628  1.00  0.00    -0.086 OA 
ENDBRANCH  18  27
ENDBRANCH  15  17
ENDBRANCH  11  13
TORSDOF 4
ENDMDL
MODEL       31
REMARK 921   NORMALIZED FREE ENERGY PREDICTED BY IDOCK:   -6.64 KCAL/MOL
REMARK 922        TOTAL FREE ENERGY PREDICTED BY IDOCK:   -8.74 KCAL/MOL
REMARK 923 INTER-LIGAND FREE ENERGY PREDICTED BY IDOCK:   -8.14 KCAL/MOL
REMARK 924 INTRA-LIGAND FREE ENERGY PREDICTED BY IDOCK:   -0.60 KCAL/MOL
REMARK 927      BINDING AFFINITY PREDICTED BY RF-SCORE:    0.00 PKD
ROOT
HETATM    1  CE  UNL     1     -11.384  14.663  68.323  1.00  0.00    -0.297 C  
HETATM    2  SD  UNL     1      -9.676  15.144  68.681  1.00  0.00    -0.223 SA 
HETATM    3  CG  UNL     1      -9.807  16.750  67.848  1.00  0.00    -0.257 C  
HETATM    4  CB  UNL     1     -10.449  16.650  66.496  1.00  0.00    -0.262 C  
HETATM    5  CA  UNL     1     -11.233  15.649  66.044  1.00  0.00    -0.045 C  
HETATM    6  N   UNL     1     -11.567  14.629  66.880  1.00  0.00    -0.369 N  
HETATM    7  C   UNL     1     -11.634  15.729  64.599  1.00  0.00    -0.218 C  
HETATM    8  C   UNL     1     -12.085  13.390  66.815  1.00  0.00    -0.365 C  
HETATM    9  OXT UNL     1     -11.300  16.656  63.870  1.00  0.00    -1.104 OA 
HETATM   10  O   UNL     1     -12.421  14.741  64.130  1.00  0.00    -0.758 OA 
HETATM   11  CA  UNL     1     -11.730  13.137  68.332  1.00  0.00    -0.351 C  
HETATM   12  O   UNL     1     -12.527  12.790  65.861  1.00  0.00    -0.560 OA 
ENDROOT
BRANCH  11  13
HETATM   13  N   UNL     1     -10.629  12.159  68.546  1.00  0.00    -0.228 N  
HETATM   14  H   UNL     1      -9.804  12.473  69.056  1.00  0.00     0.000 HD 
HETATM   15  C   UNL     1     -10.653  10.860  68.103  1.00  0.00    -0.198 C  
HETATM   16  O   UNL     1     -11.562  10.444  67.384  1.00  0.00    -0.295 OA 
BRANCH  15  17
HETATM   17  C   UNL     1      -9.544   9.948  68.613  1.00  0.00    -0.159 C  
HETATM   18  C   UNL     1      -8.466   9.699  67.829  1.00  0.00    -0.125 C  
BRANCH  17  19
HETATM   19  C   UNL     1      -9.657   9.367  69.936  1.00  0.00    -0.212 A  
HETATM   20  C   UNL     1      -8.603   8.972  70.737  1.00  0.00    -0.217 A  
HETATM   21  H2  UNL     1     -11.697   8.173  73.469  1.00  0.00     0.000 HD 
HETATM   22  S   UNL     1      -9.198   8.405  72.243  1.00  0.00    -0.268 SA 
HETATM   23  H1  UNL     1     -12.803   8.737  72.223  1.00  0.00     0.000 HD 
HETATM   24  N   UNL     1     -10.909   9.214  70.512  1.00  0.00    -0.240 NA 
HETATM   25  N   UNL     1     -11.851   8.537  72.529  1.00  0.00    -0.368 NA 
HETATM   26  C   UNL     1     -10.798   8.741  71.729  1.00  0.00    -0.345 A  
ENDBRANCH  17  19
BRANCH  18  27
HETATM   27  C   UNL     1      -8.038  10.276  66.504  1.00  0.00    -0.121 C  
HETATM   28  O   UNL     1      -7.801   8.768  64.626  1.00  0.00    -0.112 OA 
HETATM   29  C   UNL     1      -8.509   9.535  65.265  1.00  0.00    -0.148 C  
HETATM   30  O   UNL     1      -9.778   9.811  64.901  1.00  0.00    -0.296 OA 
ENDBRANCH  18  27
ENDBRANCH  15  17
ENDBRANCH  11  13
TORSDOF 4
ENDMDL
MODEL       32
REMARK 921   NORMALIZED FREE ENERGY PREDICTED BY IDOCK:   -6.63 KCAL/MOL
REMARK 922        TOTAL FREE ENERGY PREDICTED BY IDOCK:   -8.74 KCAL/MOL
REMARK 923 INTER-LIGAND FREE ENERGY PREDICTED BY IDOCK:   -7.32 KCAL/MOL
REMARK 924 INTRA-LIGAND FREE ENERGY PREDICTED BY IDOCK:   -1.41 KCAL/MOL
REMARK 927      BINDING AFFINITY PREDICTED BY RF-SCORE:    0.00 PKD
ROOT
HETATM    1  CE  UNL     1     -11.466  13.033  66.129  1.00  0.00    -0.340 C  
HETATM    2  SD  UNL     1     -10.336  13.428  64.769  1.00  0.00    -0.347 SA 
HETATM    3  CG  UNL     1     -10.517  11.811  63.966  1.00  0.00    -0.368 C  
HETATM    4  CB  UNL     1     -10.401  10.669  64.932  1.00  0.00    -0.347 C  
HETATM    5  CA  UNL     1     -10.563  10.720  66.270  1.00  0.00    -0.192 C  
HETATM    6  N   UNL     1     -10.941  11.889  66.856  1.00  0.00    -0.273 N  
HETATM    7  C   UNL     1     -10.252   9.456  67.020  1.00  0.00    -0.255 C  
HETATM    8  C   UNL     1     -10.991  12.441  68.081  1.00  0.00    -0.228 C  
HETATM    9  OXT UNL     1      -9.897   8.425  66.459  1.00  0.00    -0.242 OA 
HETATM   10  O   UNL     1     -10.413   9.486  68.356  1.00  0.00    -0.208 OA 
HETATM   11  CA  UNL     1     -11.325  13.852  67.456  1.00  0.00    -0.318 C  
HETATM   12  O   UNL     1     -10.749  11.946  69.159  1.00  0.00    -0.189 OA 
ENDROOT
BRANCH  11  13
HETATM   13  N   UNL     1     -10.223  14.845  67.566  1.00  0.00    -0.233 N  
HETATM   14  H   UNL     1      -9.607  14.966  66.762  1.00  0.00     0.000 HD 
HETATM   15  C   UNL     1      -9.981  15.609  68.680  1.00  0.00    -0.208 C  
HETATM   16  O   UNL     1     -10.608  15.436  69.725  1.00  0.00    -0.258 OA 
BRANCH  15  17
HETATM   17  C   UNL     1      -8.958  16.729  68.526  1.00  0.00    -0.244 C  
HETATM   18  C   UNL     1      -7.679  16.530  68.931  1.00  0.00    -0.236 C  
BRANCH  17  19
HETATM   19  C   UNL     1      -9.370  17.988  67.940  1.00  0.00    -0.264 A  
HETATM   20  C   UNL     1      -8.958  19.242  68.350  1.00  0.00    -0.352 A  
HETATM   21  H2  UNL     1     -11.266  20.472  65.058  1.00  0.00     0.000 HD 
HETATM   22  S   UNL     1      -9.642  20.441  67.331  1.00  0.00    -0.431 SA 
HETATM   23  H1  UNL     1     -11.616  18.768  64.798  1.00  0.00     0.000 HD 
HETATM   24  N   UNL     1     -10.216  17.989  66.841  1.00  0.00    -0.345 NA 
HETATM   25  N   UNL     1     -11.157  19.499  65.341  1.00  0.00    -0.283 NA 
HETATM   26  C   UNL     1     -10.413  19.213  66.418  1.00  0.00    -0.463 A  
ENDBRANCH  17  19
BRANCH  18  27
HETATM   27  C   UNL     1      -6.968  15.297  69.427  1.00  0.00    -0.180 C  
HETATM   28  O   UNL     1      -7.417  13.195  68.314  1.00  0.00    -0.109 OA 
HETATM   29  C   UNL     1      -6.727  14.202  68.403  1.00  0.00    -0.105 C  
HETATM   30  O   UNL     1      -5.662  14.414  67.603  1.00  0.00    -0.306 OA 
ENDBRANCH  18  27
ENDBRANCH  15  17
ENDBRANCH  11  13
TORSDOF 4
ENDMDL
MODEL       33
REMARK 921   NORMALIZED FREE ENERGY PREDICTED BY IDOCK:   -6.58 KCAL/MOL
REMARK 922        TOTAL FREE ENERGY PREDICTED BY IDOCK:   -8.67 KCAL/MOL
REMARK 923 INTER-LIGAND FREE ENERGY PREDICTED BY IDOCK:   -7.84 KCAL/MOL
REMARK 924 INTRA-LIGAND FREE ENERGY PREDICTED BY IDOCK:   -0.83 KCAL/MOL
REMARK 927      BINDING AFFINITY PREDICTED BY RF-SCORE:    0.00 PKD
ROOT
HETATM    1  CE  UNL     1     -10.517   9.160  67.555  1.00  0.00    -0.270 C  
HETATM    2  SD  UNL     1      -8.961   9.170  66.628  1.00  0.00    -0.143 SA 
HETATM    3  CG  UNL     1      -8.351   7.629  67.367  1.00  0.00    -0.116 C  
HETATM    4  CB  UNL     1      -8.512   7.599  68.858  1.00  0.00    -0.129 C  
HETATM    5  CA  UNL     1      -9.350   8.354  69.598  1.00  0.00    -0.161 C  
HETATM    6  N   UNL     1     -10.215   9.201  68.976  1.00  0.00    -0.202 N  
HETATM    7  C   UNL     1      -9.212   8.225  71.088  1.00  0.00    -0.162 C  
HETATM    8  C   UNL     1     -11.009  10.244  69.277  1.00  0.00    -0.241 C  
HETATM    9  OXT UNL     1      -8.408   7.463  71.614  1.00  0.00    -0.103 OA 
HETATM   10  O   UNL     1     -10.044   8.967  71.843  1.00  0.00    -0.339 OA 
HETATM   11  CA  UNL     1     -11.262  10.524  67.745  1.00  0.00    -0.273 C  
HETATM   12  O   UNL     1     -11.261  10.733  70.356  1.00  0.00    -0.292 OA 
ENDROOT
BRANCH  11  13
HETATM   13  N   UNL     1     -10.617  11.764  67.236  1.00  0.00    -0.217 N  
HETATM   14  H   UNL     1      -9.678  11.688  66.844  1.00  0.00     0.000 HD 
HETATM   15  C   UNL     1     -11.204  13.004  67.259  1.00  0.00    -0.289 C  
HETATM   16  O   UNL     1     -12.284  13.193  67.818  1.00  0.00    -0.270 OA 
BRANCH  15  17
HETATM   17  C   UNL     1     -10.488  14.108  66.488  1.00  0.00    -0.280 C  
HETATM   18  C   UNL     1     -10.296  13.978  65.152  1.00  0.00    -0.422 C  
BRANCH  17  19
HETATM   19  C   UNL     1     -10.032  15.286  67.198  1.00  0.00    -0.233 A  
HETATM   20  C   UNL     1      -8.871  15.381  67.942  1.00  0.00    -0.168 A  
HETATM   21  H2  UNL     1     -10.100  19.383  68.331  1.00  0.00     0.000 HD 
HETATM   22  S   UNL     1      -8.697  16.977  68.547  1.00  0.00    -0.255 SA 
HETATM   23  H1  UNL     1     -11.494  18.942  67.353  1.00  0.00     0.000 HD 
HETATM   24  N   UNL     1     -10.766  16.460  67.121  1.00  0.00    -0.279 NA 
HETATM   25  N   UNL     1     -10.626  18.676  67.817  1.00  0.00    -0.406 NA 
HETATM   26  C   UNL     1     -10.156  17.423  67.768  1.00  0.00    -0.323 A  
ENDBRANCH  17  19
BRANCH  18  27
HETATM   27  C   UNL     1     -10.787  12.948  64.167  1.00  0.00    -0.445 C  
HETATM   28  O   UNL     1     -13.059  12.145  64.394  1.00  0.00    -0.740 OA 
HETATM   29  C   UNL     1     -12.279  12.942  63.888  1.00  0.00    -0.449 C  
HETATM   30  O   UNL     1     -12.684  13.880  63.007  1.00  0.00    -0.634 OA 
ENDBRANCH  18  27
ENDBRANCH  15  17
ENDBRANCH  11  13
TORSDOF 4
ENDMDL
MODEL       34
REMARK 921   NORMALIZED FREE ENERGY PREDICTED BY IDOCK:   -6.53 KCAL/MOL
REMARK 922        TOTAL FREE ENERGY PREDICTED BY IDOCK:   -8.61 KCAL/MOL
REMARK 923 INTER-LIGAND FREE ENERGY PREDICTED BY IDOCK:   -7.48 KCAL/MOL
REMARK 924 INTRA-LIGAND FREE ENERGY PREDICTED BY IDOCK:   -1.13 KCAL/MOL
REMARK 927      BINDING AFFINITY PREDICTED BY RF-SCORE:    0.00 PKD
ROOT
HETATM    1  CE  UNL     1     -10.542  14.271  67.943  1.00  0.00    -0.240 C  
HETATM    2  SD  UNL     1      -8.754  14.494  67.761  1.00  0.00    -0.185 SA 
HETATM    3  CG  UNL     1      -8.896  16.148  67.029  1.00  0.00    -0.207 C  
HETATM    4  CB  UNL     1      -9.926  16.213  65.942  1.00  0.00    -0.384 C  
HETATM    5  CA  UNL     1     -10.949  15.356  65.741  1.00  0.00    -0.309 C  
HETATM    6  N   UNL     1     -11.158  14.344  66.628  1.00  0.00    -0.318 N  
HETATM    7  C   UNL     1     -11.754  15.571  64.493  1.00  0.00    -0.253 C  
HETATM    8  C   UNL     1     -11.848  13.193  66.710  1.00  0.00    -0.385 C  
HETATM    9  OXT UNL     1     -11.526  16.484  63.707  1.00  0.00    -1.065 OA 
HETATM   10  O   UNL     1     -12.783  14.728  64.278  1.00  0.00    -0.691 OA 
HETATM   11  CA  UNL     1     -11.089  12.807  68.039  1.00  0.00    -0.250 C  
HETATM   12  O   UNL     1     -12.642  12.714  65.932  1.00  0.00    -0.526 OA 
ENDROOT
BRANCH  11  13
HETATM   13  N   UNL     1     -10.131  11.678  67.891  1.00  0.00    -0.183 N  
HETATM   14  H   UNL     1      -9.146  11.903  67.752  1.00  0.00     0.000 HD 
HETATM   15  C   UNL     1     -10.488  10.353  67.929  1.00  0.00    -0.209 C  
HETATM   16  O   UNL     1     -11.669  10.008  67.977  1.00  0.00    -0.086 OA 
BRANCH  15  17
HETATM   17  C   UNL     1      -9.347   9.344  67.989  1.00  0.00    -0.140 C  
HETATM   18  C   UNL     1      -8.892   8.917  69.193  1.00  0.00    -0.136 C  
BRANCH  17  19
HETATM   19  C   UNL     1      -8.771   8.851  66.754  1.00  0.00    -0.119 A  
HETATM   20  C   UNL     1      -8.032   7.692  66.615  1.00  0.00    -0.107 A  
HETATM   21  H2  UNL     1      -8.115   8.781  62.555  1.00  0.00     0.000 HD 
HETATM   22  S   UNL     1      -7.611   7.465  64.968  1.00  0.00    -0.110 SA 
HETATM   23  H1  UNL     1      -9.050  10.183  63.057  1.00  0.00     0.000 HD 
HETATM   24  N   UNL     1      -8.990   9.542  65.572  1.00  0.00    -0.179 NA 
HETATM   25  N   UNL     1      -8.550   9.328  63.297  1.00  0.00    -0.210 NA 
HETATM   26  C   UNL     1      -8.451   8.903  64.563  1.00  0.00    -0.161 A  
ENDBRANCH  17  19
BRANCH  18  27
HETATM   27  C   UNL     1      -9.396   9.154  70.594  1.00  0.00    -0.312 C  
HETATM   28  O   UNL     1     -11.780   9.015  70.986  1.00  0.00    -0.280 OA 
HETATM   29  C   UNL     1     -10.692   8.456  70.969  1.00  0.00    -0.223 C  
HETATM   30  O   UNL     1     -10.545   7.159  71.311  1.00  0.00    -0.214 OA 
ENDBRANCH  18  27
ENDBRANCH  15  17
ENDBRANCH  11  13
TORSDOF 4
ENDMDL
MODEL       35
REMARK 921   NORMALIZED FREE ENERGY PREDICTED BY IDOCK:   -6.50 KCAL/MOL
REMARK 922        TOTAL FREE ENERGY PREDICTED BY IDOCK:   -8.57 KCAL/MOL
REMARK 923 INTER-LIGAND FREE ENERGY PREDICTED BY IDOCK:   -7.17 KCAL/MOL
REMARK 924 INTRA-LIGAND FREE ENERGY PREDICTED BY IDOCK:   -1.40 KCAL/MOL
REMARK 927      BINDING AFFINITY PREDICTED BY RF-SCORE:    0.00 PKD
ROOT
HETATM    1  CE  UNL     1     -10.704   9.782  69.105  1.00  0.00    -0.221 C  
HETATM    2  SD  UNL     1      -8.910   9.971  69.267  1.00  0.00    -0.188 SA 
HETATM    3  CG  UNL     1      -8.658   8.311  69.955  1.00  0.00    -0.125 C  
HETATM    4  CB  UNL     1      -9.632   7.984  71.048  1.00  0.00    -0.184 C  
HETATM    5  CA  UNL     1     -10.821   8.579  71.279  1.00  0.00    -0.251 C  
HETATM    6  N   UNL     1     -11.269   9.537  70.423  1.00  0.00    -0.257 N  
HETATM    7  C   UNL     1     -11.538   8.153  72.528  1.00  0.00    -0.404 C  
HETATM    8  C   UNL     1     -12.205  10.501  70.377  1.00  0.00    -0.328 C  
HETATM    9  OXT UNL     1     -11.095   7.298  73.286  1.00  0.00    -0.331 OA 
HETATM   10  O   UNL     1     -12.729   8.732  72.773  1.00  0.00    -0.331 OA 
HETATM   11  CA  UNL     1     -11.573  11.083  69.053  1.00  0.00    -0.323 C  
HETATM   12  O   UNL     1     -13.077  10.765  71.173  1.00  0.00    -0.361 OA 
ENDROOT
BRANCH  11  13
HETATM   13  N   UNL     1     -10.898  12.398  69.224  1.00  0.00    -0.444 N  
HETATM   14  H   UNL     1     -10.445  12.589  70.118  1.00  0.00     0.000 HD 
HETATM   15  C   UNL     1     -10.845  13.370  68.257  1.00  0.00    -0.256 C  
HETATM   16  O   UNL     1     -11.464  13.257  67.199  1.00  0.00    -0.308 OA 
BRANCH  15  17
HETATM   17  C   UNL     1      -9.919  14.549  68.530  1.00  0.00    -0.238 C  
HETATM   18  C   UNL     1     -10.419  15.683  69.082  1.00  0.00    -0.236 C  
BRANCH  17  19
HETATM   19  C   UNL     1      -8.512  14.435  68.202  1.00  0.00    -0.160 A  
HETATM   20  C   UNL     1      -7.542  15.383  68.466  1.00  0.00    -0.122 A  
HETATM   21  H2  UNL     1      -5.006  12.438  66.863  1.00  0.00     0.000 HD 
HETATM   22  S   UNL     1      -6.008  14.801  67.967  1.00  0.00    -0.147 SA 
HETATM   23  H1  UNL     1      -6.451  11.459  66.646  1.00  0.00     0.000 HD 
HETATM   24  N   UNL     1      -8.038  13.274  67.610  1.00  0.00    -0.160 NA 
HETATM   25  N   UNL     1      -6.017  12.330  66.949  1.00  0.00    -0.260 NA 
HETATM   26  C   UNL     1      -6.738  13.337  67.458  1.00  0.00    -0.148 A  
ENDBRANCH  17  19
BRANCH  18  27
HETATM   27  C   UNL     1     -11.781  16.005  69.641  1.00  0.00    -0.278 C  
HETATM   28  O   UNL     1     -12.857  14.356  71.048  1.00  0.00    -0.323 OA 
HETATM   29  C   UNL     1     -12.141  15.345  70.960  1.00  0.00    -0.365 C  
HETATM   30  O   UNL     1     -11.624  15.956  72.046  1.00  0.00    -0.423 OA 
ENDBRANCH  18  27
ENDBRANCH  15  17
ENDBRANCH  11  13
TORSDOF 4
ENDMDL
MODEL       36
REMARK 921   NORMALIZED FREE ENERGY PREDICTED BY IDOCK:   -6.48 KCAL/MOL
REMARK 922        TOTAL FREE ENERGY PREDICTED BY IDOCK:   -8.55 KCAL/MOL
REMARK 923 INTER-LIGAND FREE ENERGY PREDICTED BY IDOCK:   -7.53 KCAL/MOL
REMARK 924 INTRA-LIGAND FREE ENERGY PREDICTED BY IDOCK:   -1.02 KCAL/MOL
REMARK 927      BINDING AFFINITY PREDICTED BY RF-SCORE:    0.00 PKD
ROOT
HETATM    1  CE  UNL     1      -9.481  11.567  65.937  1.00  0.00    -0.230 C  
HETATM    2  SD  UNL     1      -9.472  10.046  64.954  1.00  0.00    -0.305 SA 
HETATM    3  CG  UNL     1      -9.604  10.909  63.364  1.00  0.00    -0.332 C  
HETATM    4  CB  UNL     1     -10.662  11.972  63.368  1.00  0.00    -0.475 C  
HETATM    5  CA  UNL     1     -11.201  12.575  64.449  1.00  0.00    -0.339 C  
HETATM    6  N   UNL     1     -10.726  12.277  65.689  1.00  0.00    -0.259 N  
HETATM    7  C   UNL     1     -12.345  13.508  64.180  1.00  0.00    -0.328 C  
HETATM    8  C   UNL     1     -11.080  12.432  66.977  1.00  0.00    -0.278 C  
HETATM    9  OXT UNL     1     -12.759  13.740  63.049  1.00  0.00    -0.671 OA 
HETATM   10  O   UNL     1     -12.893  14.123  65.246  1.00  0.00    -0.670 OA 
HETATM   11  CA  UNL     1      -9.920  11.465  67.436  1.00  0.00    -0.186 C  
HETATM   12  O   UNL     1     -12.019  13.032  67.449  1.00  0.00    -0.364 OA 
ENDROOT
BRANCH  11  13
HETATM   13  N   UNL     1     -10.388  10.151  67.953  1.00  0.00    -0.181 N  
HETATM   14  H   UNL     1     -11.380   9.929  67.864  1.00  0.00     0.000 HD 
HETATM   15  C   UNL     1      -9.572   9.218  68.542  1.00  0.00    -0.147 C  
HETATM   16  O   UNL     1      -8.391   9.462  68.786  1.00  0.00    -0.113 OA 
BRANCH  15  17
HETATM   17  C   UNL     1     -10.184   7.845  68.798  1.00  0.00    -0.218 C  
HETATM   18  C   UNL     1      -9.949   6.832  67.928  1.00  0.00    -0.164 C  
BRANCH  17  19
HETATM   19  C   UNL     1     -11.004   7.644  69.976  1.00  0.00    -0.228 A  
HETATM   20  C   UNL     1     -11.307   6.424  70.550  1.00  0.00    -0.375 A  
HETATM   21  H2  UNL     1     -13.212   8.859  73.400  1.00  0.00     0.000 HD 
HETATM   22  S   UNL     1     -12.246   6.665  71.965  1.00  0.00    -0.243 SA 
HETATM   23  H1  UNL     1     -12.677  10.229  72.435  1.00  0.00     0.000 HD 
HETATM   24  N   UNL     1     -11.516   8.743  70.650  1.00  0.00    -0.257 NA 
HETATM   25  N   UNL     1     -12.725   9.221  72.580  1.00  0.00    -0.302 NA 
HETATM   26  C   UNL     1     -12.166   8.359  71.721  1.00  0.00    -0.330 A  
ENDBRANCH  17  19
BRANCH  18  27
HETATM   27  C   UNL     1      -9.038   6.733  66.731  1.00  0.00    -0.155 C  
HETATM   28  O   UNL     1      -7.790   4.685  66.413  1.00  0.00    -0.097 OA 
HETATM   29  C   UNL     1      -8.799   5.339  66.182  1.00  0.00    -0.135 C  
HETATM   30  O   UNL     1      -9.785   4.878  65.385  1.00  0.00    -0.149 OA 
ENDBRANCH  18  27
ENDBRANCH  15  17
ENDBRANCH  11  13
TORSDOF 4
ENDMDL
MODEL       37
REMARK 921   NORMALIZED FREE ENERGY PREDICTED BY IDOCK:   -6.48 KCAL/MOL
REMARK 922        TOTAL FREE ENERGY PREDICTED BY IDOCK:   -8.55 KCAL/MOL
REMARK 923 INTER-LIGAND FREE ENERGY PREDICTED BY IDOCK:   -7.67 KCAL/MOL
REMARK 924 INTRA-LIGAND FREE ENERGY PREDICTED BY IDOCK:   -0.88 KCAL/MOL
REMARK 927      BINDING AFFINITY PREDICTED BY RF-SCORE:    0.00 PKD
ROOT
HETATM    1  CE  UNL     1      -9.327  10.836  65.721  1.00  0.00    -0.203 C  
HETATM    2  SD  UNL     1      -9.054   9.651  64.379  1.00  0.00    -0.188 SA 
HETATM    3  CG  UNL     1      -9.103  10.910  63.072  1.00  0.00    -0.299 C  
HETATM    4  CB  UNL     1     -10.260  11.853  63.220  1.00  0.00    -0.428 C  
HETATM    5  CA  UNL     1     -10.972  12.093  64.341  1.00  0.00    -0.326 C  
HETATM    6  N   UNL     1     -10.605  11.497  65.509  1.00  0.00    -0.274 N  
HETATM    7  C   UNL     1     -12.172  12.981  64.182  1.00  0.00    -0.401 C  
HETATM    8  C   UNL     1     -11.110  11.264  66.732  1.00  0.00    -0.250 C  
HETATM    9  OXT UNL     1     -12.482  13.487  63.109  1.00  0.00    -0.759 OA 
HETATM   10  O   UNL     1     -12.892  13.236  65.291  1.00  0.00    -0.629 OA 
HETATM   11  CA  UNL     1      -9.913  10.292  67.067  1.00  0.00    -0.201 C  
HETATM   12  O   UNL     1     -12.152  11.642  67.220  1.00  0.00    -0.595 OA 
ENDROOT
BRANCH  11  13
HETATM   13  N   UNL     1     -10.294   8.856  67.148  1.00  0.00    -0.271 N  
HETATM   14  H   UNL     1     -11.253   8.603  66.911  1.00  0.00     0.000 HD 
HETATM   15  C   UNL     1      -9.439   7.850  67.523  1.00  0.00    -0.145 C  
HETATM   16  O   UNL     1      -8.304   8.092  67.933  1.00  0.00    -0.127 OA 
BRANCH  15  17
HETATM   17  C   UNL     1      -9.941   6.424  67.326  1.00  0.00    -0.184 C  
HETATM   18  C   UNL     1     -10.769   5.871  68.247  1.00  0.00    -0.319 C  
BRANCH  17  19
HETATM   19  C   UNL     1      -9.530   5.685  66.150  1.00  0.00    -0.139 A  
HETATM   20  C   UNL     1      -8.299   5.777  65.528  1.00  0.00    -0.140 A  
HETATM   21  H2  UNL     1      -9.906   2.731  63.116  1.00  0.00     0.000 HD 
HETATM   22  S   UNL     1      -8.227   4.673  64.217  1.00  0.00    -0.119 SA 
HETATM   23  H1  UNL     1     -11.358   2.859  64.100  1.00  0.00     0.000 HD 
HETATM   24  N   UNL     1     -10.394   4.758  65.586  1.00  0.00    -0.217 NA 
HETATM   25  N   UNL     1     -10.412   3.172  63.884  1.00  0.00    -0.202 NA 
HETATM   26  C   UNL     1      -9.816   4.147  64.581  1.00  0.00    -0.178 A  
ENDBRANCH  17  19
BRANCH  18  27
HETATM   27  C   UNL     1     -11.451   6.456  69.457  1.00  0.00    -0.412 C  
HETATM   28  O   UNL     1     -10.903   5.540  71.629  1.00  0.00    -0.245 OA 
HETATM   29  C   UNL     1     -10.683   6.379  70.765  1.00  0.00    -0.250 C  
HETATM   30  O   UNL     1      -9.744   7.335  70.915  1.00  0.00    -0.171 OA 
ENDBRANCH  18  27
ENDBRANCH  15  17
ENDBRANCH  11  13
TORSDOF 4
ENDMDL
MODEL       38
REMARK 921   NORMALIZED FREE ENERGY PREDICTED BY IDOCK:   -6.44 KCAL/MOL
REMARK 922        TOTAL FREE ENERGY PREDICTED BY IDOCK:   -8.50 KCAL/MOL
REMARK 923 INTER-LIGAND FREE ENERGY PREDICTED BY IDOCK:   -7.27 KCAL/MOL
REMARK 924 INTRA-LIGAND FREE ENERGY PREDICTED BY IDOCK:   -1.23 KCAL/MOL
REMARK 927      BINDING AFFINITY PREDICTED BY RF-SCORE:    0.00 PKD
ROOT
HETATM    1  CE  UNL     1     -11.164  14.828  67.825  1.00  0.00    -0.313 C  
HETATM    2  SD  UNL     1      -9.578  14.613  68.674  1.00  0.00    -0.215 SA 
HETATM    3  CG  UNL     1      -9.403  16.372  69.085  1.00  0.00    -0.224 C  
HETATM    4  CB  UNL     1      -9.685  17.270  67.917  1.00  0.00    -0.273 C  
HETATM    5  CA  UNL     1     -10.382  16.958  66.805  1.00  0.00    -0.298 C  
HETATM    6  N   UNL     1     -10.975  15.737  66.706  1.00  0.00    -0.251 N  
HETATM    7  C   UNL     1     -10.397  17.999  65.723  1.00  0.00    -0.175 C  
HETATM    8  C   UNL     1     -11.528  14.949  65.767  1.00  0.00    -0.281 C  
HETATM    9  OXT UNL     1      -9.837  19.084  65.841  1.00  0.00    -0.472 OA 
HETATM   10  O   UNL     1     -11.093  17.709  64.607  1.00  0.00    -0.906 OA 
HETATM   11  CA  UNL     1     -11.585  13.741  66.780  1.00  0.00    -0.370 C  
HETATM   12  O   UNL     1     -11.745  15.182  64.599  1.00  0.00    -0.408 OA 
ENDROOT
BRANCH  11  13
HETATM   13  N   UNL     1     -10.632  12.641  66.474  1.00  0.00    -0.251 N  
HETATM   14  H   UNL     1      -9.834  12.853  65.876  1.00  0.00     0.000 HD 
HETATM   15  C   UNL     1     -10.758  11.358  66.945  1.00  0.00    -0.265 C  
HETATM   16  O   UNL     1     -11.753  11.000  67.575  1.00  0.00    -0.565 OA 
BRANCH  15  17
HETATM   17  C   UNL     1      -9.569  10.431  66.717  1.00  0.00    -0.209 C  
HETATM   18  C   UNL     1      -9.375   9.877  65.494  1.00  0.00    -0.280 C  
BRANCH  17  19
HETATM   19  C   UNL     1      -8.659  10.164  67.812  1.00  0.00    -0.118 A  
HETATM   20  C   UNL     1      -8.307  11.058  68.805  1.00  0.00    -0.144 A  
HETATM   21  H2  UNL     1      -6.194   7.736  70.282  1.00  0.00     0.000 HD 
HETATM   22  S   UNL     1      -7.260  10.295  69.929  1.00  0.00    -0.152 SA 
HETATM   23  H1  UNL     1      -6.808   6.856  68.889  1.00  0.00     0.000 HD 
HETATM   24  N   UNL     1      -8.100   8.902  67.946  1.00  0.00    -0.106 NA 
HETATM   25  N   UNL     1      -6.745   7.721  69.424  1.00  0.00    -0.039 NA 
HETATM   26  C   UNL     1      -7.366   8.840  69.030  1.00  0.00    -0.073 A  
ENDBRANCH  17  19
BRANCH  18  27
HETATM   27  C   UNL     1     -10.071  10.097  64.175  1.00  0.00     0.044 C  
HETATM   28  O   UNL     1     -10.257  12.364  63.349  1.00  0.00    -0.393 OA 
HETATM   29  C   UNL     1      -9.631  11.313  63.378  1.00  0.00    -0.333 C  
HETATM   30  O   UNL     1      -8.495  11.135  62.674  1.00  0.00    -0.203 OA 
ENDBRANCH  18  27
ENDBRANCH  15  17
ENDBRANCH  11  13
TORSDOF 4
ENDMDL
MODEL       39
REMARK 921   NORMALIZED FREE ENERGY PREDICTED BY IDOCK:   -6.43 KCAL/MOL
REMARK 922        TOTAL FREE ENERGY PREDICTED BY IDOCK:   -8.48 KCAL/MOL
REMARK 923 INTER-LIGAND FREE ENERGY PREDICTED BY IDOCK:   -7.76 KCAL/MOL
REMARK 924 INTRA-LIGAND FREE ENERGY PREDICTED BY IDOCK:   -0.73 KCAL/MOL
REMARK 927      BINDING AFFINITY PREDICTED BY RF-SCORE:    0.00 PKD
ROOT
HETATM    1  CE  UNL     1     -11.686  13.981  67.502  1.00  0.00    -0.387 C  
HETATM    2  SD  UNL     1     -10.241  13.918  68.591  1.00  0.00    -0.185 SA 
HETATM    3  CG  UNL     1     -10.228  15.704  68.907  1.00  0.00    -0.214 C  
HETATM    4  CB  UNL     1     -10.377  16.515  67.654  1.00  0.00    -0.291 C  
HETATM    5  CA  UNL     1     -10.877  16.096  66.473  1.00  0.00    -0.139 C  
HETATM    6  N   UNL     1     -11.379  14.835  66.366  1.00  0.00    -0.348 N  
HETATM    7  C   UNL     1     -10.783  17.072  65.335  1.00  0.00    -0.116 C  
HETATM    8  C   UNL     1     -11.736  13.962  65.409  1.00  0.00    -0.340 C  
HETATM    9  OXT UNL     1     -10.309  18.195  65.465  1.00  0.00    -0.589 OA 
HETATM   10  O   UNL     1     -11.282  16.674  64.149  1.00  0.00    -1.103 OA 
HETATM   11  CA  UNL     1     -11.881  12.812  66.479  1.00  0.00    -0.405 C  
HETATM   12  O   UNL     1     -11.784  14.113  64.208  1.00  0.00    -0.389 OA 
ENDROOT
BRANCH  11  13
HETATM   13  N   UNL     1     -10.833  11.760  66.393  1.00  0.00    -0.271 N  
HETATM   14  H   UNL     1     -10.121  11.854  65.669  1.00  0.00     0.000 HD 
HETATM   15  C   UNL     1     -10.762  10.671  67.225  1.00  0.00    -0.285 C  
HETATM   16  O   UNL     1     -11.648  10.430  68.045  1.00  0.00    -0.392 OA 
BRANCH  15  17
HETATM   17  C   UNL     1      -9.495   9.828  67.134  1.00  0.00    -0.189 C  
HETATM   18  C   UNL     1      -9.589   8.476  67.084  1.00  0.00    -0.232 C  
BRANCH  17  19
HETATM   19  C   UNL     1      -8.206  10.489  67.093  1.00  0.00    -0.123 A  
HETATM   20  C   UNL     1      -7.589  11.120  68.157  1.00  0.00    -0.103 A  
HETATM   21  H2  UNL     1      -4.493  11.615  65.355  1.00  0.00     0.000 HD 
HETATM   22  S   UNL     1      -6.050  11.703  67.673  1.00  0.00    -0.079 SA 
HETATM   23  H1  UNL     1      -5.532  10.772  64.213  1.00  0.00     0.000 HD 
HETATM   24  N   UNL     1      -7.466  10.478  65.920  1.00  0.00    -0.145 NA 
HETATM   25  N   UNL     1      -5.378  11.153  65.146  1.00  0.00    -0.191 NA 
HETATM   26  C   UNL     1      -6.308  11.063  66.105  1.00  0.00    -0.096 A  
ENDBRANCH  17  19
BRANCH  18  27
HETATM   27  C   UNL     1     -10.782   7.561  66.966  1.00  0.00    -0.367 C  
HETATM   28  O   UNL     1     -10.503   5.239  67.588  1.00  0.00    -0.176 OA 
HETATM   29  C   UNL     1     -10.816   6.376  67.915  1.00  0.00    -0.322 C  
HETATM   30  O   UNL     1     -11.250   6.672  69.157  1.00  0.00    -0.278 OA 
ENDBRANCH  18  27
ENDBRANCH  15  17
ENDBRANCH  11  13
TORSDOF 4
ENDMDL
MODEL       40
REMARK 921   NORMALIZED FREE ENERGY PREDICTED BY IDOCK:   -6.42 KCAL/MOL
REMARK 922        TOTAL FREE ENERGY PREDICTED BY IDOCK:   -8.48 KCAL/MOL
REMARK 923 INTER-LIGAND FREE ENERGY PREDICTED BY IDOCK:   -7.63 KCAL/MOL
REMARK 924 INTRA-LIGAND FREE ENERGY PREDICTED BY IDOCK:   -0.85 KCAL/MOL
REMARK 927      BINDING AFFINITY PREDICTED BY RF-SCORE:    0.00 PKD
ROOT
HETATM    1  CE  UNL     1     -10.270   8.288  69.402  1.00  0.00    -0.204 C  
HETATM    2  SD  UNL     1      -9.996   8.964  67.745  1.00  0.00    -0.205 SA 
HETATM    3  CG  UNL     1      -8.896   7.618  67.227  1.00  0.00    -0.120 C  
HETATM    4  CB  UNL     1      -7.851   7.297  68.253  1.00  0.00    -0.122 C  
HETATM    5  CA  UNL     1      -7.885   7.600  69.567  1.00  0.00    -0.115 C  
HETATM    6  N   UNL     1      -8.991   8.199  70.088  1.00  0.00    -0.145 N  
HETATM    7  C   UNL     1      -6.642   7.288  70.348  1.00  0.00    -0.047 C  
HETATM    8  C   UNL     1      -9.361   8.855  71.202  1.00  0.00    -0.257 C  
HETATM    9  OXT UNL     1      -5.656   6.762  69.840  1.00  0.00    -0.018 OA 
HETATM   10  O   UNL     1      -6.659   7.578  71.663  1.00  0.00    -0.042 OA 
HETATM   11  CA  UNL     1     -10.724   9.277  70.528  1.00  0.00    -0.257 C  
HETATM   12  O   UNL     1      -8.739   9.052  72.221  1.00  0.00    -0.367 OA 
ENDROOT
BRANCH  11  13
HETATM   13  N   UNL     1     -10.824  10.726  70.205  1.00  0.00    -0.454 N  
HETATM   14  H   UNL     1      -9.988  11.299  70.318  1.00  0.00     0.000 HD 
HETATM   15  C   UNL     1     -11.969  11.341  69.765  1.00  0.00    -0.360 C  
HETATM   16  O   UNL     1     -13.043  10.740  69.716  1.00  0.00    -0.085 OA 
BRANCH  15  17
HETATM   17  C   UNL     1     -11.821  12.775  69.269  1.00  0.00    -0.358 C  
HETATM   18  C   UNL     1     -11.629  13.011  67.947  1.00  0.00    -0.385 C  
BRANCH  17  19
HETATM   19  C   UNL     1     -11.898  13.865  70.220  1.00  0.00    -0.290 A  
HETATM   20  C   UNL     1     -11.534  15.176  69.976  1.00  0.00    -0.286 A  
HETATM   21  H2  UNL     1     -12.983  15.727  73.885  1.00  0.00     0.000 HD 
HETATM   22  S   UNL     1     -11.856  16.136  71.361  1.00  0.00    -0.348 SA 
HETATM   23  H1  UNL     1     -13.328  14.002  73.889  1.00  0.00     0.000 HD 
HETATM   24  N   UNL     1     -12.416  13.636  71.486  1.00  0.00    -0.290 NA 
HETATM   25  N   UNL     1     -12.965  14.825  73.409  1.00  0.00    -0.542 NA 
HETATM   26  C   UNL     1     -12.466  14.753  72.169  1.00  0.00    -0.331 A  
ENDBRANCH  17  19
BRANCH  18  27
HETATM   27  C   UNL     1     -11.655  12.092  66.753  1.00  0.00    -0.391 C  
HETATM   28  O   UNL     1     -13.108  12.663  64.904  1.00  0.00    -0.850 OA 
HETATM   29  C   UNL     1     -12.000  12.731  65.420  1.00  0.00    -0.436 C  
HETATM   30  O   UNL     1     -10.969  13.366  64.824  1.00  0.00    -0.323 OA 
ENDBRANCH  18  27
ENDBRANCH  15  17
ENDBRANCH  11  13
TORSDOF 4
ENDMDL
MODEL       41
REMARK 921   NORMALIZED FREE ENERGY PREDICTED BY IDOCK:   -6.42 KCAL/MOL
REMARK 922        TOTAL FREE ENERGY PREDICTED BY IDOCK:   -8.47 KCAL/MOL
REMARK 923 INTER-LIGAND FREE ENERGY PREDICTED BY IDOCK:   -7.74 KCAL/MOL
REMARK 924 INTRA-LIGAND FREE ENERGY PREDICTED BY IDOCK:   -0.73 KCAL/MOL
REMARK 927      BINDING AFFINITY PREDICTED BY RF-SCORE:    0.00 PKD
ROOT
HETATM    1  CE  UNL     1     -11.798  14.536  68.002  1.00  0.00    -0.315 C  
HETATM    2  SD  UNL     1     -10.625  14.152  69.327  1.00  0.00    -0.031 SA 
HETATM    3  CG  UNL     1     -10.547  15.858  69.940  1.00  0.00    -0.326 C  
HETATM    4  CB  UNL     1     -10.365  16.860  68.839  1.00  0.00    -0.333 C  
HETATM    5  CA  UNL     1     -10.633  16.683  67.529  1.00  0.00    -0.311 C  
HETATM    6  N   UNL     1     -11.193  15.514  67.112  1.00  0.00    -0.260 N  
HETATM    7  C   UNL     1     -10.227  17.803  66.616  1.00  0.00    -0.361 C  
HETATM    8  C   UNL     1     -11.403  14.840  65.968  1.00  0.00    -0.332 C  
HETATM    9  OXT UNL     1      -9.708  18.836  67.026  1.00  0.00    -0.293 OA 
HETATM   10  O   UNL     1     -10.491  17.646  65.304  1.00  0.00    -0.630 OA 
HETATM   11  CA  UNL     1     -11.858  13.564  66.776  1.00  0.00    -0.406 C  
HETATM   12  O   UNL     1     -11.184  15.176  64.825  1.00  0.00    -0.394 OA 
ENDROOT
BRANCH  11  13
HETATM   13  N   UNL     1     -10.897  12.430  66.720  1.00  0.00    -0.241 N  
HETATM   14  H   UNL     1     -10.047  12.551  66.169  1.00  0.00     0.000 HD 
HETATM   15  C   UNL     1     -11.080  11.230  67.361  1.00  0.00    -0.297 C  
HETATM   16  O   UNL     1     -12.130  10.969  67.948  1.00  0.00    -0.600 OA 
BRANCH  15  17
HETATM   17  C   UNL     1      -9.888  10.279  67.376  1.00  0.00    -0.214 C  
HETATM   18  C   UNL     1      -9.449   9.772  68.554  1.00  0.00    -0.148 C  
BRANCH  17  19
HETATM   19  C   UNL     1      -9.249   9.927  66.124  1.00  0.00    -0.168 A  
HETATM   20  C   UNL     1      -8.155   9.094  65.984  1.00  0.00    -0.110 A  
HETATM   21  H2  UNL     1      -8.857   9.772  61.894  1.00  0.00     0.000 HD 
HETATM   22  S   UNL     1      -7.778   8.905  64.321  1.00  0.00    -0.129 SA 
HETATM   23  H1  UNL     1     -10.199  10.790  62.399  1.00  0.00     0.000 HD 
HETATM   24  N   UNL     1      -9.768  10.404  64.930  1.00  0.00    -0.284 NA 
HETATM   25  N   UNL     1      -9.415  10.185  62.641  1.00  0.00    -0.285 NA 
HETATM   26  C   UNL     1      -9.097   9.920  63.914  1.00  0.00    -0.259 A  
ENDBRANCH  17  19
BRANCH  18  27
HETATM   27  C   UNL     1     -10.010   9.858  69.951  1.00  0.00    -0.292 C  
HETATM   28  O   UNL     1     -10.243   7.807  71.214  1.00  0.00    -0.193 OA 
HETATM   29  C   UNL     1      -9.562   8.781  70.922  1.00  0.00    -0.221 C  
HETATM   30  O   UNL     1      -8.347   8.995  71.469  1.00  0.00    -0.304 OA 
ENDBRANCH  18  27
ENDBRANCH  15  17
ENDBRANCH  11  13
TORSDOF 4
ENDMDL
MODEL       42
REMARK 921   NORMALIZED FREE ENERGY PREDICTED BY IDOCK:   -6.41 KCAL/MOL
REMARK 922        TOTAL FREE ENERGY PREDICTED BY IDOCK:   -8.46 KCAL/MOL
REMARK 923 INTER-LIGAND FREE ENERGY PREDICTED BY IDOCK:   -7.52 KCAL/MOL
REMARK 924 INTRA-LIGAND FREE ENERGY PREDICTED BY IDOCK:   -0.94 KCAL/MOL
REMARK 927      BINDING AFFINITY PREDICTED BY RF-SCORE:    0.00 PKD
ROOT
HETATM    1  CE  UNL     1      -9.080  12.222  66.975  1.00  0.00    -0.201 C  
HETATM    2  SD  UNL     1      -7.693  12.817  67.977  1.00  0.00    -0.151 SA 
HETATM    3  CG  UNL     1      -6.646  11.376  67.633  1.00  0.00    -0.074 C  
HETATM    4  CB  UNL     1      -7.379  10.077  67.791  1.00  0.00    -0.089 C  
HETATM    5  CA  UNL     1      -8.715   9.893  67.771  1.00  0.00    -0.129 C  
HETATM    6  N   UNL     1      -9.534  10.950  67.515  1.00  0.00    -0.155 N  
HETATM    7  C   UNL     1      -9.194   8.507  68.094  1.00  0.00    -0.137 C  
HETATM    8  C   UNL     1     -10.834  11.276  67.619  1.00  0.00    -0.238 C  
HETATM    9  OXT UNL     1      -8.427   7.582  68.336  1.00  0.00    -0.124 OA 
HETATM   10  O   UNL     1     -10.525   8.302  68.074  1.00  0.00    -0.215 OA 
HETATM   11  CA  UNL     1     -10.505  12.785  67.294  1.00  0.00    -0.232 C  
HETATM   12  O   UNL     1     -11.776  10.590  67.947  1.00  0.00    -0.453 OA 
ENDROOT
BRANCH  11  13
HETATM   13  N   UNL     1     -10.664  13.708  68.450  1.00  0.00    -0.251 N  
HETATM   14  H   UNL     1     -10.121  13.516  69.292  1.00  0.00     0.000 HD 
HETATM   15  C   UNL     1     -11.493  14.802  68.457  1.00  0.00    -0.308 C  
HETATM   16  O   UNL     1     -12.262  15.030  67.522  1.00  0.00    -0.071 OA 
BRANCH  15  17
HETATM   17  C   UNL     1     -11.351  15.754  69.638  1.00  0.00    -0.334 C  
HETATM   18  C   UNL     1     -10.622  16.889  69.502  1.00  0.00    -0.239 C  
BRANCH  17  19
HETATM   19  C   UNL     1     -12.008  15.433  70.889  1.00  0.00    -0.359 A  
HETATM   20  C   UNL     1     -11.882  16.138  72.071  1.00  0.00    -0.530 A  
HETATM   21  H2  UNL     1     -14.734  13.349  73.398  1.00  0.00     0.000 HD 
HETATM   22  S   UNL     1     -12.889  15.443  73.273  1.00  0.00    -0.571 SA 
HETATM   23  H1  UNL     1     -14.665  12.664  71.780  1.00  0.00     0.000 HD 
HETATM   24  N   UNL     1     -12.885  14.361  70.947  1.00  0.00    -0.340 NA 
HETATM   25  N   UNL     1     -14.345  13.357  72.456  1.00  0.00    -0.631 NA 
HETATM   26  C   UNL     1     -13.427  14.277  72.138  1.00  0.00    -0.433 A  
ENDBRANCH  17  19
BRANCH  18  27
HETATM   27  C   UNL     1      -9.971  17.520  68.297  1.00  0.00    -0.330 C  
HETATM   28  O   UNL     1      -9.006  19.725  68.547  1.00  0.00    -0.320 OA 
HETATM   29  C   UNL     1      -8.855  18.511  68.578  1.00  0.00    -0.326 C  
HETATM   30  O   UNL     1      -7.661  17.943  68.842  1.00  0.00    -0.276 OA 
ENDBRANCH  18  27
ENDBRANCH  15  17
ENDBRANCH  11  13
TORSDOF 4
ENDMDL
MODEL       43
REMARK 921   NORMALIZED FREE ENERGY PREDICTED BY IDOCK:   -6.41 KCAL/MOL
REMARK 922        TOTAL FREE ENERGY PREDICTED BY IDOCK:   -8.46 KCAL/MOL
REMARK 923 INTER-LIGAND FREE ENERGY PREDICTED BY IDOCK:   -7.59 KCAL/MOL
REMARK 924 INTRA-LIGAND FREE ENERGY PREDICTED BY IDOCK:   -0.86 KCAL/MOL
REMARK 927      BINDING AFFINITY PREDICTED BY RF-SCORE:    0.00 PKD
ROOT
HETATM    1  CE  UNL     1     -11.779  13.016  67.351  1.00  0.00    -0.374 C  
HETATM    2  SD  UNL     1     -10.349  12.513  66.359  1.00  0.00    -0.247 SA 
HETATM    3  CG  UNL     1     -10.780  10.751  66.379  1.00  0.00    -0.163 C  
HETATM    4  CB  UNL     1     -11.145  10.260  67.748  1.00  0.00    -0.335 C  
HETATM    5  CA  UNL     1     -11.540  11.008  68.800  1.00  0.00    -0.318 C  
HETATM    6  N   UNL     1     -11.711  12.349  68.641  1.00  0.00    -0.312 N  
HETATM    7  C   UNL     1     -11.709  10.278  70.101  1.00  0.00    -0.284 C  
HETATM    8  C   UNL     1     -11.851  13.451  69.398  1.00  0.00    -0.335 C  
HETATM    9  OXT UNL     1     -11.530   9.070  70.210  1.00  0.00    -0.230 OA 
HETATM   10  O   UNL     1     -12.109  11.008  71.160  1.00  0.00    -0.321 OA 
HETATM   11  CA  UNL     1     -11.688  14.372  68.126  1.00  0.00    -0.342 C  
HETATM   12  O   UNL     1     -11.952  13.552  70.600  1.00  0.00    -0.316 OA 
ENDROOT
BRANCH  11  13
HETATM   13  N   UNL     1     -10.411  15.134  68.082  1.00  0.00    -0.242 N  
HETATM   14  H   UNL     1      -9.726  14.876  67.373  1.00  0.00     0.000 HD 
HETATM   15  C   UNL     1     -10.096  16.162  68.935  1.00  0.00    -0.238 C  
HETATM   16  O   UNL     1     -10.822  16.453  69.886  1.00  0.00    -0.344 OA 
BRANCH  15  17
HETATM   17  C   UNL     1      -8.849  16.969  68.593  1.00  0.00    -0.267 C  
HETATM   18  C   UNL     1      -7.625  16.483  68.916  1.00  0.00    -0.238 C  
BRANCH  17  19
HETATM   19  C   UNL     1      -8.993  18.244  67.919  1.00  0.00    -0.276 A  
HETATM   20  C   UNL     1     -10.161  18.739  67.370  1.00  0.00    -0.395 A  
HETATM   21  H2  UNL     1      -7.739  22.094  66.624  1.00  0.00     0.000 HD 
HETATM   22  S   UNL     1      -9.886  20.309  66.737  1.00  0.00    -0.410 SA 
HETATM   23  H1  UNL     1      -6.434  21.191  67.382  1.00  0.00     0.000 HD 
HETATM   24  N   UNL     1      -7.905  19.099  67.830  1.00  0.00    -0.259 NA 
HETATM   25  N   UNL     1      -7.405  21.243  67.076  1.00  0.00    -0.371 NA 
HETATM   26  C   UNL     1      -8.253  20.222  67.251  1.00  0.00    -0.343 A  
ENDBRANCH  17  19
BRANCH  18  27
HETATM   27  C   UNL     1      -7.194  15.151  69.475  1.00  0.00    -0.204 C  
HETATM   28  O   UNL     1      -7.938  13.145  68.345  1.00  0.00    -0.136 OA 
HETATM   29  C   UNL     1      -7.082  14.009  68.481  1.00  0.00    -0.102 C  
HETATM   30  O   UNL     1      -5.938  14.004  67.766  1.00  0.00    -0.192 OA 
ENDBRANCH  18  27
ENDBRANCH  15  17
ENDBRANCH  11  13
TORSDOF 4
ENDMDL
MODEL       44
REMARK 921   NORMALIZED FREE ENERGY PREDICTED BY IDOCK:   -6.38 KCAL/MOL
REMARK 922        TOTAL FREE ENERGY PREDICTED BY IDOCK:   -8.43 KCAL/MOL
REMARK 923 INTER-LIGAND FREE ENERGY PREDICTED BY IDOCK:   -7.41 KCAL/MOL
REMARK 924 INTRA-LIGAND FREE ENERGY PREDICTED BY IDOCK:   -1.02 KCAL/MOL
REMARK 927      BINDING AFFINITY PREDICTED BY RF-SCORE:    0.00 PKD
ROOT
HETATM    1  CE  UNL     1     -10.540   9.950  70.488  1.00  0.00    -0.293 C  
HETATM    2  SD  UNL     1     -12.072  10.764  69.968  1.00  0.00    -0.347 SA 
HETATM    3  CG  UNL     1     -12.989  10.300  71.463  1.00  0.00    -0.453 C  
HETATM    4  CB  UNL     1     -12.815   8.855  71.824  1.00  0.00    -0.419 C  
HETATM    5  CA  UNL     1     -11.821   8.034  71.425  1.00  0.00    -0.295 C  
HETATM    6  N   UNL     1     -10.803   8.531  70.670  1.00  0.00    -0.220 N  
HETATM    7  C   UNL     1     -11.960   6.592  71.818  1.00  0.00    -0.344 C  
HETATM    8  C   UNL     1      -9.798   8.083  69.899  1.00  0.00    -0.186 C  
HETATM    9  OXT UNL     1     -12.901   6.176  72.485  1.00  0.00     0.042 OA 
HETATM   10  O   UNL     1     -10.975   5.758  71.433  1.00  0.00    -0.267 OA 
HETATM   11  CA  UNL     1      -9.515   9.545  69.377  1.00  0.00    -0.176 C  
HETATM   12  O   UNL     1      -9.428   6.947  69.700  1.00  0.00    -0.148 OA 
ENDROOT
BRANCH  11  13
HETATM   13  N   UNL     1      -9.884   9.767  67.953  1.00  0.00    -0.145 N  
HETATM   14  H   UNL     1     -10.538   9.115  67.521  1.00  0.00     0.000 HD 
HETATM   15  C   UNL     1      -9.400  10.795  67.181  1.00  0.00    -0.155 C  
HETATM   16  O   UNL     1      -8.522  11.551  67.597  1.00  0.00    -0.128 OA 
BRANCH  15  17
HETATM   17  C   UNL     1     -10.064  10.995  65.824  1.00  0.00    -0.305 C  
HETATM   18  C   UNL     1     -11.108  11.853  65.707  1.00  0.00    -0.367 C  
BRANCH  17  19
HETATM   19  C   UNL     1      -9.561  10.269  64.676  1.00  0.00    -0.312 A  
HETATM   20  C   UNL     1      -9.702  10.649  63.354  1.00  0.00    -0.339 A  
HETATM   21  H2  UNL     1      -7.332   7.240  62.693  1.00  0.00     0.000 HD 
HETATM   22  S   UNL     1      -8.893   9.529  62.337  1.00  0.00    -0.250 SA 
HETATM   23  H1  UNL     1      -7.344   7.019  64.438  1.00  0.00     0.000 HD 
HETATM   24  N   UNL     1      -8.828   9.107  64.867  1.00  0.00    -0.191 NA 
HETATM   25  N   UNL     1      -7.635   7.549  63.616  1.00  0.00    -0.112 NA 
HETATM   26  C   UNL     1      -8.404   8.639  63.718  1.00  0.00    -0.112 A  
ENDBRANCH  17  19
BRANCH  18  27
HETATM   27  C   UNL     1     -11.721  12.820  66.687  1.00  0.00    -0.459 C  
HETATM   28  O   UNL     1     -11.293  15.182  66.378  1.00  0.00    -0.320 OA 
HETATM   29  C   UNL     1     -12.012  14.215  66.162  1.00  0.00    -0.422 C  
HETATM   30  O   UNL     1     -13.154  14.315  65.451  1.00  0.00    -0.685 OA 
ENDBRANCH  18  27
ENDBRANCH  15  17
ENDBRANCH  11  13
TORSDOF 4
ENDMDL
MODEL       45
REMARK 921   NORMALIZED FREE ENERGY PREDICTED BY IDOCK:   -6.37 KCAL/MOL
REMARK 922        TOTAL FREE ENERGY PREDICTED BY IDOCK:   -8.41 KCAL/MOL
REMARK 923 INTER-LIGAND FREE ENERGY PREDICTED BY IDOCK:   -7.45 KCAL/MOL
REMARK 924 INTRA-LIGAND FREE ENERGY PREDICTED BY IDOCK:   -0.96 KCAL/MOL
REMARK 927      BINDING AFFINITY PREDICTED BY RF-SCORE:    0.00 PKD
ROOT
HETATM    1  CE  UNL     1     -10.350  10.257  70.023  1.00  0.00    -0.202 C  
HETATM    2  SD  UNL     1     -11.756  11.315  69.595  1.00  0.00    -0.382 SA 
HETATM    3  CG  UNL     1     -12.702  10.896  71.085  1.00  0.00    -0.429 C  
HETATM    4  CB  UNL     1     -12.734   9.421  71.355  1.00  0.00    -0.425 C  
HETATM    5  CA  UNL     1     -11.878   8.492  70.881  1.00  0.00    -0.217 C  
HETATM    6  N   UNL     1     -10.814   8.883  70.128  1.00  0.00    -0.230 N  
HETATM    7  C   UNL     1     -12.219   7.063  71.192  1.00  0.00    -0.382 C  
HETATM    8  C   UNL     1      -9.900   8.343  69.304  1.00  0.00    -0.186 C  
HETATM    9  OXT UNL     1     -13.198   6.747  71.859  1.00  0.00    -0.291 OA 
HETATM   10  O   UNL     1     -11.374   6.121  70.731  1.00  0.00    -0.321 OA 
HETATM   11  CA  UNL     1      -9.417   9.778  68.861  1.00  0.00    -0.161 C  
HETATM   12  O   UNL     1      -9.704   7.180  69.028  1.00  0.00    -0.149 OA 
ENDROOT
BRANCH  11  13
HETATM   13  N   UNL     1      -9.776  10.141  67.464  1.00  0.00    -0.159 N  
HETATM   14  H   UNL     1     -10.529   9.620  67.015  1.00  0.00     0.000 HD 
HETATM   15  C   UNL     1      -9.160  11.130  66.740  1.00  0.00    -0.166 C  
HETATM   16  O   UNL     1      -8.171  11.721  67.173  1.00  0.00    -0.154 OA 
BRANCH  15  17
HETATM   17  C   UNL     1      -9.813  11.510  65.416  1.00  0.00    -0.271 C  
HETATM   18  C   UNL     1      -9.555  10.777  64.305  1.00  0.00    -0.333 C  
BRANCH  17  19
HETATM   19  C   UNL     1     -10.709  12.648  65.369  1.00  0.00    -0.280 A  
HETATM   20  C   UNL     1     -11.979  12.699  65.912  1.00  0.00    -0.438 A  
HETATM   21  H2  UNL     1     -11.792  16.684  64.584  1.00  0.00     0.000 HD 
HETATM   22  S   UNL     1     -12.649  14.261  65.680  1.00  0.00    -0.328 SA 
HETATM   23  H1  UNL     1     -10.182  16.301  63.989  1.00  0.00     0.000 HD 
HETATM   24  N   UNL     1     -10.287  13.829  64.778  1.00  0.00    -0.417 NA 
HETATM   25  N   UNL     1     -11.040  16.007  64.454  1.00  0.00    -0.560 NA 
HETATM   26  C   UNL     1     -11.206  14.755  64.898  1.00  0.00    -0.406 A  
ENDBRANCH  17  19
BRANCH  18  27
HETATM   27  C   UNL     1      -8.795   9.490  64.111  1.00  0.00    -0.243 C  
HETATM   28  O   UNL     1      -7.027   9.446  62.459  1.00  0.00    -0.099 OA 
HETATM   29  C   UNL     1      -7.363   9.621  63.623  1.00  0.00    -0.115 C  
HETATM   30  O   UNL     1      -6.472   9.924  64.588  1.00  0.00    -0.105 OA 
ENDBRANCH  18  27
ENDBRANCH  15  17
ENDBRANCH  11  13
TORSDOF 4
ENDMDL
MODEL       46
REMARK 921   NORMALIZED FREE ENERGY PREDICTED BY IDOCK:   -6.36 KCAL/MOL
REMARK 922        TOTAL FREE ENERGY PREDICTED BY IDOCK:   -8.40 KCAL/MOL
REMARK 923 INTER-LIGAND FREE ENERGY PREDICTED BY IDOCK:   -7.45 KCAL/MOL
REMARK 924 INTRA-LIGAND FREE ENERGY PREDICTED BY IDOCK:   -0.95 KCAL/MOL
REMARK 927      BINDING AFFINITY PREDICTED BY RF-SCORE:    0.00 PKD
ROOT
HETATM    1  CE  UNL     1      -9.074   7.801  68.630  1.00  0.00    -0.136 C  
HETATM    2  SD  UNL     1     -10.604   7.641  69.586  1.00  0.00    -0.230 SA 
HETATM    3  CG  UNL     1     -10.458   5.843  69.779  1.00  0.00    -0.272 C  
HETATM    4  CB  UNL     1     -10.123   5.148  68.494  1.00  0.00    -0.214 C  
HETATM    5  CA  UNL     1      -9.572   5.701  67.393  1.00  0.00    -0.118 C  
HETATM    6  N   UNL     1      -9.196   7.009  67.417  1.00  0.00    -0.125 N  
HETATM    7  C   UNL     1      -9.470   4.810  66.189  1.00  0.00    -0.163 C  
HETATM    8  C   UNL     1      -8.853   7.983  66.556  1.00  0.00    -0.151 C  
HETATM    9  OXT UNL     1      -9.835   3.640  66.199  1.00  0.00    -0.131 OA 
HETATM   10  O   UNL     1      -8.918   5.343  65.082  1.00  0.00    -0.147 OA 
HETATM   11  CA  UNL     1      -8.916   9.057  67.710  1.00  0.00    -0.127 C  
HETATM   12  O   UNL     1      -8.690   7.928  65.357  1.00  0.00    -0.137 OA 
ENDROOT
BRANCH  11  13
HETATM   13  N   UNL     1     -10.056  10.007  67.600  1.00  0.00    -0.179 N  
HETATM   14  H   UNL     1     -10.938   9.652  67.230  1.00  0.00     0.000 HD 
HETATM   15  C   UNL     1      -9.998  11.329  67.963  1.00  0.00    -0.179 C  
HETATM   16  O   UNL     1      -8.939  11.854  68.308  1.00  0.00    -0.173 OA 
BRANCH  15  17
HETATM   17  C   UNL     1     -11.322  12.083  67.995  1.00  0.00    -0.358 C  
HETATM   18  C   UNL     1     -12.070  12.081  69.126  1.00  0.00    -0.241 C  
BRANCH  17  19
HETATM   19  C   UNL     1     -11.757  12.800  66.813  1.00  0.00    -0.392 A  
HETATM   20  C   UNL     1     -11.845  14.173  66.688  1.00  0.00    -0.424 A  
HETATM   21  H2  UNL     1     -12.908  13.196  62.739  1.00  0.00     0.000 HD 
HETATM   22  S   UNL     1     -12.339  14.583  65.097  1.00  0.00    -0.260 SA 
HETATM   23  H1  UNL     1     -12.717  11.513  63.214  1.00  0.00     0.000 HD 
HETATM   24  N   UNL     1     -12.082  12.094  65.664  1.00  0.00    -0.534 NA 
HETATM   25  N   UNL     1     -12.691  12.503  63.456  1.00  0.00    -0.751 NA 
HETATM   26  C   UNL     1     -12.381  12.918  64.691  1.00  0.00    -0.439 A  
ENDBRANCH  17  19
BRANCH  18  27
HETATM   27  C   UNL     1     -11.788  11.550  70.509  1.00  0.00    -0.363 C  
HETATM   28  O   UNL     1     -13.478  11.857  72.214  1.00  0.00    -0.442 OA 
HETATM   29  C   UNL     1     -12.998  11.152  71.335  1.00  0.00    -0.403 C  
HETATM   30  O   UNL     1     -13.496   9.933  71.042  1.00  0.00    -0.363 OA 
ENDBRANCH  18  27
ENDBRANCH  15  17
ENDBRANCH  11  13
TORSDOF 4
ENDMDL
MODEL       47
REMARK 921   NORMALIZED FREE ENERGY PREDICTED BY IDOCK:   -6.36 KCAL/MOL
REMARK 922        TOTAL FREE ENERGY PREDICTED BY IDOCK:   -8.40 KCAL/MOL
REMARK 923 INTER-LIGAND FREE ENERGY PREDICTED BY IDOCK:   -7.29 KCAL/MOL
REMARK 924 INTRA-LIGAND FREE ENERGY PREDICTED BY IDOCK:   -1.11 KCAL/MOL
REMARK 927      BINDING AFFINITY PREDICTED BY RF-SCORE:    0.00 PKD
ROOT
HETATM    1  CE  UNL     1      -9.332  14.744  66.424  1.00  0.00    -0.291 C  
HETATM    2  SD  UNL     1     -10.764  14.293  65.412  1.00  0.00    -0.368 SA 
HETATM    3  CG  UNL     1     -10.936  15.941  64.674  1.00  0.00    -0.305 C  
HETATM    4  CB  UNL     1     -10.862  17.041  65.691  1.00  0.00    -0.063 C  
HETATM    5  CA  UNL     1     -10.328  16.967  66.928  1.00  0.00    -0.304 C  
HETATM    6  N   UNL     1      -9.716  15.818  67.326  1.00  0.00    -0.222 N  
HETATM    7  C   UNL     1     -10.510  18.177  67.798  1.00  0.00    -0.404 C  
HETATM    8  C   UNL     1      -9.283  15.238  68.458  1.00  0.00    -0.200 C  
HETATM    9  OXT UNL     1     -11.083  19.190  67.411  1.00  0.00    -0.426 OA 
HETATM   10  O   UNL     1      -9.979  18.124  69.034  1.00  0.00    -0.358 OA 
HETATM   11  CA  UNL     1      -9.034  13.879  67.695  1.00  0.00    -0.192 C  
HETATM   12  O   UNL     1      -9.250  15.679  69.585  1.00  0.00    -0.277 OA 
ENDROOT
BRANCH  11  13
HETATM   13  N   UNL     1      -9.984  12.792  68.055  1.00  0.00    -0.219 N  
HETATM   14  H   UNL     1     -10.982  12.991  67.992  1.00  0.00     0.000 HD 
HETATM   15  C   UNL     1      -9.603  11.540  68.466  1.00  0.00    -0.178 C  
HETATM   16  O   UNL     1      -8.422  11.264  68.675  1.00  0.00    -0.151 OA 
BRANCH  15  17
HETATM   17  C   UNL     1     -10.708  10.494  68.569  1.00  0.00    -0.259 C  
HETATM   18  C   UNL     1     -10.897   9.615  67.554  1.00  0.00    -0.265 C  
BRANCH  17  19
HETATM   19  C   UNL     1     -11.536  10.453  69.757  1.00  0.00    -0.280 A  
HETATM   20  C   UNL     1     -11.821   9.326  70.504  1.00  0.00    -0.124 A  
HETATM   21  H2  UNL     1     -13.804  12.116  72.945  1.00  0.00     0.000 HD 
HETATM   22  S   UNL     1     -12.780   9.754  71.860  1.00  0.00    -0.402 SA 
HETATM   23  H1  UNL     1     -13.287  13.338  71.791  1.00  0.00     0.000 HD 
HETATM   24  N   UNL     1     -12.077  11.628  70.256  1.00  0.00    -0.358 NA 
HETATM   25  N   UNL     1     -13.316  12.362  72.084  1.00  0.00    -0.498 NA 
HETATM   26  C   UNL     1     -12.731  11.394  71.368  1.00  0.00    -0.384 A  
ENDBRANCH  17  19
BRANCH  18  27
HETATM   27  C   UNL     1     -10.103   9.351  66.299  1.00  0.00    -0.328 C  
HETATM   28  O   UNL     1      -7.788   8.688  66.533  1.00  0.00    -0.097 OA 
HETATM   29  C   UNL     1      -8.961   8.358  66.423  1.00  0.00    -0.171 C  
HETATM   30  O   UNL     1      -9.341   7.064  66.375  1.00  0.00    -0.167 OA 
ENDBRANCH  18  27
ENDBRANCH  15  17
ENDBRANCH  11  13
TORSDOF 4
ENDMDL
MODEL       48
REMARK 921   NORMALIZED FREE ENERGY PREDICTED BY IDOCK:   -6.35 KCAL/MOL
REMARK 922        TOTAL FREE ENERGY PREDICTED BY IDOCK:   -8.39 KCAL/MOL
REMARK 923 INTER-LIGAND FREE ENERGY PREDICTED BY IDOCK:   -7.57 KCAL/MOL
REMARK 924 INTRA-LIGAND FREE ENERGY PREDICTED BY IDOCK:   -0.82 KCAL/MOL
REMARK 927      BINDING AFFINITY PREDICTED BY RF-SCORE:    0.00 PKD
ROOT
HETATM    1  CE  UNL     1     -10.147  10.454  70.059  1.00  0.00    -0.025 C  
HETATM    2  SD  UNL     1     -11.836  10.909  70.529  1.00  0.00    -0.360 SA 
HETATM    3  CG  UNL     1     -12.158   9.354  71.406  1.00  0.00    -0.363 C  
HETATM    4  CB  UNL     1     -11.735   8.148  70.621  1.00  0.00    -0.148 C  
HETATM    5  CA  UNL     1     -10.854   8.114  69.599  1.00  0.00    -0.158 C  
HETATM    6  N   UNL     1     -10.196   9.251  69.244  1.00  0.00    -0.199 N  
HETATM    7  C   UNL     1     -10.715   6.797  68.893  1.00  0.00    -0.240 C  
HETATM    8  C   UNL     1      -9.464   9.723  68.220  1.00  0.00    -0.139 C  
HETATM    9  OXT UNL     1     -11.338   5.796  69.231  1.00  0.00    -0.225 OA 
HETATM   10  O   UNL     1      -9.836   6.742  67.873  1.00  0.00    -0.126 OA 
HETATM   11  CA  UNL     1      -9.513  11.180  68.825  1.00  0.00    -0.165 C  
HETATM   12  O   UNL     1      -9.073   9.152  67.226  1.00  0.00    -0.125 OA 
ENDROOT
BRANCH  11  13
HETATM   13  N   UNL     1     -10.351  12.135  68.052  1.00  0.00    -0.199 N  
HETATM   14  H   UNL     1     -11.352  12.155  68.245  1.00  0.00     0.000 HD 
HETATM   15  C   UNL     1      -9.864  12.992  67.097  1.00  0.00    -0.230 C  
HETATM   16  O   UNL     1      -8.690  12.944  66.731  1.00  0.00    -0.190 OA 
BRANCH  15  17
HETATM   17  C   UNL     1     -10.830  14.051  66.579  1.00  0.00    -0.300 C  
HETATM   18  C   UNL     1     -11.823  13.694  65.726  1.00  0.00    -0.397 C  
BRANCH  17  19
HETATM   19  C   UNL     1     -10.676  15.424  67.015  1.00  0.00    -0.321 A  
HETATM   20  C   UNL     1     -10.627  15.854  68.327  1.00  0.00    -0.276 A  
HETATM   21  H2  UNL     1      -9.942  19.580  66.505  1.00  0.00     0.000 HD 
HETATM   22  S   UNL     1     -10.367  17.548  68.375  1.00  0.00    -0.375 SA 
HETATM   23  H1  UNL     1     -10.064  18.735  64.967  1.00  0.00     0.000 HD 
HETATM   24  N   UNL     1     -10.514  16.428  66.072  1.00  0.00    -0.335 NA 
HETATM   25  N   UNL     1     -10.092  18.715  65.986  1.00  0.00    -0.540 NA 
HETATM   26  C   UNL     1     -10.320  17.582  66.662  1.00  0.00    -0.319 A  
ENDBRANCH  17  19
BRANCH  18  27
HETATM   27  C   UNL     1     -12.286  12.345  65.239  1.00  0.00    -0.418 C  
HETATM   28  O   UNL     1     -13.149  12.181  62.984  1.00  0.00    -0.496 OA 
HETATM   29  C   UNL     1     -12.192  12.102  63.743  1.00  0.00    -0.531 C  
HETATM   30  O   UNL     1     -10.961  11.760  63.311  1.00  0.00    -0.367 OA 
ENDBRANCH  18  27
ENDBRANCH  15  17
ENDBRANCH  11  13
TORSDOF 4
ENDMDL
MODEL       49
REMARK 921   NORMALIZED FREE ENERGY PREDICTED BY IDOCK:   -6.33 KCAL/MOL
REMARK 922        TOTAL FREE ENERGY PREDICTED BY IDOCK:   -8.36 KCAL/MOL
REMARK 923 INTER-LIGAND FREE ENERGY PREDICTED BY IDOCK:   -6.98 KCAL/MOL
REMARK 924 INTRA-LIGAND FREE ENERGY PREDICTED BY IDOCK:   -1.39 KCAL/MOL
REMARK 927      BINDING AFFINITY PREDICTED BY RF-SCORE:    0.00 PKD
ROOT
HETATM    1  CE  UNL     1     -12.013  13.376  68.617  1.00  0.00    -0.327 C  
HETATM    2  SD  UNL     1     -12.081  13.684  70.401  1.00  0.00    -0.325 SA 
HETATM    3  CG  UNL     1     -12.637  15.402  70.223  1.00  0.00    -0.336 C  
HETATM    4  CB  UNL     1     -11.841  16.165  69.206  1.00  0.00    -0.176 C  
HETATM    5  CA  UNL     1     -11.089  15.650  68.212  1.00  0.00    -0.336 C  
HETATM    6  N   UNL     1     -11.066  14.302  68.019  1.00  0.00    -0.261 N  
HETATM    7  C   UNL     1     -10.280  16.635  67.419  1.00  0.00    -0.286 C  
HETATM    8  C   UNL     1     -10.338  13.383  67.362  1.00  0.00    -0.240 C  
HETATM    9  OXT UNL     1     -10.313  17.842  67.633  1.00  0.00    -0.342 OA 
HETATM   10  O   UNL     1      -9.527  16.139  66.418  1.00  0.00    -0.252 OA 
HETATM   11  CA  UNL     1     -11.091  12.217  68.111  1.00  0.00    -0.248 C  
HETATM   12  O   UNL     1      -9.416  13.538  66.592  1.00  0.00    -0.257 OA 
ENDROOT
BRANCH  11  13
HETATM   13  N   UNL     1     -10.256  11.487  69.103  1.00  0.00    -0.413 N  
HETATM   14  H   UNL     1     -10.029  11.961  69.977  1.00  0.00     0.000 HD 
HETATM   15  C   UNL     1      -9.771  10.217  68.918  1.00  0.00    -0.187 C  
HETATM   16  O   UNL     1      -9.906   9.628  67.845  1.00  0.00    -0.146 OA 
BRANCH  15  17
HETATM   17  C   UNL     1      -9.132   9.550  70.131  1.00  0.00    -0.276 C  
HETATM   18  C   UNL     1      -7.785   9.584  70.284  1.00  0.00    -0.170 C  
BRANCH  17  19
HETATM   19  C   UNL     1      -9.979   8.896  71.107  1.00  0.00    -0.272 A  
HETATM   20  C   UNL     1      -9.574   7.934  72.013  1.00  0.00    -0.186 A  
HETATM   21  H2  UNL     1     -13.555   8.274  73.321  1.00  0.00     0.000 HD 
HETATM   22  S   UNL     1     -10.891   7.490  73.018  1.00  0.00    -0.384 SA 
HETATM   23  H1  UNL     1     -13.761   9.475  72.052  1.00  0.00     0.000 HD 
HETATM   24  N   UNL     1     -11.313   9.262  71.213  1.00  0.00    -0.322 NA 
HETATM   25  N   UNL     1     -13.167   8.807  72.543  1.00  0.00    -0.389 NA 
HETATM   26  C   UNL     1     -11.889   8.612  72.193  1.00  0.00    -0.377 A  
ENDBRANCH  17  19
BRANCH  18  27
HETATM   27  C   UNL     1      -6.709  10.305  69.513  1.00  0.00    -0.073 C  
HETATM   28  O   UNL     1      -7.159  12.563  68.765  1.00  0.00    -0.094 OA 
HETATM   29  C   UNL     1      -6.702  11.819  69.624  1.00  0.00    -0.034 C  
HETATM   30  O   UNL     1      -6.121  12.292  70.746  1.00  0.00    -0.269 OA 
ENDBRANCH  18  27
ENDBRANCH  15  17
ENDBRANCH  11  13
TORSDOF 4
ENDMDL
MODEL       50
REMARK 921   NORMALIZED FREE ENERGY PREDICTED BY IDOCK:   -6.32 KCAL/MOL
REMARK 922        TOTAL FREE ENERGY PREDICTED BY IDOCK:   -8.35 KCAL/MOL
REMARK 923 INTER-LIGAND FREE ENERGY PREDICTED BY IDOCK:   -8.22 KCAL/MOL
REMARK 924 INTRA-LIGAND FREE ENERGY PREDICTED BY IDOCK:   -0.13 KCAL/MOL
REMARK 927      BINDING AFFINITY PREDICTED BY RF-SCORE:    0.00 PKD
ROOT
HETATM    1  CE  UNL     1      -8.896  11.747  68.322  1.00  0.00    -0.172 C  
HETATM    2  SD  UNL     1     -10.558  12.416  68.584  1.00  0.00    -0.189 SA 
HETATM    3  CG  UNL     1     -11.240  10.853  69.203  1.00  0.00    -0.256 C  
HETATM    4  CB  UNL     1     -10.866   9.680  68.347  1.00  0.00    -0.212 C  
HETATM    5  CA  UNL     1      -9.840   9.607  67.474  1.00  0.00    -0.169 C  
HETATM    6  N   UNL     1      -8.977  10.655  67.365  1.00  0.00    -0.136 N  
HETATM    7  C   UNL     1      -9.772   8.362  66.639  1.00  0.00    -0.251 C  
HETATM    8  C   UNL     1      -8.024  11.103  66.530  1.00  0.00    -0.158 C  
HETATM    9  OXT UNL     1     -10.578   7.444  66.752  1.00  0.00    -0.310 OA 
HETATM   10  O   UNL     1      -8.752   8.269  65.765  1.00  0.00    -0.155 OA 
HETATM   11  CA  UNL     1      -7.967  12.481  67.297  1.00  0.00    -0.173 C  
HETATM   12  O   UNL     1      -7.557  10.579  65.544  1.00  0.00    -0.152 OA 
ENDROOT
BRANCH  11  13
HETATM   13  N   UNL     1      -8.520  13.630  66.531  1.00  0.00    -0.392 N  
HETATM   14  H   UNL     1      -8.840  13.459  65.578  1.00  0.00     0.000 HD 
HETATM   15  C   UNL     1      -8.627  14.906  67.024  1.00  0.00    -0.238 C  
HETATM   16  O   UNL     1      -8.158  15.212  68.121  1.00  0.00    -0.130 OA 
BRANCH  15  17
HETATM   17  C   UNL     1      -9.426  15.895  66.182  1.00  0.00    -0.375 C  
HETATM   18  C   UNL     1     -10.325  15.434  65.278  1.00  0.00    -0.420 C  
BRANCH  17  19
HETATM   19  C   UNL     1      -9.214  17.316  66.368  1.00  0.00    -0.253 A  
HETATM   20  C   UNL     1     -10.141  18.212  66.865  1.00  0.00    -0.357 A  
HETATM   21  H2  UNL     1      -6.927  20.898  66.496  1.00  0.00     0.000 HD 
HETATM   22  S   UNL     1      -9.439  19.774  66.976  1.00  0.00    -0.390 SA 
HETATM   23  H1  UNL     1      -5.996  19.538  65.883  1.00  0.00     0.000 HD 
HETATM   24  N   UNL     1      -7.975  17.868  66.079  1.00  0.00    -0.523 NA 
HETATM   25  N   UNL     1      -6.875  19.912  66.238  1.00  0.00    -0.217 NA 
HETATM   26  C   UNL     1      -7.962  19.144  66.378  1.00  0.00    -0.294 A  
ENDBRANCH  17  19
BRANCH  18  27
HETATM   27  C   UNL     1     -10.834  14.043  64.994  1.00  0.00    -0.401 C  
HETATM   28  O   UNL     1     -13.202  13.619  65.254  1.00  0.00    -0.724 OA 
HETATM   29  C   UNL     1     -12.273  13.937  64.523  1.00  0.00    -0.417 C  
HETATM   30  O   UNL     1     -12.449  14.197  63.211  1.00  0.00    -0.758 OA 
ENDBRANCH  18  27
ENDBRANCH  15  17
ENDBRANCH  11  13
TORSDOF 4
ENDMDL
MODEL       51
REMARK 921   NORMALIZED FREE ENERGY PREDICTED BY IDOCK:   -6.28 KCAL/MOL
REMARK 922        TOTAL FREE ENERGY PREDICTED BY IDOCK:   -8.31 KCAL/MOL
REMARK 923 INTER-LIGAND FREE ENERGY PREDICTED BY IDOCK:   -7.03 KCAL/MOL
REMARK 924 INTRA-LIGAND FREE ENERGY PREDICTED BY IDOCK:   -1.28 KCAL/MOL
REMARK 927      BINDING AFFINITY PREDICTED BY RF-SCORE:    0.00 PKD
ROOT
HETATM    1  CE  UNL     1     -12.101  13.607  67.445  1.00  0.00    -0.337 C  
HETATM    2  SD  UNL     1     -11.550  13.450  69.163  1.00  0.00    -0.332 SA 
HETATM    3  CG  UNL     1     -11.913  15.177  69.583  1.00  0.00    -0.329 C  
HETATM    4  CB  UNL     1     -11.398  16.142  68.557  1.00  0.00    -0.359 C  
HETATM    5  CA  UNL     1     -11.078  15.868  67.275  1.00  0.00    -0.172 C  
HETATM    6  N   UNL     1     -11.289  14.616  66.784  1.00  0.00    -0.348 N  
HETATM    7  C   UNL     1     -10.452  16.989  66.498  1.00  0.00    -0.250 C  
HETATM    8  C   UNL     1     -10.934  13.866  65.726  1.00  0.00    -0.285 C  
HETATM    9  OXT UNL     1     -10.261  18.102  66.978  1.00  0.00    -0.332 OA 
HETATM   10  O   UNL     1     -10.130  16.736  65.214  1.00  0.00    -0.577 OA 
HETATM   11  CA  UNL     1     -11.546  12.579  66.404  1.00  0.00    -0.391 C  
HETATM   12  O   UNL     1     -10.298  14.175  64.744  1.00  0.00    -0.426 OA 
ENDROOT
BRANCH  11  13
HETATM   13  N   UNL     1     -10.534  11.586  66.854  1.00  0.00    -0.226 N  
HETATM   14  H   UNL     1     -10.161  11.678  67.799  1.00  0.00     0.000 HD 
HETATM   15  C   UNL     1     -10.069  10.552  66.080  1.00  0.00    -0.256 C  
HETATM   16  O   UNL     1     -10.386  10.445  64.895  1.00  0.00    -0.317 OA 
BRANCH  15  17
HETATM   17  C   UNL     1      -9.212   9.507  66.785  1.00  0.00    -0.184 C  
HETATM   18  C   UNL     1      -7.875   9.703  66.902  1.00  0.00    -0.102 C  
BRANCH  17  19
HETATM   19  C   UNL     1      -9.844   8.322  67.329  1.00  0.00    -0.197 A  
HETATM   20  C   UNL     1     -10.035   7.129  66.658  1.00  0.00    -0.164 A  
HETATM   21  H2  UNL     1     -11.547   5.909  70.386  1.00  0.00     0.000 HD 
HETATM   22  S   UNL     1     -10.761   5.982  67.706  1.00  0.00    -0.281 SA 
HETATM   23  H1  UNL     1     -11.188   7.536  70.949  1.00  0.00     0.000 HD 
HETATM   24  N   UNL     1     -10.273   8.318  68.648  1.00  0.00    -0.201 NA 
HETATM   25  N   UNL     1     -11.194   6.847  70.197  1.00  0.00    -0.299 NA 
HETATM   26  C   UNL     1     -10.750   7.141  68.969  1.00  0.00    -0.184 A  
ENDBRANCH  17  19
BRANCH  18  27
HETATM   27  C   UNL     1      -7.005  10.887  66.563  1.00  0.00    -0.139 C  
HETATM   28  O   UNL     1      -7.718  13.077  67.306  1.00  0.00    -0.160 OA 
HETATM   29  C   UNL     1      -7.067  12.063  67.521  1.00  0.00    -0.129 C  
HETATM   30  O   UNL     1      -6.318  11.914  68.633  1.00  0.00    -0.052 OA 
ENDBRANCH  18  27
ENDBRANCH  15  17
ENDBRANCH  11  13
TORSDOF 4
ENDMDL
MODEL       52
REMARK 921   NORMALIZED FREE ENERGY PREDICTED BY IDOCK:   -6.26 KCAL/MOL
REMARK 922        TOTAL FREE ENERGY PREDICTED BY IDOCK:   -8.27 KCAL/MOL
REMARK 923 INTER-LIGAND FREE ENERGY PREDICTED BY IDOCK:   -8.25 KCAL/MOL
REMARK 924 INTRA-LIGAND FREE ENERGY PREDICTED BY IDOCK:   -0.03 KCAL/MOL
REMARK 927      BINDING AFFINITY PREDICTED BY RF-SCORE:    0.00 PKD
ROOT
HETATM    1  CE  UNL     1     -10.035  12.444  66.426  1.00  0.00    -0.242 C  
HETATM    2  SD  UNL     1     -11.842  12.386  66.535  1.00  0.00    -0.259 SA 
HETATM    3  CG  UNL     1     -12.099  13.574  65.189  1.00  0.00    -0.404 C  
HETATM    4  CB  UNL     1     -11.227  14.788  65.313  1.00  0.00    -0.366 C  
HETATM    5  CA  UNL     1     -10.090  14.899  66.030  1.00  0.00    -0.311 C  
HETATM    6  N   UNL     1      -9.594  13.807  66.675  1.00  0.00    -0.280 N  
HETATM    7  C   UNL     1      -9.484  16.271  66.097  1.00  0.00    -0.339 C  
HETATM    8  C   UNL     1      -8.695  13.512  67.629  1.00  0.00    -0.194 C  
HETATM    9  OXT UNL     1      -9.968  17.237  65.517  1.00  0.00    -0.557 OA 
HETATM   10  O   UNL     1      -8.345  16.401  66.805  1.00  0.00    -0.197 OA 
HETATM   11  CA  UNL     1      -9.213  12.023  67.690  1.00  0.00    -0.182 C  
HETATM   12  O   UNL     1      -7.916  14.239  68.203  1.00  0.00    -0.121 OA 
ENDROOT
BRANCH  11  13
HETATM   13  N   UNL     1      -9.950  11.683  68.937  1.00  0.00    -0.387 N  
HETATM   14  H   UNL     1      -9.851  12.308  69.736  1.00  0.00     0.000 HD 
HETATM   15  C   UNL     1     -10.755  10.580  69.082  1.00  0.00    -0.231 C  
HETATM   16  O   UNL     1     -10.832   9.722  68.202  1.00  0.00    -0.242 OA 
BRANCH  15  17
HETATM   17  C   UNL     1     -11.604  10.521  70.346  1.00  0.00    -0.430 C  
HETATM   18  C   UNL     1     -11.800   9.332  70.968  1.00  0.00    -0.376 C  
BRANCH  17  19
HETATM   19  C   UNL     1     -12.183  11.742  70.868  1.00  0.00    -0.276 A  
HETATM   20  C   UNL     1     -13.122  11.823  71.879  1.00  0.00    -0.376 A  
HETATM   21  H2  UNL     1     -12.568  15.952  71.315  1.00  0.00     0.000 HD 
HETATM   22  S   UNL     1     -13.472  13.468  72.218  1.00  0.00    -0.586 SA 
HETATM   23  H1  UNL     1     -11.413  15.521  70.061  1.00  0.00     0.000 HD 
HETATM   24  N   UNL     1     -11.759  12.967  70.376  1.00  0.00    -0.141 NA 
HETATM   25  N   UNL     1     -12.083  15.236  70.774  1.00  0.00    -0.319 NA 
HETATM   26  C   UNL     1     -12.344  13.946  71.019  1.00  0.00    -0.376 A  
ENDBRANCH  17  19
BRANCH  18  27
HETATM   27  C   UNL     1     -11.208   7.967  70.725  1.00  0.00    -0.274 C  
HETATM   28  O   UNL     1     -10.381   6.726  72.631  1.00  0.00    -0.189 OA 
HETATM   29  C   UNL     1     -11.308   6.977  71.871  1.00  0.00    -0.257 C  
HETATM   30  O   UNL     1     -12.506   6.365  71.975  1.00  0.00    -0.333 OA 
ENDBRANCH  18  27
ENDBRANCH  15  17
ENDBRANCH  11  13
TORSDOF 4
ENDMDL
MODEL       53
REMARK 921   NORMALIZED FREE ENERGY PREDICTED BY IDOCK:   -6.24 KCAL/MOL
REMARK 922        TOTAL FREE ENERGY PREDICTED BY IDOCK:   -8.25 KCAL/MOL
REMARK 923 INTER-LIGAND FREE ENERGY PREDICTED BY IDOCK:   -7.22 KCAL/MOL
REMARK 924 INTRA-LIGAND FREE ENERGY PREDICTED BY IDOCK:   -1.04 KCAL/MOL
REMARK 927      BINDING AFFINITY PREDICTED BY RF-SCORE:    0.00 PKD
ROOT
HETATM    1  CE  UNL     1     -11.033   7.176  70.438  1.00  0.00    -0.265 C  
HETATM    2  SD  UNL     1     -10.110   7.823  69.020  1.00  0.00    -0.199 SA 
HETATM    3  CG  UNL     1      -9.037   6.367  68.879  1.00  0.00    -0.129 C  
HETATM    4  CB  UNL     1      -8.472   5.934  70.199  1.00  0.00    -0.126 C  
HETATM    5  CA  UNL     1      -8.951   6.236  71.424  1.00  0.00    -0.139 C  
HETATM    6  N   UNL     1     -10.105   6.949  71.535  1.00  0.00    -0.185 N  
HETATM    7  C   UNL     1      -8.113   5.790  72.587  1.00  0.00    -0.105 C  
HETATM    8  C   UNL     1     -10.788   7.638  72.466  1.00  0.00    -0.314 C  
HETATM    9  OXT UNL     1      -7.068   5.164  72.448  1.00  0.00    -0.082 OA 
HETATM   10  O   UNL     1      -8.578   6.078  73.818  1.00  0.00    -0.124 OA 
HETATM   11  CA  UNL     1     -11.765   8.205  71.363  1.00  0.00    -0.285 C  
HETATM   12  O   UNL     1     -10.562   7.765  73.648  1.00  0.00    -0.234 OA 
ENDROOT
BRANCH  11  13
HETATM   13  N   UNL     1     -11.597   9.657  71.086  1.00  0.00    -0.349 N  
HETATM   14  H   UNL     1     -10.649  10.033  71.072  1.00  0.00     0.000 HD 
HETATM   15  C   UNL     1     -12.635  10.522  70.848  1.00  0.00    -0.398 C  
HETATM   16  O   UNL     1     -13.808  10.165  70.962  1.00  0.00    -0.069 OA 
BRANCH  15  17
HETATM   17  C   UNL     1     -12.258  11.916  70.359  1.00  0.00    -0.399 C  
HETATM   18  C   UNL     1     -12.587  13.001  71.103  1.00  0.00    -0.388 C  
BRANCH  17  19
HETATM   19  C   UNL     1     -11.546  12.058  69.105  1.00  0.00    -0.312 A  
HETATM   20  C   UNL     1     -10.719  13.110  68.760  1.00  0.00    -0.225 A  
HETATM   21  H2  UNL     1     -10.110  10.784  65.311  1.00  0.00     0.000 HD 
HETATM   22  S   UNL     1     -10.035  12.830  67.213  1.00  0.00    -0.222 SA 
HETATM   23  H1  UNL     1     -11.222   9.623  66.024  1.00  0.00     0.000 HD 
HETATM   24  N   UNL     1     -11.632  11.055  68.150  1.00  0.00    -0.496 NA 
HETATM   25  N   UNL     1     -10.727  10.513  66.077  1.00  0.00    -0.084 NA 
HETATM   26  C   UNL     1     -10.866  11.334  67.124  1.00  0.00    -0.270 A  
ENDBRANCH  17  19
BRANCH  18  27
HETATM   27  C   UNL     1     -13.184  13.123  72.482  1.00  0.00    -0.437 C  
HETATM   28  O   UNL     1     -12.166  14.677  74.033  1.00  0.00    -0.464 OA 
HETATM   29  C   UNL     1     -13.011  14.463  73.173  1.00  0.00    -0.413 C  
HETATM   30  O   UNL     1     -13.890  15.409  72.782  1.00  0.00    -0.504 OA 
ENDBRANCH  18  27
ENDBRANCH  15  17
ENDBRANCH  11  13
TORSDOF 4
ENDMDL
MODEL       54
REMARK 921   NORMALIZED FREE ENERGY PREDICTED BY IDOCK:   -6.23 KCAL/MOL
REMARK 922        TOTAL FREE ENERGY PREDICTED BY IDOCK:   -8.24 KCAL/MOL
REMARK 923 INTER-LIGAND FREE ENERGY PREDICTED BY IDOCK:   -7.92 KCAL/MOL
REMARK 924 INTRA-LIGAND FREE ENERGY PREDICTED BY IDOCK:   -0.32 KCAL/MOL
REMARK 927      BINDING AFFINITY PREDICTED BY RF-SCORE:    0.00 PKD
ROOT
HETATM    1  CE  UNL     1      -8.451  12.315  67.545  1.00  0.00    -0.172 C  
HETATM    2  SD  UNL     1      -7.863  11.036  68.685  1.00  0.00    -0.143 SA 
HETATM    3  CG  UNL     1      -6.835  10.206  67.442  1.00  0.00    -0.077 C  
HETATM    4  CB  UNL     1      -7.555   9.993  66.144  1.00  0.00    -0.109 C  
HETATM    5  CA  UNL     1      -8.649  10.651  65.706  1.00  0.00    -0.181 C  
HETATM    6  N   UNL     1      -9.157  11.674  66.448  1.00  0.00    -0.203 N  
HETATM    7  C   UNL     1      -9.256  10.146  64.430  1.00  0.00    -0.258 C  
HETATM    8  C   UNL     1     -10.281  12.408  66.531  1.00  0.00    -0.227 C  
HETATM    9  OXT UNL     1      -8.780   9.209  63.797  1.00  0.00    -0.197 OA 
HETATM   10  O   UNL     1     -10.346  10.793  63.975  1.00  0.00    -0.354 OA 
HETATM   11  CA  UNL     1      -9.794  13.040  67.893  1.00  0.00    -0.224 C  
HETATM   12  O   UNL     1     -11.257  12.404  65.815  1.00  0.00    -0.305 OA 
ENDROOT
BRANCH  11  13
HETATM   13  N   UNL     1     -10.560  12.587  69.085  1.00  0.00    -0.438 N  
HETATM   14  H   UNL     1     -10.091  11.971  69.748  1.00  0.00     0.000 HD 
HETATM   15  C   UNL     1     -11.858  12.947  69.351  1.00  0.00    -0.312 C  
HETATM   16  O   UNL     1     -12.523  13.593  68.542  1.00  0.00    -0.095 OA 
BRANCH  15  17
HETATM   17  C   UNL     1     -12.397  12.575  70.727  1.00  0.00    -0.376 C  
HETATM   18  C   UNL     1     -12.871  13.545  71.547  1.00  0.00    -0.440 C  
BRANCH  17  19
HETATM   19  C   UNL     1     -12.400  11.184  71.134  1.00  0.00    -0.346 A  
HETATM   20  C   UNL     1     -11.427  10.251  70.829  1.00  0.00    -0.351 A  
HETATM   21  H2  UNL     1     -13.801   7.787  73.272  1.00  0.00     0.000 HD 
HETATM   22  S   UNL     1     -11.804   8.752  71.573  1.00  0.00    -0.333 SA 
HETATM   23  H1  UNL     1     -14.862   9.176  73.464  1.00  0.00     0.000 HD 
HETATM   24  N   UNL     1     -13.424  10.707  71.939  1.00  0.00    -0.316 NA 
HETATM   25  N   UNL     1     -14.025   8.759  73.059  1.00  0.00    -0.242 NA 
HETATM   26  C   UNL     1     -13.212   9.453  72.254  1.00  0.00    -0.446 A  
ENDBRANCH  17  19
BRANCH  18  27
HETATM   27  C   UNL     1     -13.112  15.016  71.321  1.00  0.00    -0.472 C  
HETATM   28  O   UNL     1     -11.779  16.597  72.577  1.00  0.00    -0.485 OA 
HETATM   29  C   UNL     1     -11.928  15.935  71.558  1.00  0.00    -0.471 C  
HETATM   30  O   UNL     1     -11.052  15.989  70.533  1.00  0.00    -0.345 OA 
ENDBRANCH  18  27
ENDBRANCH  15  17
ENDBRANCH  11  13
TORSDOF 4
ENDMDL
MODEL       55
REMARK 921   NORMALIZED FREE ENERGY PREDICTED BY IDOCK:   -6.17 KCAL/MOL
REMARK 922        TOTAL FREE ENERGY PREDICTED BY IDOCK:   -8.16 KCAL/MOL
REMARK 923 INTER-LIGAND FREE ENERGY PREDICTED BY IDOCK:   -6.83 KCAL/MOL
REMARK 924 INTRA-LIGAND FREE ENERGY PREDICTED BY IDOCK:   -1.33 KCAL/MOL
REMARK 927      BINDING AFFINITY PREDICTED BY RF-SCORE:    0.00 PKD
ROOT
HETATM    1  CE  UNL     1     -10.269  12.750  64.947  1.00  0.00    -0.272 C  
HETATM    2  SD  UNL     1     -12.035  12.400  64.750  1.00  0.00    -0.387 SA 
HETATM    3  CG  UNL     1     -12.330  13.804  63.639  1.00  0.00    -0.198 C  
HETATM    4  CB  UNL     1     -11.714  15.077  64.139  1.00  0.00    -0.125 C  
HETATM    5  CA  UNL     1     -10.715  15.196  65.038  1.00  0.00    -0.430 C  
HETATM    6  N   UNL     1     -10.116  14.075  65.526  1.00  0.00    -0.329 N  
HETATM    7  C   UNL     1     -10.380  16.594  65.470  1.00  0.00    -0.247 C  
HETATM    8  C   UNL     1      -9.306  13.715  66.536  1.00  0.00    -0.228 C  
HETATM    9  OXT UNL     1     -10.953  17.580  65.020  1.00  0.00    -0.754 OA 
HETATM   10  O   UNL     1      -9.381  16.733  66.363  1.00  0.00    -0.249 OA 
HETATM   11  CA  UNL     1      -9.551  12.188  66.219  1.00  0.00    -0.237 C  
HETATM   12  O   UNL     1      -8.749  14.405  67.360  1.00  0.00    -0.181 OA 
ENDROOT
BRANCH  11  13
HETATM   13  N   UNL     1     -10.365  11.475  67.240  1.00  0.00    -0.201 N  
HETATM   14  H   UNL     1     -11.339  11.271  67.016  1.00  0.00     0.000 HD 
HETATM   15  C   UNL     1      -9.891  11.073  68.463  1.00  0.00    -0.192 C  
HETATM   16  O   UNL     1      -8.763  11.384  68.848  1.00  0.00    -0.116 OA 
BRANCH  15  17
HETATM   17  C   UNL     1     -10.799  10.159  69.277  1.00  0.00    -0.269 C  
HETATM   18  C   UNL     1     -10.748   8.818  69.085  1.00  0.00    -0.150 C  
BRANCH  17  19
HETATM   19  C   UNL     1     -11.700  10.742  70.251  1.00  0.00    -0.352 A  
HETATM   20  C   UNL     1     -12.384  10.050  71.233  1.00  0.00    -0.398 A  
HETATM   21  H2  UNL     1     -13.614  13.918  72.330  1.00  0.00     0.000 HD 
HETATM   22  S   UNL     1     -13.279  11.147  72.201  1.00  0.00     0.087 SA 
HETATM   23  H1  UNL     1     -12.645  14.497  70.982  1.00  0.00     0.000 HD 
HETATM   24  N   UNL     1     -11.893  12.115  70.272  1.00  0.00    -0.304 NA 
HETATM   25  N   UNL     1     -13.000  13.721  71.540  1.00  0.00    -0.349 NA 
HETATM   26  C   UNL     1     -12.682  12.451  71.263  1.00  0.00    -0.248 A  
ENDBRANCH  17  19
BRANCH  18  27
HETATM   27  C   UNL     1      -9.822   7.961  68.260  1.00  0.00    -0.187 C  
HETATM   28  O   UNL     1     -10.804   6.423  66.670  1.00  0.00    -0.285 OA 
HETATM   29  C   UNL     1     -10.338   7.532  66.898  1.00  0.00    -0.309 C  
HETATM   30  O   UNL     1     -10.217   8.470  65.937  1.00  0.00     0.076 OA 
ENDBRANCH  18  27
ENDBRANCH  15  17
ENDBRANCH  11  13
TORSDOF 4
ENDMDL
MODEL       56
REMARK 921   NORMALIZED FREE ENERGY PREDICTED BY IDOCK:   -6.13 KCAL/MOL
REMARK 922        TOTAL FREE ENERGY PREDICTED BY IDOCK:   -8.12 KCAL/MOL
REMARK 923 INTER-LIGAND FREE ENERGY PREDICTED BY IDOCK:   -6.85 KCAL/MOL
REMARK 924 INTRA-LIGAND FREE ENERGY PREDICTED BY IDOCK:   -1.27 KCAL/MOL
REMARK 927      BINDING AFFINITY PREDICTED BY RF-SCORE:    0.00 PKD
ROOT
HETATM    1  CE  UNL     1      -8.667   9.248  67.883  1.00  0.00    -0.124 C  
HETATM    2  SD  UNL     1      -7.442  10.357  67.142  1.00  0.00    -0.094 SA 
HETATM    3  CG  UNL     1      -6.017   9.424  67.767  1.00  0.00    -0.052 C  
HETATM    4  CB  UNL     1      -6.149   9.069  69.218  1.00  0.00    -0.041 C  
HETATM    5  CA  UNL     1      -7.287   9.022  69.941  1.00  0.00    -0.060 C  
HETATM    6  N   UNL     1      -8.481   9.243  69.326  1.00  0.00    -0.132 N  
HETATM    7  C   UNL     1      -7.124   8.773  71.412  1.00  0.00    -0.090 C  
HETATM    8  C   UNL     1      -9.757   9.515  69.652  1.00  0.00    -0.200 C  
HETATM    9  OXT UNL     1      -6.029   8.595  71.935  1.00  0.00    -0.048 OA 
HETATM   10  O   UNL     1      -8.250   8.718  72.150  1.00  0.00    -0.340 OA 
HETATM   11  CA  UNL     1     -10.103   9.816  68.142  1.00  0.00    -0.165 C  
HETATM   12  O   UNL     1     -10.277   9.569  70.744  1.00  0.00    -0.275 OA 
ENDROOT
BRANCH  11  13
HETATM   13  N   UNL     1     -10.364  11.251  67.850  1.00  0.00    -0.177 N  
HETATM   14  H   UNL     1      -9.589  11.817  67.504  1.00  0.00     0.000 HD 
HETATM   15  C   UNL     1     -11.581  11.864  68.015  1.00  0.00    -0.332 C  
HETATM   16  O   UNL     1     -12.530  11.276  68.535  1.00  0.00    -0.434 OA 
BRANCH  15  17
HETATM   17  C   UNL     1     -11.715  13.273  67.449  1.00  0.00    -0.419 C  
HETATM   18  C   UNL     1     -12.032  13.444  66.142  1.00  0.00    -0.460 C  
BRANCH  17  19
HETATM   19  C   UNL     1     -11.508  14.410  68.323  1.00  0.00    -0.305 A  
HETATM   20  C   UNL     1     -10.767  15.536  68.021  1.00  0.00    -0.283 A  
HETATM   21  H2  UNL     1     -12.150  16.786  71.789  1.00  0.00     0.000 HD 
HETATM   22  S   UNL     1     -10.850  16.653  69.320  1.00  0.00    -0.268 SA 
HETATM   23  H1  UNL     1     -12.985  15.241  71.880  1.00  0.00     0.000 HD 
HETATM   24  N   UNL     1     -12.122  14.439  69.567  1.00  0.00    -0.326 NA 
HETATM   25  N   UNL     1     -12.378  15.883  71.373  1.00  0.00    -0.443 NA 
HETATM   26  C   UNL     1     -11.871  15.573  70.173  1.00  0.00    -0.356 A  
ENDBRANCH  17  19
BRANCH  18  27
HETATM   27  C   UNL     1     -12.434  12.459  65.074  1.00  0.00    -0.393 C  
HETATM   28  O   UNL     1     -11.022  12.258  63.119  1.00  0.00    -0.377 OA 
HETATM   29  C   UNL     1     -11.307  11.870  64.244  1.00  0.00    -0.353 C  
HETATM   30  O   UNL     1     -10.650  10.854  64.840  1.00  0.00    -0.302 OA 
ENDBRANCH  18  27
ENDBRANCH  15  17
ENDBRANCH  11  13
TORSDOF 4
ENDMDL
MODEL       57
REMARK 921   NORMALIZED FREE ENERGY PREDICTED BY IDOCK:   -6.13 KCAL/MOL
REMARK 922        TOTAL FREE ENERGY PREDICTED BY IDOCK:   -8.11 KCAL/MOL
REMARK 923 INTER-LIGAND FREE ENERGY PREDICTED BY IDOCK:   -6.86 KCAL/MOL
REMARK 924 INTRA-LIGAND FREE ENERGY PREDICTED BY IDOCK:   -1.26 KCAL/MOL
REMARK 927      BINDING AFFINITY PREDICTED BY RF-SCORE:    0.00 PKD
ROOT
HETATM    1  CE  UNL     1     -10.673   9.291  67.236  1.00  0.00    -0.174 C  
HETATM    2  SD  UNL     1      -9.385   9.460  65.975  1.00  0.00    -0.239 SA 
HETATM    3  CG  UNL     1      -8.722   7.791  66.231  1.00  0.00    -0.155 C  
HETATM    4  CB  UNL     1      -8.525   7.463  67.681  1.00  0.00    -0.120 C  
HETATM    5  CA  UNL     1      -9.111   8.067  68.736  1.00  0.00    -0.144 C  
HETATM    6  N   UNL     1     -10.040   9.038  68.520  1.00  0.00    -0.184 N  
HETATM    7  C   UNL     1      -8.632   7.636  70.092  1.00  0.00    -0.140 C  
HETATM    8  C   UNL     1     -10.668  10.012  69.202  1.00  0.00    -0.220 C  
HETATM    9  OXT UNL     1      -7.780   6.768  70.247  1.00  0.00    -0.097 OA 
HETATM   10  O   UNL     1      -9.209   8.224  71.157  1.00  0.00    -0.146 OA 
HETATM   11  CA  UNL     1     -11.258  10.602  67.862  1.00  0.00    -0.308 C  
HETATM   12  O   UNL     1     -10.623  10.277  70.383  1.00  0.00    -0.278 OA 
ENDROOT
BRANCH  11  13
HETATM   13  N   UNL     1     -10.671  11.907  67.458  1.00  0.00    -0.217 N  
HETATM   14  H   UNL     1      -9.879  11.896  66.816  1.00  0.00     0.000 HD 
HETATM   15  C   UNL     1     -11.126  13.126  67.894  1.00  0.00    -0.262 C  
HETATM   16  O   UNL     1     -12.001  13.214  68.756  1.00  0.00    -0.318 OA 
BRANCH  15  17
HETATM   17  C   UNL     1     -10.552  14.355  67.198  1.00  0.00    -0.277 C  
HETATM   18  C   UNL     1     -11.194  14.879  66.124  1.00  0.00    -0.325 C  
BRANCH  17  19
HETATM   19  C   UNL     1      -9.329  14.947  67.701  1.00  0.00    -0.191 A  
HETATM   20  C   UNL     1      -9.007  15.124  69.033  1.00  0.00    -0.219 A  
HETATM   21  H2  UNL     1      -5.394  16.528  67.405  1.00  0.00     0.000 HD 
HETATM   22  S   UNL     1      -7.436  15.800  69.167  1.00  0.00    -0.218 SA 
HETATM   23  H1  UNL     1      -6.096  16.196  65.827  1.00  0.00     0.000 HD 
HETATM   24  N   UNL     1      -8.345  15.348  66.811  1.00  0.00    -0.253 NA 
HETATM   25  N   UNL     1      -6.180  16.201  66.843  1.00  0.00    -0.309 NA 
HETATM   26  C   UNL     1      -7.295  15.791  67.459  1.00  0.00    -0.178 A  
ENDBRANCH  17  19
BRANCH  18  27
HETATM   27  C   UNL     1     -12.526  14.554  65.499  1.00  0.00    -0.255 C  
HETATM   28  O   UNL     1     -12.544  13.657  63.252  1.00  0.00    -0.816 OA 
HETATM   29  C   UNL     1     -12.529  13.449  64.458  1.00  0.00    -0.301 C  
HETATM   30  O   UNL     1     -12.540  12.202  64.971  1.00  0.00    -0.514 OA 
ENDBRANCH  18  27
ENDBRANCH  15  17
ENDBRANCH  11  13
TORSDOF 4
ENDMDL
MODEL       58
REMARK 921   NORMALIZED FREE ENERGY PREDICTED BY IDOCK:   -6.11 KCAL/MOL
REMARK 922        TOTAL FREE ENERGY PREDICTED BY IDOCK:   -8.10 KCAL/MOL
REMARK 923 INTER-LIGAND FREE ENERGY PREDICTED BY IDOCK:   -6.76 KCAL/MOL
REMARK 924 INTRA-LIGAND FREE ENERGY PREDICTED BY IDOCK:   -1.34 KCAL/MOL
REMARK 927      BINDING AFFINITY PREDICTED BY RF-SCORE:    0.00 PKD
ROOT
HETATM    1  CE  UNL     1      -9.192   6.736  68.058  1.00  0.00    -0.117 C  
HETATM    2  SD  UNL     1     -10.849   6.317  67.459  1.00  0.00    -0.353 SA 
HETATM    3  CG  UNL     1     -10.275   4.953  66.409  1.00  0.00    -0.278 C  
HETATM    4  CB  UNL     1      -9.084   5.325  65.577  1.00  0.00    -0.145 C  
HETATM    5  CA  UNL     1      -8.225   6.342  65.800  1.00  0.00    -0.136 C  
HETATM    6  N   UNL     1      -8.363   7.102  66.921  1.00  0.00    -0.116 N  
HETATM    7  C   UNL     1      -7.196   6.581  64.733  1.00  0.00    -0.067 C  
HETATM    8  C   UNL     1      -7.930   8.276  67.411  1.00  0.00    -0.106 C  
HETATM    9  OXT UNL     1      -7.113   5.885  63.727  1.00  0.00    -0.048 OA 
HETATM   10  O   UNL     1      -6.327   7.589  64.941  1.00  0.00    -0.038 OA 
HETATM   11  CA  UNL     1      -8.959   8.185  68.604  1.00  0.00    -0.137 C  
HETATM   12  O   UNL     1      -7.122   9.052  66.950  1.00  0.00    -0.077 OA 
ENDROOT
BRANCH  11  13
HETATM   13  N   UNL     1     -10.076   9.164  68.525  1.00  0.00    -0.185 N  
HETATM   14  H   UNL     1     -10.963   8.845  68.137  1.00  0.00     0.000 HD 
HETATM   15  C   UNL     1      -9.988  10.470  68.939  1.00  0.00    -0.204 C  
HETATM   16  O   UNL     1      -8.919  10.955  69.310  1.00  0.00    -0.103 OA 
BRANCH  15  17
HETATM   17  C   UNL     1     -11.294  11.254  68.993  1.00  0.00    -0.344 C  
HETATM   18  C   UNL     1     -12.141  11.077  70.038  1.00  0.00    -0.441 C  
BRANCH  17  19
HETATM   19  C   UNL     1     -11.606  12.184  67.927  1.00  0.00    -0.347 A  
HETATM   20  C   UNL     1     -11.612  13.562  68.034  1.00  0.00    -0.337 A  
HETATM   21  H2  UNL     1     -12.445  13.328  63.919  1.00  0.00     0.000 HD 
HETATM   22  S   UNL     1     -11.970  14.262  66.509  1.00  0.00    -0.408 SA 
HETATM   23  H1  UNL     1     -12.377  11.581  64.110  1.00  0.00     0.000 HD 
HETATM   24  N   UNL     1     -11.887  11.702  66.657  1.00  0.00    -0.482 NA 
HETATM   25  N   UNL     1     -12.316  12.513  64.519  1.00  0.00    -0.462 NA 
HETATM   26  C   UNL     1     -12.072  12.695  65.822  1.00  0.00    -0.423 A  
ENDBRANCH  17  19
BRANCH  18  27
HETATM   27  C   UNL     1     -11.996  10.299  71.321  1.00  0.00    -0.457 C  
HETATM   28  O   UNL     1     -13.674   8.635  71.842  1.00  0.00    -0.377 OA 
HETATM   29  C   UNL     1     -12.594   8.904  71.333  1.00  0.00    -0.300 C  
HETATM   30  O   UNL     1     -11.821   7.963  70.753  1.00  0.00    -0.269 OA 
ENDBRANCH  18  27
ENDBRANCH  15  17
ENDBRANCH  11  13
TORSDOF 4
ENDMDL
MODEL       59
REMARK 921   NORMALIZED FREE ENERGY PREDICTED BY IDOCK:   -6.10 KCAL/MOL
REMARK 922        TOTAL FREE ENERGY PREDICTED BY IDOCK:   -8.08 KCAL/MOL
REMARK 923 INTER-LIGAND FREE ENERGY PREDICTED BY IDOCK:   -7.16 KCAL/MOL
REMARK 924 INTRA-LIGAND FREE ENERGY PREDICTED BY IDOCK:   -0.92 KCAL/MOL
REMARK 927      BINDING AFFINITY PREDICTED BY RF-SCORE:    0.00 PKD
ROOT
HETATM    1  CE  UNL     1      -7.811  11.554  67.694  1.00  0.00    -0.125 C  
HETATM    2  SD  UNL     1      -7.047  11.104  69.273  1.00  0.00    -0.108 SA 
HETATM    3  CG  UNL     1      -5.626  10.275  68.509  1.00  0.00    -0.038 C  
HETATM    4  CB  UNL     1      -6.025   9.343  67.404  1.00  0.00    -0.049 C  
HETATM    5  CA  UNL     1      -7.184   9.356  66.711  1.00  0.00    -0.083 C  
HETATM    6  N   UNL     1      -8.096  10.337  66.949  1.00  0.00    -0.118 N  
HETATM    7  C   UNL     1      -7.389   8.221  65.749  1.00  0.00    -0.072 C  
HETATM    8  C   UNL     1      -9.389  10.605  66.698  1.00  0.00    -0.165 C  
HETATM    9  OXT UNL     1      -6.551   7.344  65.573  1.00  0.00    -0.044 OA 
HETATM   10  O   UNL     1      -8.537   8.220  65.045  1.00  0.00    -0.154 OA 
HETATM   11  CA  UNL     1      -9.350  11.838  67.682  1.00  0.00    -0.180 C  
HETATM   12  O   UNL     1     -10.187   9.986  66.029  1.00  0.00    -0.252 OA 
ENDROOT
BRANCH  11  13
HETATM   13  N   UNL     1     -10.120  11.642  68.939  1.00  0.00    -0.373 N  
HETATM   14  H   UNL     1      -9.596  11.491  69.801  1.00  0.00     0.000 HD 
HETATM   15  C   UNL     1     -11.490  11.652  69.015  1.00  0.00    -0.294 C  
HETATM   16  O   UNL     1     -12.188  11.714  68.003  1.00  0.00    -0.551 OA 
BRANCH  15  17
HETATM   17  C   UNL     1     -12.093  11.665  70.415  1.00  0.00    -0.462 C  
HETATM   18  C   UNL     1     -12.463  12.843  70.976  1.00  0.00    -0.374 C  
BRANCH  17  19
HETATM   19  C   UNL     1     -12.268  10.412  71.122  1.00  0.00    -0.394 A  
HETATM   20  C   UNL     1     -13.479   9.816  71.421  1.00  0.00    -0.322 A  
HETATM   21  H2  UNL     1     -10.988   6.781  72.924  1.00  0.00     0.000 HD 
HETATM   22  S   UNL     1     -13.210   8.314  72.204  1.00  0.00    -0.236 SA 
HETATM   23  H1  UNL     1      -9.634   7.788  72.427  1.00  0.00     0.000 HD 
HETATM   24  N   UNL     1     -11.154   9.686  71.515  1.00  0.00    -0.345 NA 
HETATM   25  N   UNL     1     -10.640   7.644  72.506  1.00  0.00    -0.255 NA 
HETATM   26  C   UNL     1     -11.518   8.557  72.073  1.00  0.00    -0.361 A  
ENDBRANCH  17  19
BRANCH  18  27
HETATM   27  C   UNL     1     -12.524  14.241  70.416  1.00  0.00    -0.426 C  
HETATM   28  O   UNL     1     -14.268  15.716  71.217  1.00  0.00    -0.540 OA 
HETATM   29  C   UNL     1     -13.120  15.303  71.323  1.00  0.00    -0.468 C  
HETATM   30  O   UNL     1     -12.268  15.783  72.251  1.00  0.00    -0.374 OA 
ENDBRANCH  18  27
ENDBRANCH  15  17
ENDBRANCH  11  13
TORSDOF 4
ENDMDL
MODEL       60
REMARK 921   NORMALIZED FREE ENERGY PREDICTED BY IDOCK:   -6.08 KCAL/MOL
REMARK 922        TOTAL FREE ENERGY PREDICTED BY IDOCK:   -8.05 KCAL/MOL
REMARK 923 INTER-LIGAND FREE ENERGY PREDICTED BY IDOCK:   -7.23 KCAL/MOL
REMARK 924 INTRA-LIGAND FREE ENERGY PREDICTED BY IDOCK:   -0.82 KCAL/MOL
REMARK 927      BINDING AFFINITY PREDICTED BY RF-SCORE:    0.00 PKD
ROOT
HETATM    1  CE  UNL     1      -9.194  11.642  65.910  1.00  0.00    -0.196 C  
HETATM    2  SD  UNL     1      -9.861  10.138  65.153  1.00  0.00    -0.307 SA 
HETATM    3  CG  UNL     1     -10.229  10.936  63.565  1.00  0.00    -0.317 C  
HETATM    4  CB  UNL     1     -10.930  12.251  63.726  1.00  0.00    -0.495 C  
HETATM    5  CA  UNL     1     -10.957  13.025  64.831  1.00  0.00    -0.307 C  
HETATM    6  N   UNL     1     -10.232  12.660  65.923  1.00  0.00    -0.269 N  
HETATM    7  C   UNL     1     -11.853  14.229  64.770  1.00  0.00    -0.429 C  
HETATM    8  C   UNL     1     -10.142  12.962  67.230  1.00  0.00    -0.231 C  
HETATM    9  OXT UNL     1     -12.506  14.518  63.773  1.00  0.00    -0.809 OA 
HETATM   10  O   UNL     1     -11.889  15.017  65.862  1.00  0.00    -0.193 OA 
HETATM   11  CA  UNL     1      -9.186  11.730  67.473  1.00  0.00    -0.175 C  
HETATM   12  O   UNL     1     -10.716  13.820  67.863  1.00  0.00    -0.241 OA 
ENDROOT
BRANCH  11  13
HETATM   13  N   UNL     1      -9.801  10.622  68.252  1.00  0.00    -0.158 N  
HETATM   14  H   UNL     1     -10.732  10.307  67.980  1.00  0.00     0.000 HD 
HETATM   15  C   UNL     1      -9.197   9.996  69.313  1.00  0.00    -0.203 C  
HETATM   16  O   UNL     1      -8.126  10.397  69.769  1.00  0.00    -0.146 OA 
BRANCH  15  17
HETATM   17  C   UNL     1      -9.879   8.738  69.837  1.00  0.00    -0.189 C  
HETATM   18  C   UNL     1      -9.310   7.526  69.621  1.00  0.00    -0.153 C  
BRANCH  17  19
HETATM   19  C   UNL     1     -11.124   8.860  70.567  1.00  0.00    -0.251 A  
HETATM   20  C   UNL     1     -11.708  10.044  70.976  1.00  0.00    -0.392 A  
HETATM   21  H2  UNL     1     -14.751   7.454  72.282  1.00  0.00     0.000 HD 
HETATM   22  S   UNL     1     -13.206   9.718  71.746  1.00  0.00    -0.447 SA 
HETATM   23  H1  UNL     1     -13.759   6.141  71.660  1.00  0.00     0.000 HD 
HETATM   24  N   UNL     1     -11.857   7.721  70.868  1.00  0.00    -0.273 NA 
HETATM   25  N   UNL     1     -13.895   7.138  71.827  1.00  0.00    -0.323 NA 
HETATM   26  C   UNL     1     -12.978   8.043  71.465  1.00  0.00    -0.303 A  
ENDBRANCH  17  19
BRANCH  18  27
HETATM   27  C   UNL     1      -7.978   7.138  69.032  1.00  0.00    -0.120 C  
HETATM   28  O   UNL     1      -7.958   6.057  66.867  1.00  0.00    -0.101 OA 
HETATM   29  C   UNL     1      -7.899   7.093  67.517  1.00  0.00    -0.112 C  
HETATM   30  O   UNL     1      -7.731   8.297  66.933  1.00  0.00    -0.093 OA 
ENDBRANCH  18  27
ENDBRANCH  15  17
ENDBRANCH  11  13
TORSDOF 4
ENDMDL
MODEL       61
REMARK 921   NORMALIZED FREE ENERGY PREDICTED BY IDOCK:   -6.03 KCAL/MOL
REMARK 922        TOTAL FREE ENERGY PREDICTED BY IDOCK:   -7.99 KCAL/MOL
REMARK 923 INTER-LIGAND FREE ENERGY PREDICTED BY IDOCK:   -6.68 KCAL/MOL
REMARK 924 INTRA-LIGAND FREE ENERGY PREDICTED BY IDOCK:   -1.31 KCAL/MOL
REMARK 927      BINDING AFFINITY PREDICTED BY RF-SCORE:    0.00 PKD
ROOT
HETATM    1  CE  UNL     1     -12.406  12.851  69.716  1.00  0.00    -0.055 C  
HETATM    2  SD  UNL     1     -12.268  11.372  70.752  1.00  0.00    -0.333 SA 
HETATM    3  CG  UNL     1     -13.534  11.913  71.933  1.00  0.00    -0.187 C  
HETATM    4  CB  UNL     1     -13.351  13.337  72.367  1.00  0.00    -0.616 C  
HETATM    5  CA  UNL     1     -12.648  14.295  71.727  1.00  0.00    -0.337 C  
HETATM    6  N   UNL     1     -12.082  14.018  70.520  1.00  0.00    -0.337 N  
HETATM    7  C   UNL     1     -12.507  15.603  72.450  1.00  0.00    -0.423 C  
HETATM    8  C   UNL     1     -11.163  14.536  69.686  1.00  0.00    -0.253 C  
HETATM    9  OXT UNL     1     -13.018  15.812  73.545  1.00  0.00    -0.503 OA 
HETATM   10  O   UNL     1     -11.814  16.574  71.824  1.00  0.00    -0.423 OA 
HETATM   11  CA  UNL     1     -11.185  13.224  68.810  1.00  0.00    -0.276 C  
HETATM   12  O   UNL     1     -10.559  15.583  69.762  1.00  0.00    -0.253 OA 
ENDROOT
BRANCH  11  13
HETATM   13  N   UNL     1      -9.948  12.403  68.908  1.00  0.00    -0.429 N  
HETATM   14  H   UNL     1      -9.302  12.603  69.671  1.00  0.00     0.000 HD 
HETATM   15  C   UNL     1      -9.622  11.392  68.039  1.00  0.00    -0.183 C  
HETATM   16  O   UNL     1     -10.294  11.170  67.032  1.00  0.00    -0.206 OA 
BRANCH  15  17
HETATM   17  C   UNL     1      -8.438  10.516  68.430  1.00  0.00    -0.128 C  
HETATM   18  C   UNL     1      -7.220  10.747  67.881  1.00  0.00    -0.087 C  
BRANCH  17  19
HETATM   19  C   UNL     1      -8.633   9.451  69.394  1.00  0.00    -0.148 A  
HETATM   20  C   UNL     1      -8.663   8.099  69.108  1.00  0.00    -0.140 A  
HETATM   21  H2  UNL     1      -9.015   7.783  73.286  1.00  0.00     0.000 HD 
HETATM   22  S   UNL     1      -8.850   7.202  70.558  1.00  0.00    -0.154 SA 
HETATM   23  H1  UNL     1      -8.954   9.541  73.320  1.00  0.00     0.000 HD 
HETATM   24  N   UNL     1      -8.762   9.759  70.740  1.00  0.00    -0.091 NA 
HETATM   25  N   UNL     1      -8.949   8.671  72.788  1.00  0.00    -0.365 NA 
HETATM   26  C   UNL     1      -8.858   8.664  71.452  1.00  0.00    -0.215 A  
ENDBRANCH  17  19
BRANCH  18  27
HETATM   27  C   UNL     1      -6.721  11.854  66.986  1.00  0.00    -0.119 C  
HETATM   28  O   UNL     1      -7.525  14.100  67.393  1.00  0.00    -0.175 OA 
HETATM   29  C   UNL     1      -6.675  13.243  67.597  1.00  0.00    -0.166 C  
HETATM   30  O   UNL     1      -5.596  13.474  68.372  1.00  0.00    -0.080 OA 
ENDBRANCH  18  27
ENDBRANCH  15  17
ENDBRANCH  11  13
TORSDOF 4
ENDMDL
MODEL       62
REMARK 921   NORMALIZED FREE ENERGY PREDICTED BY IDOCK:   -6.02 KCAL/MOL
REMARK 922        TOTAL FREE ENERGY PREDICTED BY IDOCK:   -7.98 KCAL/MOL
REMARK 923 INTER-LIGAND FREE ENERGY PREDICTED BY IDOCK:   -8.43 KCAL/MOL
REMARK 924 INTRA-LIGAND FREE ENERGY PREDICTED BY IDOCK:    0.45 KCAL/MOL
REMARK 927      BINDING AFFINITY PREDICTED BY RF-SCORE:    0.00 PKD
ROOT
HETATM    1  CE  UNL     1      -9.475  12.178  66.479  1.00  0.00    -0.231 C  
HETATM    2  SD  UNL     1      -9.173  10.395  66.387  1.00  0.00    -0.166 SA 
HETATM    3  CG  UNL     1      -9.472  10.297  64.600  1.00  0.00    -0.293 C  
HETATM    4  CB  UNL     1     -10.716  11.022  64.181  1.00  0.00    -0.344 C  
HETATM    5  CA  UNL     1     -11.360  11.989  64.867  1.00  0.00    -0.310 C  
HETATM    6  N   UNL     1     -10.835  12.445  66.036  1.00  0.00    -0.265 N  
HETATM    7  C   UNL     1     -12.665  12.451  64.285  1.00  0.00    -0.342 C  
HETATM    8  C   UNL     1     -11.211  13.169  67.105  1.00  0.00    -0.294 C  
HETATM    9  OXT UNL     1     -13.117  12.005  63.236  1.00  0.00    -0.701 OA 
HETATM   10  O   UNL     1     -13.320  13.420  64.953  1.00  0.00    -0.529 OA 
HETATM   11  CA  UNL     1      -9.885  12.778  67.866  1.00  0.00    -0.223 C  
HETATM   12  O   UNL     1     -12.248  13.760  67.307  1.00  0.00    -0.375 OA 
ENDROOT
BRANCH  11  13
HETATM   13  N   UNL     1     -10.088  11.850  69.011  1.00  0.00    -0.419 N  
HETATM   14  H   UNL     1      -9.338  11.767  69.696  1.00  0.00     0.000 HD 
HETATM   15  C   UNL     1     -11.220  11.100  69.204  1.00  0.00    -0.264 C  
HETATM   16  O   UNL     1     -12.117  11.062  68.362  1.00  0.00    -0.594 OA 
BRANCH  15  17
HETATM   17  C   UNL     1     -11.341  10.387  70.546  1.00  0.00    -0.424 C  
HETATM   18  C   UNL     1     -12.283  10.787  71.437  1.00  0.00    -0.374 C  
BRANCH  17  19
HETATM   19  C   UNL     1     -10.450   9.284  70.845  1.00  0.00    -0.302 A  
HETATM   20  C   UNL     1      -9.093   9.385  71.083  1.00  0.00     0.010 A  
HETATM   21  H2  UNL     1      -9.468   5.258  71.791  1.00  0.00     0.000 HD 
HETATM   22  S   UNL     1      -8.452   7.840  71.461  1.00  0.00    -0.122 SA 
HETATM   23  H1  UNL     1     -11.176   5.455  71.424  1.00  0.00     0.000 HD 
HETATM   24  N   UNL     1     -10.962   8.000  70.958  1.00  0.00    -0.236 NA 
HETATM   25  N   UNL     1     -10.245   5.859  71.520  1.00  0.00    -0.199 NA 
HETATM   26  C   UNL     1     -10.017   7.160  71.300  1.00  0.00    -0.189 A  
ENDBRANCH  17  19
BRANCH  18  27
HETATM   27  C   UNL     1     -13.405  11.787  71.323  1.00  0.00     0.111 C  
HETATM   28  O   UNL     1     -13.463  13.622  72.899  1.00  0.00    -0.639 OA 
HETATM   29  C   UNL     1     -13.106  13.193  71.810  1.00  0.00    -0.383 C  
HETATM   30  O   UNL     1     -12.427  13.955  70.927  1.00  0.00    -0.335 OA 
ENDBRANCH  18  27
ENDBRANCH  15  17
ENDBRANCH  11  13
TORSDOF 4
ENDMDL
MODEL       63
REMARK 921   NORMALIZED FREE ENERGY PREDICTED BY IDOCK:   -6.01 KCAL/MOL
REMARK 922        TOTAL FREE ENERGY PREDICTED BY IDOCK:   -7.96 KCAL/MOL
REMARK 923 INTER-LIGAND FREE ENERGY PREDICTED BY IDOCK:   -6.93 KCAL/MOL
REMARK 924 INTRA-LIGAND FREE ENERGY PREDICTED BY IDOCK:   -1.04 KCAL/MOL
REMARK 927      BINDING AFFINITY PREDICTED BY RF-SCORE:    0.00 PKD
ROOT
HETATM    1  CE  UNL     1      -8.979  11.536  67.651  1.00  0.00    -0.160 C  
HETATM    2  SD  UNL     1      -7.546  12.633  67.811  1.00  0.00    -0.157 SA 
HETATM    3  CG  UNL     1      -6.333  11.321  67.499  1.00  0.00    -0.068 C  
HETATM    4  CB  UNL     1      -6.608  10.078  68.292  1.00  0.00    -0.055 C  
HETATM    5  CA  UNL     1      -7.781   9.719  68.855  1.00  0.00    -0.082 C  
HETATM    6  N   UNL     1      -8.883  10.493  68.659  1.00  0.00    -0.139 N  
HETATM    7  C   UNL     1      -7.749   8.489  69.716  1.00  0.00    -0.092 C  
HETATM    8  C   UNL     1     -10.114  10.655  69.174  1.00  0.00    -0.216 C  
HETATM    9  OXT UNL     1      -6.731   7.825  69.884  1.00  0.00    -0.040 OA 
HETATM   10  O   UNL     1      -8.911   8.112  70.283  1.00  0.00    -0.138 OA 
HETATM   11  CA  UNL     1     -10.315  11.977  68.336  1.00  0.00    -0.214 C  
HETATM   12  O   UNL     1     -10.683  10.010  70.026  1.00  0.00    -0.257 OA 
ENDROOT
BRANCH  11  13
HETATM   13  N   UNL     1     -10.321  13.222  69.151  1.00  0.00    -0.430 N  
HETATM   14  H   UNL     1      -9.585  13.340  69.847  1.00  0.00     0.000 HD 
HETATM   15  C   UNL     1     -11.253  14.222  69.026  1.00  0.00    -0.266 C  
HETATM   16  O   UNL     1     -12.232  14.099  68.290  1.00  0.00    -0.317 OA 
BRANCH  15  17
HETATM   17  C   UNL     1     -10.965  15.515  69.780  1.00  0.00    -0.299 C  
HETATM   18  C   UNL     1     -11.642  15.791  70.922  1.00  0.00    -0.440 C  
BRANCH  17  19
HETATM   19  C   UNL     1      -9.965  16.428  69.264  1.00  0.00    -0.259 A  
HETATM   20  C   UNL     1     -10.177  17.751  68.924  1.00  0.00    -0.345 A  
HETATM   21  H2  UNL     1      -6.032  17.662  68.221  1.00  0.00     0.000 HD 
HETATM   22  S   UNL     1      -8.700  18.467  68.425  1.00  0.00    -0.316 SA 
HETATM   23  H1  UNL     1      -6.091  15.973  68.707  1.00  0.00     0.000 HD 
HETATM   24  N   UNL     1      -8.653  15.999  69.123  1.00  0.00    -0.247 NA 
HETATM   25  N   UNL     1      -6.571  16.855  68.535  1.00  0.00    -0.159 NA 
HETATM   26  C   UNL     1      -7.892  16.983  68.713  1.00  0.00    -0.253 A  
ENDBRANCH  17  19
BRANCH  18  27
HETATM   27  C   UNL     1     -12.606  14.967  71.737  1.00  0.00    -0.398 C  
HETATM   28  O   UNL     1     -12.148  14.674  74.095  1.00  0.00    -0.463 OA 
HETATM   29  C   UNL     1     -12.706  15.312  73.212  1.00  0.00    -0.511 C  
HETATM   30  O   UNL     1     -13.491  16.375  73.482  1.00  0.00    -0.608 OA 
ENDBRANCH  18  27
ENDBRANCH  15  17
ENDBRANCH  11  13
TORSDOF 4
ENDMDL
MODEL       64
REMARK 921   NORMALIZED FREE ENERGY PREDICTED BY IDOCK:   -6.01 KCAL/MOL
REMARK 922        TOTAL FREE ENERGY PREDICTED BY IDOCK:   -7.96 KCAL/MOL
REMARK 923 INTER-LIGAND FREE ENERGY PREDICTED BY IDOCK:   -6.66 KCAL/MOL
REMARK 924 INTRA-LIGAND FREE ENERGY PREDICTED BY IDOCK:   -1.30 KCAL/MOL
REMARK 927      BINDING AFFINITY PREDICTED BY RF-SCORE:    0.00 PKD
ROOT
HETATM    1  CE  UNL     1     -10.221  10.049  70.221  1.00  0.00    -0.206 C  
HETATM    2  SD  UNL     1     -11.022  11.214  69.089  1.00  0.00    -0.255 SA 
HETATM    3  CG  UNL     1     -12.135  11.890  70.352  1.00  0.00    -0.333 C  
HETATM    4  CB  UNL     1     -12.802  10.823  71.167  1.00  0.00    -0.513 C  
HETATM    5  CA  UNL     1     -12.396   9.545  71.317  1.00  0.00    -0.345 C  
HETATM    6  N   UNL     1     -11.227   9.142  70.748  1.00  0.00    -0.261 N  
HETATM    7  C   UNL     1     -13.325   8.644  72.077  1.00  0.00    -0.392 C  
HETATM    8  C   UNL     1     -10.585   8.000  70.447  1.00  0.00    -0.224 C  
HETATM    9  OXT UNL     1     -14.380   9.039  72.563  1.00  0.00    -0.570 OA 
HETATM   10  O   UNL     1     -12.935   7.365  72.242  1.00  0.00    -0.101 OA 
HETATM   11  CA  UNL     1      -9.517   8.796  69.601  1.00  0.00    -0.170 C  
HETATM   12  O   UNL     1     -10.885   6.856  70.709  1.00  0.00    -0.231 OA 
ENDROOT
BRANCH  11  13
HETATM   13  N   UNL     1      -9.614   8.578  68.133  1.00  0.00    -0.141 N  
HETATM   14  H   UNL     1     -10.432   8.083  67.777  1.00  0.00     0.000 HD 
HETATM   15  C   UNL     1      -8.675   9.000  67.226  1.00  0.00    -0.118 C  
HETATM   16  O   UNL     1      -7.611   9.501  67.590  1.00  0.00    -0.093 OA 
BRANCH  15  17
HETATM   17  C   UNL     1      -9.055   8.891  65.754  1.00  0.00    -0.276 C  
HETATM   18  C   UNL     1      -8.783   7.751  65.073  1.00  0.00     0.105 C  
BRANCH  17  19
HETATM   19  C   UNL     1      -9.712  10.009  65.107  1.00  0.00    -0.311 A  
HETATM   20  C   UNL     1      -9.431  10.489  63.842  1.00  0.00    -0.292 A  
HETATM   21  H2  UNL     1     -12.653  13.051  64.695  1.00  0.00     0.000 HD 
HETATM   22  S   UNL     1     -10.495  11.778  63.458  1.00  0.00    -0.465 SA 
HETATM   23  H1  UNL     1     -12.753  12.238  66.251  1.00  0.00     0.000 HD 
HETATM   24  N   UNL     1     -10.750  10.662  65.754  1.00  0.00    -0.094 NA 
HETATM   25  N   UNL     1     -12.301  12.348  65.344  1.00  0.00    -0.614 NA 
HETATM   26  C   UNL     1     -11.256  11.593  64.983  1.00  0.00    -0.210 A  
ENDBRANCH  17  19
BRANCH  18  27
HETATM   27  C   UNL     1      -8.252   6.416  65.530  1.00  0.00    -0.142 C  
HETATM   28  O   UNL     1      -9.186   5.446  67.541  1.00  0.00    -0.111 OA 
HETATM   29  C   UNL     1      -9.213   5.546  66.322  1.00  0.00    -0.155 C  
HETATM   30  O   UNL     1     -10.095   4.861  65.565  1.00  0.00    -0.148 OA 
ENDBRANCH  18  27
ENDBRANCH  15  17
ENDBRANCH  11  13
TORSDOF 4
ENDMDL
MODEL       65
REMARK 921   NORMALIZED FREE ENERGY PREDICTED BY IDOCK:   -5.99 KCAL/MOL
REMARK 922        TOTAL FREE ENERGY PREDICTED BY IDOCK:   -7.94 KCAL/MOL
REMARK 923 INTER-LIGAND FREE ENERGY PREDICTED BY IDOCK:   -6.90 KCAL/MOL
REMARK 924 INTRA-LIGAND FREE ENERGY PREDICTED BY IDOCK:   -1.04 KCAL/MOL
REMARK 927      BINDING AFFINITY PREDICTED BY RF-SCORE:    0.00 PKD
ROOT
HETATM    1  CE  UNL     1      -8.738   8.265  68.157  1.00  0.00    -0.136 C  
HETATM    2  SD  UNL     1     -10.294   8.040  69.056  1.00  0.00    -0.204 SA 
HETATM    3  CG  UNL     1     -10.164   6.231  69.106  1.00  0.00    -0.187 C  
HETATM    4  CB  UNL     1      -9.797   5.640  67.778  1.00  0.00    -0.153 C  
HETATM    5  CA  UNL     1      -9.214   6.277  66.740  1.00  0.00    -0.137 C  
HETATM    6  N   UNL     1      -8.832   7.576  66.880  1.00  0.00    -0.131 N  
HETATM    7  C   UNL     1      -9.083   5.486  65.471  1.00  0.00    -0.091 C  
HETATM    8  C   UNL     1      -8.460   8.613  66.111  1.00  0.00    -0.133 C  
HETATM    9  OXT UNL     1      -9.455   4.321  65.377  1.00  0.00    -0.153 OA 
HETATM   10  O   UNL     1      -8.499   6.102  64.426  1.00  0.00    -0.056 OA 
HETATM   11  CA  UNL     1      -8.549   9.591  67.346  1.00  0.00    -0.125 C  
HETATM   12  O   UNL     1      -8.264   8.655  64.917  1.00  0.00    -0.141 OA 
ENDROOT
BRANCH  11  13
HETATM   13  N   UNL     1      -9.681  10.555  67.283  1.00  0.00    -0.166 N  
HETATM   14  H   UNL     1     -10.628  10.185  67.364  1.00  0.00     0.000 HD 
HETATM   15  C   UNL     1      -9.533  11.910  67.123  1.00  0.00    -0.178 C  
HETATM   16  O   UNL     1      -8.431  12.414  66.904  1.00  0.00    -0.190 OA 
BRANCH  15  17
HETATM   17  C   UNL     1     -10.786  12.756  67.311  1.00  0.00    -0.277 C  
HETATM   18  C   UNL     1     -11.297  13.443  66.259  1.00  0.00    -0.329 C  
BRANCH  17  19
HETATM   19  C   UNL     1     -11.418  12.806  68.614  1.00  0.00    -0.303 A  
HETATM   20  C   UNL     1     -11.889  13.945  69.240  1.00  0.00    -0.348 A  
HETATM   21  H2  UNL     1     -13.154  11.167  72.132  1.00  0.00     0.000 HD 
HETATM   22  S   UNL     1     -12.619  13.527  70.735  1.00  0.00    -0.270 SA 
HETATM   23  H1  UNL     1     -12.445   9.929  71.103  1.00  0.00     0.000 HD 
HETATM   24  N   UNL     1     -11.633  11.630  69.317  1.00  0.00    -0.291 NA 
HETATM   25  N   UNL     1     -12.650  10.911  71.282  1.00  0.00    -0.407 NA 
HETATM   26  C   UNL     1     -12.275  11.875  70.433  1.00  0.00    -0.314 A  
ENDBRANCH  17  19
BRANCH  18  27
HETATM   27  C   UNL     1     -10.930  13.450  64.797  1.00  0.00    -0.371 C  
HETATM   28  O   UNL     1     -12.432  12.368  63.238  1.00  0.00    -0.604 OA 
HETATM   29  C   UNL     1     -12.085  13.391  63.813  1.00  0.00    -0.456 C  
HETATM   30  O   UNL     1     -12.693  14.576  63.598  1.00  0.00    -0.754 OA 
ENDBRANCH  18  27
ENDBRANCH  15  17
ENDBRANCH  11  13
TORSDOF 4
ENDMDL
MODEL       66
REMARK 921   NORMALIZED FREE ENERGY PREDICTED BY IDOCK:   -5.97 KCAL/MOL
REMARK 922        TOTAL FREE ENERGY PREDICTED BY IDOCK:   -7.92 KCAL/MOL
REMARK 923 INTER-LIGAND FREE ENERGY PREDICTED BY IDOCK:   -7.07 KCAL/MOL
REMARK 924 INTRA-LIGAND FREE ENERGY PREDICTED BY IDOCK:   -0.85 KCAL/MOL
REMARK 927      BINDING AFFINITY PREDICTED BY RF-SCORE:    0.00 PKD
ROOT
HETATM    1  CE  UNL     1     -12.672  13.529  69.956  1.00  0.00     0.054 C  
HETATM    2  SD  UNL     1     -12.448  11.912  70.740  1.00  0.00    -0.211 SA 
HETATM    3  CG  UNL     1     -13.530  12.290  72.146  1.00  0.00    -0.327 C  
HETATM    4  CB  UNL     1     -13.245  13.632  72.752  1.00  0.00    -0.431 C  
HETATM    5  CA  UNL     1     -12.602  14.665  72.168  1.00  0.00    -0.327 C  
HETATM    6  N   UNL     1     -12.207  14.561  70.869  1.00  0.00    -0.316 N  
HETATM    7  C   UNL     1     -12.326  15.850  73.046  1.00  0.00    -0.498 C  
HETATM    8  C   UNL     1     -11.390  15.184  70.003  1.00  0.00    -0.277 C  
HETATM    9  OXT UNL     1     -12.682  15.902  74.219  1.00  0.00    -0.598 OA 
HETATM   10  O   UNL     1     -11.689  16.893  72.480  1.00  0.00    -0.305 OA 
HETATM   11  CA  UNL     1     -11.568  14.016  68.958  1.00  0.00    -0.306 C  
HETATM   12  O   UNL     1     -10.747  16.200  70.147  1.00  0.00    -0.321 OA 
ENDROOT
BRANCH  11  13
HETATM   13  N   UNL     1     -10.357  13.173  68.770  1.00  0.00    -0.393 N  
HETATM   14  H   UNL     1      -9.922  12.770  69.600  1.00  0.00     0.000 HD 
HETATM   15  C   UNL     1      -9.786  12.902  67.551  1.00  0.00    -0.208 C  
HETATM   16  O   UNL     1     -10.185  13.444  66.521  1.00  0.00    -0.270 OA 
BRANCH  15  17
HETATM   17  C   UNL     1      -8.694  11.839  67.534  1.00  0.00    -0.159 C  
HETATM   18  C   UNL     1      -8.904  10.670  66.879  1.00  0.00    -0.143 C  
BRANCH  17  19
HETATM   19  C   UNL     1      -7.441  12.100  68.215  1.00  0.00    -0.107 A  
HETATM   20  C   UNL     1      -6.494  13.032  67.833  1.00  0.00    -0.130 A  
HETATM   21  H2  UNL     1      -4.610  11.751  71.367  1.00  0.00     0.000 HD 
HETATM   22  S   UNL     1      -5.205  13.047  68.964  1.00  0.00    -0.069 SA 
HETATM   23  H1  UNL     1      -5.970  10.655  71.572  1.00  0.00     0.000 HD 
HETATM   24  N   UNL     1      -7.138  11.413  69.381  1.00  0.00    -0.099 NA 
HETATM   25  N   UNL     1      -5.495  11.374  71.028  1.00  0.00    -0.288 NA 
HETATM   26  C   UNL     1      -6.003  11.838  69.879  1.00  0.00    -0.146 A  
ENDBRANCH  17  19
BRANCH  18  27
HETATM   27  C   UNL     1     -10.031  10.212  65.990  1.00  0.00    -0.322 C  
HETATM   28  O   UNL     1     -10.388  11.386  63.904  1.00  0.00    -0.308 OA 
HETATM   29  C   UNL     1      -9.857  10.460  64.502  1.00  0.00    -0.339 C  
HETATM   30  O   UNL     1      -9.081   9.552  63.874  1.00  0.00    -0.230 OA 
ENDBRANCH  18  27
ENDBRANCH  15  17
ENDBRANCH  11  13
TORSDOF 4
ENDMDL
MODEL       67
REMARK 921   NORMALIZED FREE ENERGY PREDICTED BY IDOCK:   -5.91 KCAL/MOL
REMARK 922        TOTAL FREE ENERGY PREDICTED BY IDOCK:   -7.84 KCAL/MOL
REMARK 923 INTER-LIGAND FREE ENERGY PREDICTED BY IDOCK:   -6.43 KCAL/MOL
REMARK 924 INTRA-LIGAND FREE ENERGY PREDICTED BY IDOCK:   -1.41 KCAL/MOL
REMARK 927      BINDING AFFINITY PREDICTED BY RF-SCORE:    0.00 PKD
ROOT
HETATM    1  CE  UNL     1     -12.268  12.242  69.295  1.00  0.00    -0.044 C  
HETATM    2  SD  UNL     1     -11.627  10.840  70.244  1.00  0.00    -0.344 SA 
HETATM    3  CG  UNL     1     -12.926  10.924  71.508  1.00  0.00    -0.451 C  
HETATM    4  CB  UNL     1     -13.159  12.318  72.007  1.00  0.00    -0.461 C  
HETATM    5  CA  UNL     1     -12.819  13.468  71.388  1.00  0.00    -0.355 C  
HETATM    6  N   UNL     1     -12.267  13.422  70.145  1.00  0.00    -0.332 N  
HETATM    7  C   UNL     1     -13.040  14.729  72.172  1.00  0.00    -0.341 C  
HETATM    8  C   UNL     1     -11.600  14.227  69.299  1.00  0.00    -0.306 C  
HETATM    9  OXT UNL     1     -13.525  14.731  73.299  1.00  0.00    -0.561 OA 
HETATM   10  O   UNL     1     -12.712  15.888  71.568  1.00  0.00    -0.460 OA 
HETATM   11  CA  UNL     1     -11.274  13.004  68.356  1.00  0.00    -0.269 C  
HETATM   12  O   UNL     1     -11.339  15.405  69.402  1.00  0.00    -0.265 OA 
ENDROOT
BRANCH  11  13
HETATM   13  N   UNL     1      -9.843  12.598  68.356  1.00  0.00    -0.289 N  
HETATM   14  H   UNL     1      -9.390  12.441  69.256  1.00  0.00     0.000 HD 
HETATM   15  C   UNL     1      -9.091  12.419  67.221  1.00  0.00    -0.187 C  
HETATM   16  O   UNL     1      -9.534  12.700  66.107  1.00  0.00    -0.239 OA 
BRANCH  15  17
HETATM   17  C   UNL     1      -7.719  11.783  67.408  1.00  0.00    -0.151 C  
HETATM   18  C   UNL     1      -6.634  12.572  67.604  1.00  0.00    -0.136 C  
BRANCH  17  19
HETATM   19  C   UNL     1      -7.599  10.339  67.382  1.00  0.00    -0.094 A  
HETATM   20  C   UNL     1      -6.460   9.630  67.050  1.00  0.00    -0.066 A  
HETATM   21  H2  UNL     1      -8.878   6.342  68.064  1.00  0.00     0.000 HD 
HETATM   22  S   UNL     1      -6.752   7.948  67.220  1.00  0.00    -0.070 SA 
HETATM   23  H1  UNL     1     -10.146   7.512  68.403  1.00  0.00     0.000 HD 
HETATM   24  N   UNL     1      -8.679   9.554  67.758  1.00  0.00    -0.116 NA 
HETATM   25  N   UNL     1      -9.195   7.311  68.096  1.00  0.00    -0.133 NA 
HETATM   26  C   UNL     1      -8.352   8.286  67.735  1.00  0.00    -0.128 A  
ENDBRANCH  17  19
BRANCH  18  27
HETATM   27  C   UNL     1      -6.504  14.059  67.815  1.00  0.00    -0.181 C  
HETATM   28  O   UNL     1      -7.936  15.106  69.462  1.00  0.00    -0.215 OA 
HETATM   29  C   UNL     1      -6.865  14.576  69.197  1.00  0.00    -0.123 C  
HETATM   30  O   UNL     1      -5.891  14.427  70.118  1.00  0.00    -0.117 OA 
ENDBRANCH  18  27
ENDBRANCH  15  17
ENDBRANCH  11  13
TORSDOF 4
ENDMDL
MODEL       68
REMARK 921   NORMALIZED FREE ENERGY PREDICTED BY IDOCK:   -5.86 KCAL/MOL
REMARK 922        TOTAL FREE ENERGY PREDICTED BY IDOCK:   -7.78 KCAL/MOL
REMARK 923 INTER-LIGAND FREE ENERGY PREDICTED BY IDOCK:   -8.03 KCAL/MOL
REMARK 924 INTRA-LIGAND FREE ENERGY PREDICTED BY IDOCK:    0.24 KCAL/MOL
REMARK 927      BINDING AFFINITY PREDICTED BY RF-SCORE:    0.00 PKD
ROOT
HETATM    1  CE  UNL     1     -10.235   9.445  66.518  1.00  0.00    -0.238 C  
HETATM    2  SD  UNL     1     -10.024  10.490  65.054  1.00  0.00    -0.329 SA 
HETATM    3  CG  UNL     1      -8.598   9.561  64.426  1.00  0.00    -0.195 C  
HETATM    4  CB  UNL     1      -7.576   9.282  65.487  1.00  0.00    -0.091 C  
HETATM    5  CA  UNL     1      -7.770   9.294  66.822  1.00  0.00    -0.094 C  
HETATM    6  N   UNL     1      -9.021   9.509  67.316  1.00  0.00    -0.130 N  
HETATM    7  C   UNL     1      -6.543   9.117  67.668  1.00  0.00    -0.064 C  
HETATM    8  C   UNL     1      -9.612   9.822  68.482  1.00  0.00    -0.149 C  
HETATM    9  OXT UNL     1      -5.428   8.942  67.188  1.00  0.00    -0.040 OA 
HETATM   10  O   UNL     1      -6.717   9.121  69.004  1.00  0.00    -0.053 OA 
HETATM   11  CA  UNL     1     -10.989  10.054  67.747  1.00  0.00    -0.249 C  
HETATM   12  O   UNL     1      -9.126   9.941  69.584  1.00  0.00    -0.201 OA 
ENDROOT
BRANCH  11  13
HETATM   13  N   UNL     1     -11.417  11.478  67.685  1.00  0.00    -0.294 N  
HETATM   14  H   UNL     1     -12.390  11.675  67.451  1.00  0.00     0.000 HD 
HETATM   15  C   UNL     1     -10.586  12.544  67.923  1.00  0.00    -0.218 C  
HETATM   16  O   UNL     1      -9.378  12.390  68.098  1.00  0.00    -0.200 OA 
BRANCH  15  17
HETATM   17  C   UNL     1     -11.252  13.911  68.040  1.00  0.00    -0.295 C  
HETATM   18  C   UNL     1     -11.329  14.715  66.952  1.00  0.00    -0.361 C  
BRANCH  17  19
HETATM   19  C   UNL     1     -11.800  14.324  69.316  1.00  0.00    -0.330 A  
HETATM   20  C   UNL     1     -11.959  15.629  69.742  1.00  0.00    -0.354 A  
HETATM   21  H2  UNL     1     -13.736  13.752  73.058  1.00  0.00     0.000 HD 
HETATM   22  S   UNL     1     -12.708  15.651  71.285  1.00  0.00    -0.453 SA 
HETATM   23  H1  UNL     1     -13.387  12.228  72.252  1.00  0.00     0.000 HD 
HETATM   24  N   UNL     1     -12.263  13.366  70.206  1.00  0.00    -0.346 NA 
HETATM   25  N   UNL     1     -13.342  13.247  72.264  1.00  0.00    -0.526 NA 
HETATM   26  C   UNL     1     -12.782  13.939  71.265  1.00  0.00    -0.367 A  
ENDBRANCH  17  19
BRANCH  18  27
HETATM   27  C   UNL     1     -10.978  14.476  65.505  1.00  0.00    -0.337 C  
HETATM   28  O   UNL     1     -12.716  14.769  63.846  1.00  0.00    -0.794 OA 
HETATM   29  C   UNL     1     -11.786  15.252  64.480  1.00  0.00    -0.295 C  
HETATM   30  O   UNL     1     -11.380  16.525  64.299  1.00  0.00    -1.020 OA 
ENDBRANCH  18  27
ENDBRANCH  15  17
ENDBRANCH  11  13
TORSDOF 4
ENDMDL
MODEL       69
REMARK 921   NORMALIZED FREE ENERGY PREDICTED BY IDOCK:   -5.85 KCAL/MOL
REMARK 922        TOTAL FREE ENERGY PREDICTED BY IDOCK:   -7.76 KCAL/MOL
REMARK 923 INTER-LIGAND FREE ENERGY PREDICTED BY IDOCK:   -6.78 KCAL/MOL
REMARK 924 INTRA-LIGAND FREE ENERGY PREDICTED BY IDOCK:   -0.99 KCAL/MOL
REMARK 927      BINDING AFFINITY PREDICTED BY RF-SCORE:    0.00 PKD
ROOT
HETATM    1  CE  UNL     1     -11.041  14.327  70.423  1.00  0.00     0.161 C  
HETATM    2  SD  UNL     1     -12.534  15.349  70.348  1.00  0.00    -0.375 SA 
HETATM    3  CG  UNL     1     -13.399  14.425  71.648  1.00  0.00    -0.363 C  
HETATM    4  CB  UNL     1     -13.313  12.940  71.457  1.00  0.00    -0.260 C  
HETATM    5  CA  UNL     1     -12.407  12.269  70.715  1.00  0.00    -0.290 C  
HETATM    6  N   UNL     1     -11.398  12.953  70.109  1.00  0.00     0.097 N  
HETATM    7  C   UNL     1     -12.632  10.791  70.580  1.00  0.00    -0.336 C  
HETATM    8  C   UNL     1     -10.473  12.762  69.153  1.00  0.00     0.123 C  
HETATM    9  OXT UNL     1     -13.563  10.210  71.127  1.00  0.00    -0.284 OA 
HETATM   10  O   UNL     1     -11.734  10.103  69.848  1.00  0.00    -0.237 OA 
HETATM   11  CA  UNL     1     -10.112  14.298  69.164  1.00  0.00    -0.055 C  
HETATM   12  O   UNL     1     -10.201  11.757  68.535  1.00  0.00    -0.203 OA 
ENDROOT
BRANCH  11  13
HETATM   13  N   UNL     1     -10.541  15.036  67.945  1.00  0.00    -0.254 N  
HETATM   14  H   UNL     1     -11.411  15.566  67.990  1.00  0.00     0.000 HD 
HETATM   15  C   UNL     1      -9.842  15.050  66.765  1.00  0.00    -0.243 C  
HETATM   16  O   UNL     1      -8.846  14.344  66.600  1.00  0.00    -0.232 OA 
BRANCH  15  17
HETATM   17  C   UNL     1     -10.314  16.041  65.707  1.00  0.00    -0.398 C  
HETATM   18  C   UNL     1     -11.034  15.599  64.647  1.00  0.00    -0.344 C  
BRANCH  17  19
HETATM   19  C   UNL     1      -9.990  17.445  65.858  1.00  0.00    -0.149 A  
HETATM   20  C   UNL     1     -10.903  18.478  65.957  1.00  0.00    -0.034 A  
HETATM   21  H2  UNL     1      -7.422  20.771  66.503  1.00  0.00     0.000 HD 
HETATM   22  S   UNL     1     -10.078  19.963  66.191  1.00  0.00    -0.482 SA 
HETATM   23  H1  UNL     1      -6.528  19.266  66.328  1.00  0.00     0.000 HD 
HETATM   24  N   UNL     1      -8.664  17.835  65.963  1.00  0.00    -0.514 NA 
HETATM   25  N   UNL     1      -7.418  19.763  66.344  1.00  0.00    -0.268 NA 
HETATM   26  C   UNL     1      -8.582  19.128  66.163  1.00  0.00    -0.223 A  
ENDBRANCH  17  19
BRANCH  18  27
HETATM   27  C   UNL     1     -11.620  14.246  64.330  1.00  0.00    -0.299 C  
HETATM   28  O   UNL     1     -12.153  12.773  66.175  1.00  0.00    -0.455 OA 
HETATM   29  C   UNL     1     -12.520  13.638  65.390  1.00  0.00    -0.499 C  
HETATM   30  O   UNL     1     -13.783  14.112  65.385  1.00  0.00    -0.363 OA 
ENDBRANCH  18  27
ENDBRANCH  15  17
ENDBRANCH  11  13
TORSDOF 4
ENDMDL
MODEL       70
REMARK 921   NORMALIZED FREE ENERGY PREDICTED BY IDOCK:   -5.79 KCAL/MOL
REMARK 922        TOTAL FREE ENERGY PREDICTED BY IDOCK:   -7.69 KCAL/MOL
REMARK 923 INTER-LIGAND FREE ENERGY PREDICTED BY IDOCK:   -6.39 KCAL/MOL
REMARK 924 INTRA-LIGAND FREE ENERGY PREDICTED BY IDOCK:   -1.30 KCAL/MOL
REMARK 927      BINDING AFFINITY PREDICTED BY RF-SCORE:    0.00 PKD
ROOT
HETATM    1  CE  UNL     1      -7.872  10.990  66.356  1.00  0.00    -0.150 C  
HETATM    2  SD  UNL     1      -6.880  11.637  67.727  1.00  0.00    -0.087 SA 
HETATM    3  CG  UNL     1      -5.618  10.339  67.608  1.00  0.00    -0.044 C  
HETATM    4  CB  UNL     1      -6.209   8.966  67.494  1.00  0.00    -0.052 C  
HETATM    5  CA  UNL     1      -7.461   8.652  67.100  1.00  0.00    -0.088 C  
HETATM    6  N   UNL     1      -8.300   9.640  66.685  1.00  0.00    -0.123 N  
HETATM    7  C   UNL     1      -7.842   7.204  67.209  1.00  0.00    -0.111 C  
HETATM    8  C   UNL     1      -9.610   9.826  66.447  1.00  0.00    -0.200 C  
HETATM    9  OXT UNL     1      -7.064   6.343  67.604  1.00  0.00    -0.079 OA 
HETATM   10  O   UNL     1      -9.087   6.871  66.816  1.00  0.00    -0.134 OA 
HETATM   11  CA  UNL     1      -9.386  11.381  66.302  1.00  0.00    -0.212 C  
HETATM   12  O   UNL     1     -10.518   9.025  66.470  1.00  0.00    -0.234 OA 
ENDROOT
BRANCH  11  13
HETATM   13  N   UNL     1      -9.953  12.188  67.416  1.00  0.00    -0.198 N  
HETATM   14  H   UNL     1      -9.327  12.466  68.171  1.00  0.00     0.000 HD 
HETATM   15  C   UNL     1     -11.266  12.581  67.494  1.00  0.00    -0.291 C  
HETATM   16  O   UNL     1     -12.103  12.187  66.682  1.00  0.00    -0.622 OA 
BRANCH  15  17
HETATM   17  C   UNL     1     -11.609  13.589  68.585  1.00  0.00    -0.365 C  
HETATM   18  C   UNL     1     -11.350  14.906  68.387  1.00  0.00    -0.320 C  
BRANCH  17  19
HETATM   19  C   UNL     1     -12.214  13.123  69.816  1.00  0.00    -0.202 A  
HETATM   20  C   UNL     1     -12.190  11.823  70.286  1.00  0.00    -0.299 A  
HETATM   21  H2  UNL     1     -14.169  13.555  73.566  1.00  0.00     0.000 HD 
HETATM   22  S   UNL     1     -12.971  11.741  71.810  1.00  0.00    -0.251 SA 
HETATM   23  H1  UNL     1     -14.049  15.081  72.701  1.00  0.00     0.000 HD 
HETATM   24  N   UNL     1     -12.848  14.028  70.654  1.00  0.00    -0.292 NA 
HETATM   25  N   UNL     1     -13.874  14.078  72.742  1.00  0.00    -0.676 NA 
HETATM   26  C   UNL     1     -13.266  13.428  71.742  1.00  0.00    -0.407 A  
ENDBRANCH  17  19
BRANCH  18  27
HETATM   27  C   UNL     1     -10.872  15.659  67.172  1.00  0.00    -0.297 C  
HETATM   28  O   UNL     1      -8.885  17.025  67.386  1.00  0.00    -0.201 OA 
HETATM   29  C   UNL     1      -9.382  15.943  67.101  1.00  0.00    -0.212 C  
HETATM   30  O   UNL     1      -8.638  14.904  66.668  1.00  0.00    -0.244 OA 
ENDBRANCH  18  27
ENDBRANCH  15  17
ENDBRANCH  11  13
TORSDOF 4
ENDMDL
MODEL       71
REMARK 921   NORMALIZED FREE ENERGY PREDICTED BY IDOCK:   -5.77 KCAL/MOL
REMARK 922        TOTAL FREE ENERGY PREDICTED BY IDOCK:   -7.67 KCAL/MOL
REMARK 923 INTER-LIGAND FREE ENERGY PREDICTED BY IDOCK:   -6.81 KCAL/MOL
REMARK 924 INTRA-LIGAND FREE ENERGY PREDICTED BY IDOCK:   -0.86 KCAL/MOL
REMARK 927      BINDING AFFINITY PREDICTED BY RF-SCORE:    0.00 PKD
ROOT
HETATM    1  CE  UNL     1     -11.205  11.232  68.651  1.00  0.00    -0.250 C  
HETATM    2  SD  UNL     1      -9.414  10.981  68.554  1.00  0.00    -0.191 SA 
HETATM    3  CG  UNL     1      -9.496   9.225  69.001  1.00  0.00    -0.155 C  
HETATM    4  CB  UNL     1     -10.378   8.970  70.187  1.00  0.00    -0.237 C  
HETATM    5  CA  UNL     1     -11.346   9.780  70.666  1.00  0.00    -0.330 C  
HETATM    6  N   UNL     1     -11.646  10.930  70.004  1.00  0.00    -0.312 N  
HETATM    7  C   UNL     1     -11.987   9.350  71.954  1.00  0.00    -0.346 C  
HETATM    8  C   UNL     1     -12.314  12.078  70.213  1.00  0.00    -0.195 C  
HETATM    9  OXT UNL     1     -11.679   8.313  72.533  1.00  0.00    -0.386 OA 
HETATM   10  O   UNL     1     -12.959  10.142  72.445  1.00  0.00    -0.314 OA 
HETATM   11  CA  UNL     1     -11.726  12.690  68.882  1.00  0.00    -0.325 C  
HETATM   12  O   UNL     1     -12.989  12.414  71.160  1.00  0.00    -0.268 OA 
ENDROOT
BRANCH  11  13
HETATM   13  N   UNL     1     -10.732  13.776  69.095  1.00  0.00    -0.400 N  
HETATM   14  H   UNL     1     -10.382  13.924  70.042  1.00  0.00     0.000 HD 
HETATM   15  C   UNL     1     -10.254  14.592  68.100  1.00  0.00    -0.230 C  
HETATM   16  O   UNL     1     -10.714  14.548  66.959  1.00  0.00    -0.283 OA 
BRANCH  15  17
HETATM   17  C   UNL     1      -9.077  15.489  68.464  1.00  0.00    -0.196 C  
HETATM   18  C   UNL     1      -9.243  16.834  68.497  1.00  0.00    -0.243 C  
BRANCH  17  19
HETATM   19  C   UNL     1      -7.798  14.886  68.778  1.00  0.00    -0.149 A  
HETATM   20  C   UNL     1      -6.880  14.415  67.858  1.00  0.00    -0.167 A  
HETATM   21  H2  UNL     1      -4.591  13.727  71.318  1.00  0.00     0.000 HD 
HETATM   22  S   UNL     1      -5.480  13.847  68.672  1.00  0.00    -0.093 SA 
HETATM   23  H1  UNL     1      -5.951  14.379  72.222  1.00  0.00     0.000 HD 
HETATM   24  N   UNL     1      -7.391  14.789  70.101  1.00  0.00     0.083 NA 
HETATM   25  N   UNL     1      -5.532  14.120  71.330  1.00  0.00    -0.177 NA 
HETATM   26  C   UNL     1      -6.185  14.283  70.172  1.00  0.00    -0.161 A  
ENDBRANCH  17  19
BRANCH  18  27
HETATM   27  C   UNL     1     -10.474  17.693  68.359  1.00  0.00    -0.360 C  
HETATM   28  O   UNL     1     -10.336  20.007  69.056  1.00  0.00    -0.382 OA 
HETATM   29  C   UNL     1     -10.238  19.179  68.159  1.00  0.00    -0.403 C  
HETATM   30  O   UNL     1      -9.935  19.528  66.891  1.00  0.00    -0.336 OA 
ENDBRANCH  18  27
ENDBRANCH  15  17
ENDBRANCH  11  13
TORSDOF 4
ENDMDL
MODEL       72
REMARK 921   NORMALIZED FREE ENERGY PREDICTED BY IDOCK:   -5.76 KCAL/MOL
REMARK 922        TOTAL FREE ENERGY PREDICTED BY IDOCK:   -7.66 KCAL/MOL
REMARK 923 INTER-LIGAND FREE ENERGY PREDICTED BY IDOCK:   -6.43 KCAL/MOL
REMARK 924 INTRA-LIGAND FREE ENERGY PREDICTED BY IDOCK:   -1.23 KCAL/MOL
REMARK 927      BINDING AFFINITY PREDICTED BY RF-SCORE:    0.00 PKD
ROOT
HETATM    1  CE  UNL     1     -10.548   9.917  71.039  1.00  0.00    -0.103 C  
HETATM    2  SD  UNL     1     -12.012  10.644  70.259  1.00  0.00    -0.364 SA 
HETATM    3  CG  UNL     1     -13.157  10.050  71.534  1.00  0.00    -0.433 C  
HETATM    4  CB  UNL     1     -12.943   8.606  71.877  1.00  0.00    -0.409 C  
HETATM    5  CA  UNL     1     -11.831   7.875  71.652  1.00  0.00    -0.288 C  
HETATM    6  N   UNL     1     -10.730   8.477  71.123  1.00  0.00    -0.223 N  
HETATM    7  C   UNL     1     -11.929   6.410  71.965  1.00  0.00    -0.326 C  
HETATM    8  C   UNL     1      -9.564   8.135  70.546  1.00  0.00    -0.170 C  
HETATM    9  OXT UNL     1     -12.945   5.899  72.425  1.00  0.00     0.110 OA 
HETATM   10  O   UNL     1     -10.827   5.666  71.752  1.00  0.00    -0.244 OA 
HETATM   11  CA  UNL     1      -9.302   9.636  70.134  1.00  0.00    -0.251 C  
HETATM   12  O   UNL     1      -9.077   7.039  70.387  1.00  0.00    -0.155 OA 
ENDROOT
BRANCH  11  13
HETATM   13  N   UNL     1      -9.410   9.896  68.673  1.00  0.00    -0.145 N  
HETATM   14  H   UNL     1      -9.940   9.234  68.108  1.00  0.00     0.000 HD 
HETATM   15  C   UNL     1      -8.842  10.972  68.037  1.00  0.00    -0.138 C  
HETATM   16  O   UNL     1      -8.095  11.749  68.632  1.00  0.00    -0.148 OA 
BRANCH  15  17
HETATM   17  C   UNL     1      -9.251  11.195  66.586  1.00  0.00    -0.188 C  
HETATM   18  C   UNL     1      -8.545  10.604  65.590  1.00  0.00    -0.187 C  
BRANCH  17  19
HETATM   19  C   UNL     1     -10.397  12.033  66.294  1.00  0.00    -0.221 A  
HETATM   20  C   UNL     1     -10.671  13.258  66.872  1.00  0.00    -0.271 A  
HETATM   21  H2  UNL     1     -13.886  13.201  64.164  1.00  0.00     0.000 HD 
HETATM   22  S   UNL     1     -12.091  13.924  66.180  1.00  0.00    -0.462 SA 
HETATM   23  H1  UNL     1     -13.284  11.633  63.642  1.00  0.00     0.000 HD 
HETATM   24  N   UNL     1     -11.306  11.637  65.324  1.00  0.00    -0.212 NA 
HETATM   25  N   UNL     1     -13.204  12.448  64.250  1.00  0.00    -0.729 NA 
HETATM   26  C   UNL     1     -12.226  12.555  65.158  1.00  0.00    -0.448 A  
ENDBRANCH  17  19
BRANCH  18  27
HETATM   27  C   UNL     1      -7.427   9.593  65.622  1.00  0.00    -0.101 C  
HETATM   28  O   UNL     1      -7.629   7.716  67.137  1.00  0.00    -0.099 OA 
HETATM   29  C   UNL     1      -7.811   8.179  66.018  1.00  0.00    -0.093 C  
HETATM   30  O   UNL     1      -8.352   7.450  65.020  1.00  0.00    -0.125 OA 
ENDBRANCH  18  27
ENDBRANCH  15  17
ENDBRANCH  11  13
TORSDOF 4
ENDMDL
MODEL       73
REMARK 921   NORMALIZED FREE ENERGY PREDICTED BY IDOCK:   -5.75 KCAL/MOL
REMARK 922        TOTAL FREE ENERGY PREDICTED BY IDOCK:   -7.65 KCAL/MOL
REMARK 923 INTER-LIGAND FREE ENERGY PREDICTED BY IDOCK:   -6.81 KCAL/MOL
REMARK 924 INTRA-LIGAND FREE ENERGY PREDICTED BY IDOCK:   -0.84 KCAL/MOL
REMARK 927      BINDING AFFINITY PREDICTED BY RF-SCORE:    0.00 PKD
ROOT
HETATM    1  CE  UNL     1      -8.327  16.463  68.578  1.00  0.00    -0.202 C  
HETATM    2  SD  UNL     1      -7.002  16.174  67.377  1.00  0.00    -0.199 SA 
HETATM    3  CG  UNL     1      -6.377  17.876  67.451  1.00  0.00    -0.159 C  
HETATM    4  CB  UNL     1      -7.470  18.898  67.357  1.00  0.00    -0.244 C  
HETATM    5  CA  UNL     1      -8.783  18.707  67.607  1.00  0.00    -0.272 C  
HETATM    6  N   UNL     1      -9.209  17.497  68.061  1.00  0.00    -0.268 N  
HETATM    7  C   UNL     1      -9.687  19.866  67.301  1.00  0.00    -0.387 C  
HETATM    8  C   UNL     1     -10.358  16.815  68.209  1.00  0.00    -0.319 C  
HETATM    9  OXT UNL     1      -9.269  20.937  66.876  1.00  0.00    -0.179 OA 
HETATM   10  O   UNL     1     -11.000  19.696  67.548  1.00  0.00    -0.419 OA 
HETATM   11  CA  UNL     1      -9.560  15.497  68.550  1.00  0.00    -0.203 C  
HETATM   12  O   UNL     1     -11.498  17.177  68.019  1.00  0.00     0.037 OA 
ENDROOT
BRANCH  11  13
HETATM   13  N   UNL     1      -9.623  14.453  67.492  1.00  0.00    -0.212 N  
HETATM   14  H   UNL     1      -9.127  14.629  66.618  1.00  0.00     0.000 HD 
HETATM   15  C   UNL     1     -10.304  13.269  67.617  1.00  0.00    -0.230 C  
HETATM   16  O   UNL     1     -11.017  13.038  68.594  1.00  0.00    -0.247 OA 
BRANCH  15  17
HETATM   17  C   UNL     1     -10.066  12.231  66.526  1.00  0.00    -0.232 C  
HETATM   18  C   UNL     1     -11.037  11.981  65.613  1.00  0.00    -0.361 C  
BRANCH  17  19
HETATM   19  C   UNL     1      -8.798  11.531  66.479  1.00  0.00    -0.190 A  
HETATM   20  C   UNL     1      -7.852  11.506  67.486  1.00  0.00    -0.133 A  
HETATM   21  H2  UNL     1      -5.906   8.880  64.841  1.00  0.00     0.000 HD 
HETATM   22  S   UNL     1      -6.540  10.502  67.027  1.00  0.00    -0.082 SA 
HETATM   23  H1  UNL     1      -7.269   9.126  63.758  1.00  0.00     0.000 HD 
HETATM   24  N   UNL     1      -8.476  10.769  65.366  1.00  0.00    -0.161 NA 
HETATM   25  N   UNL     1      -6.800   9.327  64.641  1.00  0.00    -0.089 NA 
HETATM   26  C   UNL     1      -7.328  10.163  65.544  1.00  0.00    -0.143 A  
ENDBRANCH  17  19
BRANCH  18  27
HETATM   27  C   UNL     1     -12.361  12.654  65.352  1.00  0.00    -0.499 C  
HETATM   28  O   UNL     1     -12.359  14.733  64.113  1.00  0.00    -0.669 OA 
HETATM   29  C   UNL     1     -12.444  13.512  64.102  1.00  0.00    -0.239 C  
HETATM   30  O   UNL     1     -12.648  12.817  62.964  1.00  0.00    -0.507 OA 
ENDBRANCH  18  27
ENDBRANCH  15  17
ENDBRANCH  11  13
TORSDOF 4
ENDMDL
MODEL       74
REMARK 921   NORMALIZED FREE ENERGY PREDICTED BY IDOCK:   -5.71 KCAL/MOL
REMARK 922        TOTAL FREE ENERGY PREDICTED BY IDOCK:   -7.60 KCAL/MOL
REMARK 923 INTER-LIGAND FREE ENERGY PREDICTED BY IDOCK:   -6.89 KCAL/MOL
REMARK 924 INTRA-LIGAND FREE ENERGY PREDICTED BY IDOCK:   -0.71 KCAL/MOL
REMARK 927      BINDING AFFINITY PREDICTED BY RF-SCORE:    0.00 PKD
ROOT
HETATM    1  CE  UNL     1      -8.898   8.646  67.145  1.00  0.00    -0.129 C  
HETATM    2  SD  UNL     1      -7.977   9.333  68.545  1.00  0.00    -0.102 SA 
HETATM    3  CG  UNL     1      -6.557   8.224  68.333  1.00  0.00    -0.060 C  
HETATM    4  CB  UNL     1      -6.964   6.794  68.137  1.00  0.00    -0.080 C  
HETATM    5  CA  UNL     1      -8.171   6.342  67.736  1.00  0.00    -0.118 C  
HETATM    6  N   UNL     1      -9.140   7.234  67.392  1.00  0.00    -0.121 N  
HETATM    7  C   UNL     1      -8.357   4.852  67.757  1.00  0.00    -0.104 C  
HETATM    8  C   UNL     1     -10.467   7.259  67.179  1.00  0.00    -0.324 C  
HETATM    9  OXT UNL     1      -7.465   4.079  68.090  1.00  0.00    -0.065 OA 
HETATM   10  O   UNL     1      -9.553   4.382  67.355  1.00  0.00    -0.162 OA 
HETATM   11  CA  UNL     1     -10.452   8.837  67.130  1.00  0.00    -0.283 C  
HETATM   12  O   UNL     1     -11.261   6.346  67.159  1.00  0.00    -0.370 OA 
ENDROOT
BRANCH  11  13
HETATM   13  N   UNL     1     -11.100   9.491  68.298  1.00  0.00    -0.497 N  
HETATM   14  H   UNL     1     -11.436   8.894  69.054  1.00  0.00     0.000 HD 
HETATM   15  C   UNL     1     -11.277  10.846  68.424  1.00  0.00    -0.285 C  
HETATM   16  O   UNL     1     -11.002  11.617  67.505  1.00  0.00    -0.229 OA 
BRANCH  15  17
HETATM   17  C   UNL     1     -11.749  11.345  69.785  1.00  0.00    -0.418 C  
HETATM   18  C   UNL     1     -11.916  12.675  69.991  1.00  0.00    -0.377 C  
BRANCH  17  19
HETATM   19  C   UNL     1     -12.021  10.385  70.836  1.00  0.00    -0.377 A  
HETATM   20  C   UNL     1     -13.258  10.132  71.398  1.00  0.00    -0.380 A  
HETATM   21  H2  UNL     1     -11.094   7.199  73.493  1.00  0.00     0.000 HD 
HETATM   22  S   UNL     1     -13.124   8.873  72.555  1.00  0.00    -0.279 SA 
HETATM   23  H1  UNL     1      -9.679   7.760  72.611  1.00  0.00     0.000 HD 
HETATM   24  N   UNL     1     -10.992   9.595  71.325  1.00  0.00    -0.359 NA 
HETATM   25  N   UNL     1     -10.676   7.835  72.815  1.00  0.00    -0.326 NA 
HETATM   26  C   UNL     1     -11.450   8.747  72.214  1.00  0.00    -0.306 A  
ENDBRANCH  17  19
BRANCH  18  27
HETATM   27  C   UNL     1     -11.846  13.849  69.049  1.00  0.00    -0.397 C  
HETATM   28  O   UNL     1     -10.826  15.893  69.847  1.00  0.00    -0.277 OA 
HETATM   29  C   UNL     1     -10.701  14.821  69.270  1.00  0.00    -0.256 C  
HETATM   30  O   UNL     1      -9.523  14.420  68.750  1.00  0.00    -0.205 OA 
ENDBRANCH  18  27
ENDBRANCH  15  17
ENDBRANCH  11  13
TORSDOF 4
ENDMDL
MODEL       75
REMARK 921   NORMALIZED FREE ENERGY PREDICTED BY IDOCK:   -5.70 KCAL/MOL
REMARK 922        TOTAL FREE ENERGY PREDICTED BY IDOCK:   -7.59 KCAL/MOL
REMARK 923 INTER-LIGAND FREE ENERGY PREDICTED BY IDOCK:   -6.59 KCAL/MOL
REMARK 924 INTRA-LIGAND FREE ENERGY PREDICTED BY IDOCK:   -1.00 KCAL/MOL
REMARK 927      BINDING AFFINITY PREDICTED BY RF-SCORE:    0.00 PKD
ROOT
HETATM    1  CE  UNL     1      -9.299   9.726  70.002  1.00  0.00    -0.235 C  
HETATM    2  SD  UNL     1     -11.044  10.033  70.380  1.00  0.00    -0.344 SA 
HETATM    3  CG  UNL     1     -11.402   8.302  70.788  1.00  0.00    -0.266 C  
HETATM    4  CB  UNL     1     -10.856   7.343  69.773  1.00  0.00    -0.246 C  
HETATM    5  CA  UNL     1      -9.870   7.580  68.882  1.00  0.00    -0.159 C  
HETATM    6  N   UNL     1      -9.219   8.775  68.905  1.00  0.00    -0.141 N  
HETATM    7  C   UNL     1      -9.611   6.491  67.882  1.00  0.00    -0.118 C  
HETATM    8  C   UNL     1      -8.399   9.500  68.125  1.00  0.00    -0.118 C  
HETATM    9  OXT UNL     1     -10.230   5.432  67.880  1.00  0.00    -0.170 OA 
HETATM   10  O   UNL     1      -8.627   6.707  66.987  1.00  0.00    -0.112 OA 
HETATM   11  CA  UNL     1      -8.563  10.750  69.074  1.00  0.00    -0.138 C  
HETATM   12  O   UNL     1      -7.884   9.208  67.069  1.00  0.00    -0.100 OA 
ENDROOT
BRANCH  11  13
HETATM   13  N   UNL     1      -9.348  11.867  68.483  1.00  0.00    -0.320 N  
HETATM   14  H   UNL     1     -10.349  11.900  68.673  1.00  0.00     0.000 HD 
HETATM   15  C   UNL     1      -8.811  12.857  67.698  1.00  0.00    -0.187 C  
HETATM   16  O   UNL     1      -7.636  12.819  67.332  1.00  0.00    -0.153 OA 
BRANCH  15  17
HETATM   17  C   UNL     1      -9.721  14.036  67.376  1.00  0.00    -0.233 C  
HETATM   18  C   UNL     1      -9.784  15.089  68.229  1.00  0.00    -0.215 C  
BRANCH  17  19
HETATM   19  C   UNL     1     -10.500  14.016  66.154  1.00  0.00    -0.297 A  
HETATM   20  C   UNL     1     -10.908  12.884  65.475  1.00  0.00    -0.274 A  
HETATM   21  H2  UNL     1     -12.843  15.710  63.037  1.00  0.00     0.000 HD 
HETATM   22  S   UNL     1     -11.864  13.329  64.122  1.00  0.00    -0.464 SA 
HETATM   23  H1  UNL     1     -12.162  16.938  64.097  1.00  0.00     0.000 HD 
HETATM   24  N   UNL     1     -10.938  15.210  65.601  1.00  0.00    -0.345 NA 
HETATM   25  N   UNL     1     -12.270  15.956  63.845  1.00  0.00    -0.750 NA 
HETATM   26  C   UNL     1     -11.681  14.980  64.547  1.00  0.00    -0.368 A  
ENDBRANCH  17  19
BRANCH  18  27
HETATM   27  C   UNL     1      -8.988  15.422  69.465  1.00  0.00    -0.229 C  
HETATM   28  O   UNL     1      -6.574  15.331  69.328  1.00  0.00    -0.122 OA 
HETATM   29  C   UNL     1      -7.600  15.993  69.238  1.00  0.00    -0.230 C  
HETATM   30  O   UNL     1      -7.581  17.311  68.952  1.00  0.00    -0.258 OA 
ENDBRANCH  18  27
ENDBRANCH  15  17
ENDBRANCH  11  13
TORSDOF 4
ENDMDL
MODEL       76
REMARK 921   NORMALIZED FREE ENERGY PREDICTED BY IDOCK:   -5.67 KCAL/MOL
REMARK 922        TOTAL FREE ENERGY PREDICTED BY IDOCK:   -7.55 KCAL/MOL
REMARK 923 INTER-LIGAND FREE ENERGY PREDICTED BY IDOCK:   -6.62 KCAL/MOL
REMARK 924 INTRA-LIGAND FREE ENERGY PREDICTED BY IDOCK:   -0.93 KCAL/MOL
REMARK 927      BINDING AFFINITY PREDICTED BY RF-SCORE:    0.00 PKD
ROOT
HETATM    1  CE  UNL     1      -8.974   7.314  70.225  1.00  0.00    -0.151 C  
HETATM    2  SD  UNL     1      -7.926   8.523  71.075  1.00  0.00    -0.130 SA 
HETATM    3  CG  UNL     1      -7.396   7.362  72.365  1.00  0.00    -0.072 C  
HETATM    4  CB  UNL     1      -8.539   6.589  72.952  1.00  0.00    -0.125 C  
HETATM    5  CA  UNL     1      -9.753   6.390  72.398  1.00  0.00    -0.153 C  
HETATM    6  N   UNL     1     -10.003   6.858  71.145  1.00  0.00    -0.178 N  
HETATM    7  C   UNL     1     -10.765   5.695  73.262  1.00  0.00    -0.269 C  
HETATM    8  C   UNL     1     -11.052   7.091  70.338  1.00  0.00    -0.287 C  
HETATM    9  OXT UNL     1     -10.510   5.301  74.395  1.00  0.00    -0.275 OA 
HETATM   10  O   UNL     1     -11.982   5.482  72.724  1.00  0.00    -0.237 OA 
HETATM   11  CA  UNL     1     -10.127   7.859  69.317  1.00  0.00    -0.197 C  
HETATM   12  O   UNL     1     -12.224   6.839  70.508  1.00  0.00    -0.363 OA 
ENDROOT
BRANCH  11  13
HETATM   13  N   UNL     1     -10.359   9.327  69.265  1.00  0.00    -0.209 N  
HETATM   14  H   UNL     1     -10.177   9.869  70.110  1.00  0.00     0.000 HD 
HETATM   15  C   UNL     1     -10.803  10.000  68.155  1.00  0.00    -0.255 C  
HETATM   16  O   UNL     1     -11.153   9.400  67.138  1.00  0.00    -0.048 OA 
BRANCH  15  17
HETATM   17  C   UNL     1     -10.762  11.522  68.221  1.00  0.00    -0.247 C  
HETATM   18  C   UNL     1     -10.102  12.219  67.263  1.00  0.00    -0.212 C  
BRANCH  17  19
HETATM   19  C   UNL     1     -11.439  12.202  69.308  1.00  0.00    -0.302 A  
HETATM   20  C   UNL     1     -11.539  13.571  69.465  1.00  0.00    -0.294 A  
HETATM   21  H2  UNL     1     -13.900  12.465  72.764  1.00  0.00     0.000 HD 
HETATM   22  S   UNL     1     -12.484  13.929  70.852  1.00  0.00    -0.381 SA 
HETATM   23  H1  UNL     1     -13.579  10.799  72.304  1.00  0.00     0.000 HD 
HETATM   24  N   UNL     1     -12.097  11.460  70.276  1.00  0.00    -0.358 NA 
HETATM   25  N   UNL     1     -13.449  11.796  72.140  1.00  0.00    -0.349 NA 
HETATM   26  C   UNL     1     -12.702  12.252  71.127  1.00  0.00    -0.243 A  
ENDBRANCH  17  19
BRANCH  18  27
HETATM   27  C   UNL     1      -9.453  11.779  65.976  1.00  0.00    -0.245 C  
HETATM   28  O   UNL     1     -10.887  11.093  64.151  1.00  0.00    -0.370 OA 
HETATM   29  C   UNL     1     -10.263  11.987  64.709  1.00  0.00    -0.279 C  
HETATM   30  O   UNL     1     -10.222  13.244  64.222  1.00  0.00    -0.396 OA 
ENDBRANCH  18  27
ENDBRANCH  15  17
ENDBRANCH  11  13
TORSDOF 4
ENDMDL
MODEL       77
REMARK 921   NORMALIZED FREE ENERGY PREDICTED BY IDOCK:   -5.66 KCAL/MOL
REMARK 922        TOTAL FREE ENERGY PREDICTED BY IDOCK:   -7.54 KCAL/MOL
REMARK 923 INTER-LIGAND FREE ENERGY PREDICTED BY IDOCK:   -6.61 KCAL/MOL
REMARK 924 INTRA-LIGAND FREE ENERGY PREDICTED BY IDOCK:   -0.93 KCAL/MOL
REMARK 927      BINDING AFFINITY PREDICTED BY RF-SCORE:    0.00 PKD
ROOT
HETATM    1  CE  UNL     1     -11.399  13.999  68.431  1.00  0.00    -0.291 C  
HETATM    2  SD  UNL     1      -9.744  14.560  68.905  1.00  0.00    -0.120 SA 
HETATM    3  CG  UNL     1      -9.994  16.253  68.302  1.00  0.00    -0.236 C  
HETATM    4  CB  UNL     1     -10.601  16.295  66.931  1.00  0.00    -0.270 C  
HETATM    5  CA  UNL     1     -11.290  15.309  66.319  1.00  0.00    -0.155 C  
HETATM    6  N   UNL     1     -11.552  14.156  66.993  1.00  0.00    -0.362 N  
HETATM    7  C   UNL     1     -11.669  15.561  64.888  1.00  0.00    -0.118 C  
HETATM    8  C   UNL     1     -11.963  12.902  66.739  1.00  0.00    -0.350 C  
HETATM    9  OXT UNL     1     -11.400  16.607  64.307  1.00  0.00    -1.116 OA 
HETATM   10  O   UNL     1     -12.361  14.590  64.262  1.00  0.00    -0.597 OA 
HETATM   11  CA  UNL     1     -11.616  12.464  68.214  1.00  0.00    -0.333 C  
HETATM   12  O   UNL     1     -12.335  12.411  65.697  1.00  0.00    -0.639 OA 
ENDROOT
BRANCH  11  13
HETATM   13  N   UNL     1     -10.441  11.557  68.323  1.00  0.00    -0.190 N  
HETATM   14  H   UNL     1      -9.595  11.923  68.759  1.00  0.00     0.000 HD 
HETATM   15  C   UNL     1     -10.423  10.261  67.874  1.00  0.00    -0.212 C  
HETATM   16  O   UNL     1     -11.364   9.789  67.236  1.00  0.00     0.012 OA 
BRANCH  15  17
HETATM   17  C   UNL     1      -9.217   9.419  68.277  1.00  0.00    -0.133 C  
HETATM   18  C   UNL     1      -8.062   9.523  67.574  1.00  0.00    -0.110 C  
BRANCH  17  19
HETATM   19  C   UNL     1      -9.324   8.526  69.413  1.00  0.00    -0.154 A  
HETATM   20  C   UNL     1      -8.744   8.723  70.652  1.00  0.00    -0.180 A  
HETATM   21  H2  UNL     1     -10.827   5.189  71.576  1.00  0.00     0.000 HD 
HETATM   22  S   UNL     1      -9.191   7.450  71.711  1.00  0.00    -0.140 SA 
HETATM   23  H1  UNL     1     -11.400   5.215  69.913  1.00  0.00     0.000 HD 
HETATM   24  N   UNL     1     -10.102   7.382  69.314  1.00  0.00    -0.181 NA 
HETATM   25  N   UNL     1     -10.842   5.633  70.657  1.00  0.00    -0.263 NA 
HETATM   26  C   UNL     1     -10.129   6.748  70.460  1.00  0.00    -0.183 A  
ENDBRANCH  17  19
BRANCH  18  27
HETATM   27  C   UNL     1      -7.645  10.458  66.468  1.00  0.00    -0.118 C  
HETATM   28  O   UNL     1      -7.960  12.834  66.803  1.00  0.00    -0.014 OA 
HETATM   29  C   UNL     1      -7.229  11.856  66.890  1.00  0.00    -0.074 C  
HETATM   30  O   UNL     1      -5.964  11.944  67.350  1.00  0.00    -0.085 OA 
ENDBRANCH  18  27
ENDBRANCH  15  17
ENDBRANCH  11  13
TORSDOF 4
ENDMDL
MODEL       78
REMARK 921   NORMALIZED FREE ENERGY PREDICTED BY IDOCK:   -5.66 KCAL/MOL
REMARK 922        TOTAL FREE ENERGY PREDICTED BY IDOCK:   -7.53 KCAL/MOL
REMARK 923 INTER-LIGAND FREE ENERGY PREDICTED BY IDOCK:   -6.89 KCAL/MOL
REMARK 924 INTRA-LIGAND FREE ENERGY PREDICTED BY IDOCK:   -0.64 KCAL/MOL
REMARK 927      BINDING AFFINITY PREDICTED BY RF-SCORE:    0.00 PKD
ROOT
HETATM    1  CE  UNL     1      -9.653   8.370  68.854  1.00  0.00    -0.153 C  
HETATM    2  SD  UNL     1      -7.878   8.729  68.812  1.00  0.00    -0.102 SA 
HETATM    3  CG  UNL     1      -7.458   7.496  70.075  1.00  0.00    -0.083 C  
HETATM    4  CB  UNL     1      -8.362   7.560  71.269  1.00  0.00    -0.111 C  
HETATM    5  CA  UNL     1      -9.591   8.115  71.328  1.00  0.00    -0.162 C  
HETATM    6  N   UNL     1     -10.150   8.625  70.197  1.00  0.00    -0.181 N  
HETATM    7  C   UNL     1     -10.226   8.168  72.687  1.00  0.00    -0.318 C  
HETATM    8  C   UNL     1     -11.168   9.427  69.840  1.00  0.00    -0.155 C  
HETATM    9  OXT UNL     1      -9.684   7.713  73.689  1.00  0.00    -0.287 OA 
HETATM   10  O   UNL     1     -11.455   8.714  72.765  1.00  0.00    -0.214 OA 
HETATM   11  CA  UNL     1     -10.635   9.483  68.355  1.00  0.00    -0.219 C  
HETATM   12  O   UNL     1     -12.034   9.923  70.526  1.00  0.00    -0.267 OA 
ENDROOT
BRANCH  11  13
HETATM   13  N   UNL     1     -10.073  10.801  67.957  1.00  0.00    -0.171 N  
HETATM   14  H   UNL     1      -9.061  10.919  67.992  1.00  0.00     0.000 HD 
HETATM   15  C   UNL     1     -10.829  11.869  67.544  1.00  0.00    -0.238 C  
HETATM   16  O   UNL     1     -12.059  11.839  67.585  1.00  0.00    -0.598 OA 
BRANCH  15  17
HETATM   17  C   UNL     1     -10.069  13.054  66.959  1.00  0.00    -0.243 C  
HETATM   18  C   UNL     1     -10.701  13.907  66.115  1.00  0.00    -0.283 C  
BRANCH  17  19
HETATM   19  C   UNL     1      -8.681  13.254  67.324  1.00  0.00    -0.214 A  
HETATM   20  C   UNL     1      -8.186  14.308  68.069  1.00  0.00    -0.153 A  
HETATM   21  H2  UNL     1      -4.584  12.177  67.674  1.00  0.00     0.000 HD 
HETATM   22  S   UNL     1      -6.501  14.105  68.316  1.00  0.00    -0.132 SA 
HETATM   23  H1  UNL     1      -5.503  10.999  66.746  1.00  0.00     0.000 HD 
HETATM   24  N   UNL     1      -7.733  12.312  66.957  1.00  0.00    -0.130 NA 
HETATM   25  N   UNL     1      -5.469  11.873  67.269  1.00  0.00    -0.107 NA 
HETATM   26  C   UNL     1      -6.557  12.635  67.437  1.00  0.00    -0.144 A  
ENDBRANCH  17  19
BRANCH  18  27
HETATM   27  C   UNL     1     -12.145  14.010  65.694  1.00  0.00    -0.432 C  
HETATM   28  O   UNL     1     -12.690  15.460  63.835  1.00  0.00    -0.695 OA 
HETATM   29  C   UNL     1     -12.397  14.341  64.234  1.00  0.00    -0.377 C  
HETATM   30  O   UNL     1     -12.299  13.285  63.400  1.00  0.00    -0.726 OA 
ENDBRANCH  18  27
ENDBRANCH  15  17
ENDBRANCH  11  13
TORSDOF 4
ENDMDL
MODEL       79
REMARK 921   NORMALIZED FREE ENERGY PREDICTED BY IDOCK:   -5.65 KCAL/MOL
REMARK 922        TOTAL FREE ENERGY PREDICTED BY IDOCK:   -7.53 KCAL/MOL
REMARK 923 INTER-LIGAND FREE ENERGY PREDICTED BY IDOCK:   -6.51 KCAL/MOL
REMARK 924 INTRA-LIGAND FREE ENERGY PREDICTED BY IDOCK:   -1.02 KCAL/MOL
REMARK 927      BINDING AFFINITY PREDICTED BY RF-SCORE:    0.00 PKD
ROOT
HETATM    1  CE  UNL     1     -11.203   8.489  71.382  1.00  0.00    -0.266 C  
HETATM    2  SD  UNL     1     -11.946   7.007  70.653  1.00  0.00    -0.266 SA 
HETATM    3  CG  UNL     1     -12.008   6.099  72.222  1.00  0.00    -0.232 C  
HETATM    4  CB  UNL     1     -10.721   6.178  72.988  1.00  0.00    -0.276 C  
HETATM    5  CA  UNL     1      -9.746   7.099  72.842  1.00  0.00    -0.165 C  
HETATM    6  N   UNL     1      -9.923   8.129  71.971  1.00  0.00    -0.211 N  
HETATM    7  C   UNL     1      -8.495   6.866  73.639  1.00  0.00    -0.130 C  
HETATM    8  C   UNL     1      -9.193   9.079  71.359  1.00  0.00    -0.223 C  
HETATM    9  OXT UNL     1      -8.365   5.915  74.403  1.00  0.00    -0.111 OA 
HETATM   10  O   UNL     1      -7.512   7.778  73.510  1.00  0.00    -0.107 OA 
HETATM   11  CA  UNL     1     -10.415   9.453  70.432  1.00  0.00    -0.256 C  
HETATM   12  O   UNL     1      -8.024   9.360  71.499  1.00  0.00    -0.298 OA 
ENDROOT
BRANCH  11  13
HETATM   13  N   UNL     1     -10.242   9.063  69.007  1.00  0.00    -0.200 N  
HETATM   14  H   UNL     1     -10.601   8.155  68.713  1.00  0.00     0.000 HD 
HETATM   15  C   UNL     1      -9.630   9.847  68.061  1.00  0.00    -0.138 C  
HETATM   16  O   UNL     1      -9.072  10.902  68.365  1.00  0.00    -0.150 OA 
BRANCH  15  17
HETATM   17  C   UNL     1      -9.750   9.384  66.614  1.00  0.00    -0.280 C  
HETATM   18  C   UNL     1     -10.133  10.265  65.657  1.00  0.00    -0.341 C  
BRANCH  17  19
HETATM   19  C   UNL     1      -9.443   8.007  66.284  1.00  0.00    -0.172 A  
HETATM   20  C   UNL     1      -8.408   7.582  65.473  1.00  0.00    -0.133 A  
HETATM   21  H2  UNL     1      -9.819   3.783  66.595  1.00  0.00     0.000 HD 
HETATM   22  S   UNL     1      -8.380   5.868  65.415  1.00  0.00    -0.149 SA 
HETATM   23  H1  UNL     1     -11.038   4.629  67.540  1.00  0.00     0.000 HD 
HETATM   24  N   UNL     1     -10.198   6.984  66.840  1.00  0.00    -0.240 NA 
HETATM   25  N   UNL     1     -10.238   4.659  66.908  1.00  0.00    -0.194 NA 
HETATM   26  C   UNL     1      -9.724   5.818  66.478  1.00  0.00    -0.159 A  
ENDBRANCH  17  19
BRANCH  18  27
HETATM   27  C   UNL     1     -10.364  11.754  65.703  1.00  0.00    -0.293 C  
HETATM   28  O   UNL     1     -12.569  12.583  65.147  1.00  0.00    -0.631 OA 
HETATM   29  C   UNL     1     -11.782  12.204  66.005  1.00  0.00    -0.321 C  
HETATM   30  O   UNL     1     -12.106  12.180  67.314  1.00  0.00    -0.565 OA 
ENDBRANCH  18  27
ENDBRANCH  15  17
ENDBRANCH  11  13
TORSDOF 4
ENDMDL
MODEL       80
REMARK 921   NORMALIZED FREE ENERGY PREDICTED BY IDOCK:   -5.65 KCAL/MOL
REMARK 922        TOTAL FREE ENERGY PREDICTED BY IDOCK:   -7.52 KCAL/MOL
REMARK 923 INTER-LIGAND FREE ENERGY PREDICTED BY IDOCK:   -6.53 KCAL/MOL
REMARK 924 INTRA-LIGAND FREE ENERGY PREDICTED BY IDOCK:   -1.00 KCAL/MOL
REMARK 927      BINDING AFFINITY PREDICTED BY RF-SCORE:    0.00 PKD
ROOT
HETATM    1  CE  UNL     1      -9.978  12.534  65.910  1.00  0.00    -0.257 C  
HETATM    2  SD  UNL     1     -11.781  12.357  65.919  1.00  0.00    -0.392 SA 
HETATM    3  CG  UNL     1     -12.090  14.090  65.479  1.00  0.00    -0.410 C  
HETATM    4  CB  UNL     1     -11.275  15.049  66.295  1.00  0.00    -0.309 C  
HETATM    5  CA  UNL     1     -10.145  14.774  66.979  1.00  0.00    -0.245 C  
HETATM    6  N   UNL     1      -9.601  13.529  66.901  1.00  0.00    -0.250 N  
HETATM    7  C   UNL     1      -9.603  15.886  67.830  1.00  0.00    -0.218 C  
HETATM    8  C   UNL     1      -8.690  12.777  67.543  1.00  0.00    -0.185 C  
HETATM    9  OXT UNL     1     -10.130  16.991  67.888  1.00  0.00    -0.282 OA 
HETATM   10  O   UNL     1      -8.472  15.632  68.516  1.00  0.00    -0.161 OA 
HETATM   11  CA  UNL     1      -9.140  11.499  66.733  1.00  0.00    -0.181 C  
HETATM   12  O   UNL     1      -7.945  13.076  68.450  1.00  0.00    -0.142 OA 
ENDROOT
BRANCH  11  13
HETATM   13  N   UNL     1      -9.861  10.483  67.545  1.00  0.00    -0.165 N  
HETATM   14  H   UNL     1     -10.877  10.444  67.469  1.00  0.00     0.000 HD 
HETATM   15  C   UNL     1      -9.248   9.594  68.392  1.00  0.00    -0.133 C  
HETATM   16  O   UNL     1      -8.040   9.656  68.623  1.00  0.00    -0.097 OA 
BRANCH  15  17
HETATM   17  C   UNL     1     -10.123   8.484  68.961  1.00  0.00    -0.207 C  
HETATM   18  C   UNL     1     -10.821   8.698  70.104  1.00  0.00    -0.242 C  
BRANCH  17  19
HETATM   19  C   UNL     1     -10.202   7.216  68.264  1.00  0.00    -0.184 A  
HETATM   20  C   UNL     1     -10.664   7.031  66.975  1.00  0.00    -0.353 A  
HETATM   21  H2  UNL     1      -9.510   3.057  67.718  1.00  0.00     0.000 HD 
HETATM   22  S   UNL     1     -10.513   5.380  66.534  1.00  0.00    -0.267 SA 
HETATM   23  H1  UNL     1      -9.015   3.608  69.313  1.00  0.00     0.000 HD 
HETATM   24  N   UNL     1      -9.744   6.063  68.884  1.00  0.00    -0.129 NA 
HETATM   25  N   UNL     1      -9.419   3.810  68.400  1.00  0.00    -0.164 NA 
HETATM   26  C   UNL     1      -9.834   5.040  68.070  1.00  0.00    -0.149 A  
ENDBRANCH  17  19
BRANCH  18  27
HETATM   27  C   UNL     1     -11.028   9.941  70.931  1.00  0.00    -0.392 C  
HETATM   28  O   UNL     1     -12.161  11.818  69.905  1.00  0.00    -0.305 OA 
HETATM   29  C   UNL     1     -12.232  10.794  70.573  1.00  0.00    -0.366 C  
HETATM   30  O   UNL     1     -13.400  10.346  71.076  1.00  0.00    -0.342 OA 
ENDBRANCH  18  27
ENDBRANCH  15  17
ENDBRANCH  11  13
TORSDOF 4
ENDMDL
MODEL       81
REMARK 921   NORMALIZED FREE ENERGY PREDICTED BY IDOCK:   -5.64 KCAL/MOL
REMARK 922        TOTAL FREE ENERGY PREDICTED BY IDOCK:   -7.51 KCAL/MOL
REMARK 923 INTER-LIGAND FREE ENERGY PREDICTED BY IDOCK:   -7.04 KCAL/MOL
REMARK 924 INTRA-LIGAND FREE ENERGY PREDICTED BY IDOCK:   -0.47 KCAL/MOL
REMARK 927      BINDING AFFINITY PREDICTED BY RF-SCORE:    0.00 PKD
ROOT
HETATM    1  CE  UNL     1      -8.527  10.823  67.490  1.00  0.00    -0.119 C  
HETATM    2  SD  UNL     1     -10.205  10.854  66.808  1.00  0.00    -0.240 SA 
HETATM    3  CG  UNL     1     -10.308   9.054  66.612  1.00  0.00    -0.219 C  
HETATM    4  CB  UNL     1      -9.085   8.471  65.969  1.00  0.00    -0.246 C  
HETATM    5  CA  UNL     1      -7.861   9.035  65.894  1.00  0.00    -0.102 C  
HETATM    6  N   UNL     1      -7.635  10.228  66.509  1.00  0.00    -0.109 N  
HETATM    7  C   UNL     1      -6.845   8.298  65.070  1.00  0.00    -0.067 C  
HETATM    8  C   UNL     1      -6.719  11.213  66.509  1.00  0.00    -0.128 C  
HETATM    9  OXT UNL     1      -7.090   7.232  64.516  1.00  0.00    -0.053 OA 
HETATM   10  O   UNL     1      -5.616   8.843  64.988  1.00  0.00    -0.049 OA 
HETATM   11  CA  UNL     1      -7.669  12.127  67.377  1.00  0.00    -0.165 C  
HETATM   12  O   UNL     1      -5.657  11.276  65.932  1.00  0.00    -0.167 OA 
ENDROOT
BRANCH  11  13
HETATM   13  N   UNL     1      -8.235  13.291  66.644  1.00  0.00    -0.378 N  
HETATM   14  H   UNL     1      -8.017  13.382  65.652  1.00  0.00     0.000 HD 
HETATM   15  C   UNL     1      -9.033  14.250  67.217  1.00  0.00    -0.213 C  
HETATM   16  O   UNL     1      -9.244  14.269  68.429  1.00  0.00    -0.188 OA 
BRANCH  15  17
HETATM   17  C   UNL     1      -9.703  15.233  66.264  1.00  0.00    -0.325 C  
HETATM   18  C   UNL     1     -10.666  14.795  65.415  1.00  0.00    -0.385 C  
BRANCH  17  19
HETATM   19  C   UNL     1      -9.304  16.625  66.287  1.00  0.00    -0.292 A  
HETATM   20  C   UNL     1      -8.003  17.093  66.272  1.00  0.00    -0.304 A  
HETATM   21  H2  UNL     1      -9.929  20.828  66.129  1.00  0.00     0.000 HD 
HETATM   22  S   UNL     1      -8.002  18.808  66.241  1.00  0.00    -0.230 SA 
HETATM   23  H1  UNL     1     -11.443  19.932  66.166  1.00  0.00     0.000 HD 
HETATM   24  N   UNL     1     -10.273  17.617  66.280  1.00  0.00    -0.363 NA 
HETATM   25  N   UNL     1     -10.423  19.936  66.171  1.00  0.00    -0.483 NA 
HETATM   26  C   UNL     1      -9.716  18.801  66.232  1.00  0.00    -0.330 A  
ENDBRANCH  17  19
BRANCH  18  27
HETATM   27  C   UNL     1     -11.356  13.461  65.289  1.00  0.00    -0.313 C  
HETATM   28  O   UNL     1     -12.541  12.978  63.235  1.00  0.00    -0.696 OA 
HETATM   29  C   UNL     1     -11.504  12.910  63.882  1.00  0.00    -0.446 C  
HETATM   30  O   UNL     1     -10.397  12.308  63.401  1.00  0.00    -0.432 OA 
ENDBRANCH  18  27
ENDBRANCH  15  17
ENDBRANCH  11  13
TORSDOF 4
ENDMDL
MODEL       82
REMARK 921   NORMALIZED FREE ENERGY PREDICTED BY IDOCK:   -5.63 KCAL/MOL
REMARK 922        TOTAL FREE ENERGY PREDICTED BY IDOCK:   -7.50 KCAL/MOL
REMARK 923 INTER-LIGAND FREE ENERGY PREDICTED BY IDOCK:   -6.55 KCAL/MOL
REMARK 924 INTRA-LIGAND FREE ENERGY PREDICTED BY IDOCK:   -0.96 KCAL/MOL
REMARK 927      BINDING AFFINITY PREDICTED BY RF-SCORE:    0.00 PKD
ROOT
HETATM    1  CE  UNL     1      -8.562   9.135  69.333  1.00  0.00    -0.138 C  
HETATM    2  SD  UNL     1      -7.371  10.118  70.279  1.00  0.00     0.018 SA 
HETATM    3  CG  UNL     1      -6.584   8.676  71.049  1.00  0.00    -0.053 C  
HETATM    4  CB  UNL     1      -7.579   7.696  71.595  1.00  0.00    -0.085 C  
HETATM    5  CA  UNL     1      -8.879   7.584  71.252  1.00  0.00    -0.133 C  
HETATM    6  N   UNL     1      -9.380   8.371  70.261  1.00  0.00    -0.162 N  
HETATM    7  C   UNL     1      -9.691   6.609  72.054  1.00  0.00    -0.151 C  
HETATM    8  C   UNL     1     -10.573   8.755  69.774  1.00  0.00    -0.224 C  
HETATM    9  OXT UNL     1      -9.208   5.928  72.953  1.00  0.00    -0.139 OA 
HETATM   10  O   UNL     1     -10.990   6.480  71.722  1.00  0.00    -0.232 OA 
HETATM   11  CA  UNL     1      -9.878   9.839  68.861  1.00  0.00    -0.173 C  
HETATM   12  O   UNL     1     -11.685   8.390  70.086  1.00  0.00    -0.012 OA 
ENDROOT
BRANCH  11  13
HETATM   13  N   UNL     1     -10.125  11.243  69.285  1.00  0.00    -0.426 N  
HETATM   14  H   UNL     1      -9.559  11.619  70.045  1.00  0.00     0.000 HD 
HETATM   15  C   UNL     1     -11.066  12.066  68.718  1.00  0.00    -0.249 C  
HETATM   16  O   UNL     1     -11.861  11.648  67.876  1.00  0.00    -0.543 OA 
BRANCH  15  17
HETATM   17  C   UNL     1     -11.017  13.535  69.124  1.00  0.00    -0.220 C  
HETATM   18  C   UNL     1     -10.191  14.386  68.467  1.00  0.00    -0.243 C  
BRANCH  17  19
HETATM   19  C   UNL     1     -11.863  13.998  70.205  1.00  0.00    -0.303 A  
HETATM   20  C   UNL     1     -12.092  15.319  70.542  1.00  0.00    -0.354 A  
HETATM   21  H2  UNL     1     -14.705  13.581  73.339  1.00  0.00     0.000 HD 
HETATM   22  S   UNL     1     -13.210  15.404  71.840  1.00  0.00    -0.480 SA 
HETATM   23  H1  UNL     1     -14.199  12.026  72.691  1.00  0.00     0.000 HD 
HETATM   24  N   UNL     1     -12.561  13.078  70.972  1.00  0.00    -0.349 NA 
HETATM   25  N   UNL     1     -14.134  13.044  72.687  1.00  0.00    -0.528 NA 
HETATM   26  C   UNL     1     -13.319  13.693  71.847  1.00  0.00    -0.425 A  
ENDBRANCH  17  19
BRANCH  18  27
HETATM   27  C   UNL     1      -9.334  14.201  67.241  1.00  0.00    -0.225 C  
HETATM   28  O   UNL     1      -8.603  16.176  66.050  1.00  0.00    -0.330 OA 
HETATM   29  C   UNL     1      -8.380  15.334  66.909  1.00  0.00    -0.243 C  
HETATM   30  O   UNL     1      -7.238  15.327  67.627  1.00  0.00    -0.145 OA 
ENDBRANCH  18  27
ENDBRANCH  15  17
ENDBRANCH  11  13
TORSDOF 4
ENDMDL
MODEL       83
REMARK 921   NORMALIZED FREE ENERGY PREDICTED BY IDOCK:   -5.63 KCAL/MOL
REMARK 922        TOTAL FREE ENERGY PREDICTED BY IDOCK:   -7.50 KCAL/MOL
REMARK 923 INTER-LIGAND FREE ENERGY PREDICTED BY IDOCK:   -6.77 KCAL/MOL
REMARK 924 INTRA-LIGAND FREE ENERGY PREDICTED BY IDOCK:   -0.73 KCAL/MOL
REMARK 927      BINDING AFFINITY PREDICTED BY RF-SCORE:    0.00 PKD
ROOT
HETATM    1  CE  UNL     1     -11.460   8.418  71.693  1.00  0.00    -0.287 C  
HETATM    2  SD  UNL     1     -12.208   7.010  70.833  1.00  0.00    -0.285 SA 
HETATM    3  CG  UNL     1     -12.153   5.919  72.282  1.00  0.00    -0.078 C  
HETATM    4  CB  UNL     1     -10.824   5.947  72.977  1.00  0.00    -0.300 C  
HETATM    5  CA  UNL     1      -9.883   6.911  72.889  1.00  0.00    -0.172 C  
HETATM    6  N   UNL     1     -10.139   8.032  72.160  1.00  0.00    -0.214 N  
HETATM    7  C   UNL     1      -8.581   6.625  73.579  1.00  0.00    -0.122 C  
HETATM    8  C   UNL     1      -9.472   9.071  71.628  1.00  0.00    -0.223 C  
HETATM    9  OXT UNL     1      -8.381   5.594  74.213  1.00  0.00    -0.110 OA 
HETATM   10  O   UNL     1      -7.631   7.577  73.506  1.00  0.00    -0.096 OA 
HETATM   11  CA  UNL     1     -10.756   9.513  70.824  1.00  0.00    -0.321 C  
HETATM   12  O   UNL     1      -8.304   9.371  71.734  1.00  0.00    -0.191 OA 
ENDROOT
BRANCH  11  13
HETATM   13  N   UNL     1     -10.659   9.303  69.355  1.00  0.00    -0.222 N  
HETATM   14  H   UNL     1     -11.038   8.438  68.971  1.00  0.00     0.000 HD 
HETATM   15  C   UNL     1     -10.094  10.199  68.482  1.00  0.00    -0.169 C  
HETATM   16  O   UNL     1      -9.516  11.209  68.884  1.00  0.00    -0.188 OA 
BRANCH  15  17
HETATM   17  C   UNL     1     -10.292   9.918  66.997  1.00  0.00    -0.303 C  
HETATM   18  C   UNL     1     -10.140   8.655  66.527  1.00  0.00    -0.339 C  
BRANCH  17  19
HETATM   19  C   UNL     1     -10.648  11.008  66.112  1.00  0.00    -0.228 A  
HETATM   20  C   UNL     1     -10.052  11.289  64.897  1.00  0.00    -0.281 A  
HETATM   21  H2  UNL     1     -13.016  14.268  64.755  1.00  0.00     0.000 HD 
HETATM   22  S   UNL     1     -10.836  12.624  64.159  1.00  0.00    -0.427 SA 
HETATM   23  H1  UNL     1     -13.540  13.675  66.325  1.00  0.00     0.000 HD 
HETATM   24  N   UNL     1     -11.702  11.845  66.445  1.00  0.00    -0.541 NA 
HETATM   25  N   UNL     1     -12.900  13.620  65.534  1.00  0.00    -0.627 NA 
HETATM   26  C   UNL     1     -11.912  12.718  65.490  1.00  0.00    -0.449 A  
ENDBRANCH  17  19
BRANCH  18  27
HETATM   27  C   UNL     1      -9.920   7.344  67.237  1.00  0.00    -0.259 C  
HETATM   28  O   UNL     1      -7.811   6.205  66.904  1.00  0.00    -0.102 OA 
HETATM   29  C   UNL     1      -8.480   6.989  67.564  1.00  0.00    -0.122 C  
HETATM   30  O   UNL     1      -7.996   7.592  68.669  1.00  0.00    -0.119 OA 
ENDBRANCH  18  27
ENDBRANCH  15  17
ENDBRANCH  11  13
TORSDOF 4
ENDMDL
MODEL       84
REMARK 921   NORMALIZED FREE ENERGY PREDICTED BY IDOCK:   -5.63 KCAL/MOL
REMARK 922        TOTAL FREE ENERGY PREDICTED BY IDOCK:   -7.50 KCAL/MOL
REMARK 923 INTER-LIGAND FREE ENERGY PREDICTED BY IDOCK:   -7.43 KCAL/MOL
REMARK 924 INTRA-LIGAND FREE ENERGY PREDICTED BY IDOCK:   -0.07 KCAL/MOL
REMARK 927      BINDING AFFINITY PREDICTED BY RF-SCORE:    0.00 PKD
ROOT
HETATM    1  CE  UNL     1     -10.384   8.267  68.320  1.00  0.00    -0.198 C  
HETATM    2  SD  UNL     1     -10.279   8.769  66.583  1.00  0.00    -0.225 SA 
HETATM    3  CG  UNL     1      -8.806   7.767  66.239  1.00  0.00    -0.160 C  
HETATM    4  CB  UNL     1      -7.744   7.920  67.287  1.00  0.00    -0.105 C  
HETATM    5  CA  UNL     1      -7.909   8.369  68.549  1.00  0.00    -0.120 C  
HETATM    6  N   UNL     1      -9.160   8.665  68.997  1.00  0.00    -0.145 N  
HETATM    7  C   UNL     1      -6.654   8.558  69.351  1.00  0.00    -0.041 C  
HETATM    8  C   UNL     1      -9.746   9.317  70.016  1.00  0.00    -0.207 C  
HETATM    9  OXT UNL     1      -5.540   8.297  68.908  1.00  0.00    -0.037 OA 
HETATM   10  O   UNL     1      -6.799   9.000  70.614  1.00  0.00    -0.054 OA 
HETATM   11  CA  UNL     1     -11.152   9.209  69.307  1.00  0.00     0.023 C  
HETATM   12  O   UNL     1      -9.245   9.828  70.992  1.00  0.00    -0.090 OA 
ENDROOT
BRANCH  11  13
HETATM   13  N   UNL     1     -11.678  10.501  68.792  1.00  0.00    -0.512 N  
HETATM   14  H   UNL     1     -12.657  10.539  68.508  1.00  0.00     0.000 HD 
HETATM   15  C   UNL     1     -10.932  11.647  68.676  1.00  0.00    -0.220 C  
HETATM   16  O   UNL     1      -9.720  11.648  68.891  1.00  0.00    -0.137 OA 
BRANCH  15  17
HETATM   17  C   UNL     1     -11.696  12.925  68.349  1.00  0.00    -0.382 C  
HETATM   18  C   UNL     1     -12.164  13.704  69.356  1.00  0.00    -0.307 C  
BRANCH  17  19
HETATM   19  C   UNL     1     -11.902  13.291  66.962  1.00  0.00    -0.390 A  
HETATM   20  C   UNL     1     -11.614  14.521  66.401  1.00  0.00    -0.364 A  
HETATM   21  H2  UNL     1     -12.839  12.581  62.877  1.00  0.00     0.000 HD 
HETATM   22  S   UNL     1     -11.954  14.486  64.720  1.00  0.00    -0.443 SA 
HETATM   23  H1  UNL     1     -13.116  11.162  63.877  1.00  0.00     0.000 HD 
HETATM   24  N   UNL     1     -12.388  12.348  66.069  1.00  0.00    -0.551 NA 
HETATM   25  N   UNL     1     -12.829  12.136  63.795  1.00  0.00    -0.754 NA 
HETATM   26  C   UNL     1     -12.438  12.848  64.859  1.00  0.00    -0.478 A  
ENDBRANCH  17  19
BRANCH  18  27
HETATM   27  C   UNL     1     -11.967  13.633  70.849  1.00  0.00    -0.226 C  
HETATM   28  O   UNL     1     -13.932  13.463  72.251  1.00  0.00    -0.540 OA 
HETATM   29  C   UNL     1     -13.039  12.898  71.634  1.00  0.00    -0.335 C  
HETATM   30  O   UNL     1     -12.916  11.555  71.621  1.00  0.00    -0.437 OA 
ENDBRANCH  18  27
ENDBRANCH  15  17
ENDBRANCH  11  13
TORSDOF 4
ENDMDL
MODEL       85
REMARK 921   NORMALIZED FREE ENERGY PREDICTED BY IDOCK:   -5.61 KCAL/MOL
REMARK 922        TOTAL FREE ENERGY PREDICTED BY IDOCK:   -7.48 KCAL/MOL
REMARK 923 INTER-LIGAND FREE ENERGY PREDICTED BY IDOCK:   -6.60 KCAL/MOL
REMARK 924 INTRA-LIGAND FREE ENERGY PREDICTED BY IDOCK:   -0.88 KCAL/MOL
REMARK 927      BINDING AFFINITY PREDICTED BY RF-SCORE:    0.00 PKD
ROOT
HETATM    1  CE  UNL     1      -7.845  10.076  69.608  1.00  0.00    -0.167 C  
HETATM    2  SD  UNL     1      -9.376   9.346  70.241  1.00  0.00    -0.264 SA 
HETATM    3  CG  UNL     1      -8.626   7.731  70.588  1.00  0.00    -0.127 C  
HETATM    4  CB  UNL     1      -7.790   7.225  69.451  1.00  0.00    -0.122 C  
HETATM    5  CA  UNL     1      -7.258   7.955  68.448  1.00  0.00    -0.089 C  
HETATM    6  N   UNL     1      -7.403   9.308  68.455  1.00  0.00    -0.077 N  
HETATM    7  C   UNL     1      -6.578   7.179  67.357  1.00  0.00    -0.059 C  
HETATM    8  C   UNL     1      -7.264  10.348  67.614  1.00  0.00    -0.086 C  
HETATM    9  OXT UNL     1      -6.481   5.956  67.376  1.00  0.00    -0.043 OA 
HETATM   10  O   UNL     1      -6.036   7.891  66.350  1.00  0.00    -0.043 OA 
HETATM   11  CA  UNL     1      -7.965  11.309  68.651  1.00  0.00    -0.145 C  
HETATM   12  O   UNL     1      -6.838  10.371  66.481  1.00  0.00    -0.094 OA 
ENDROOT
BRANCH  11  13
HETATM   13  N   UNL     1      -9.322  11.764  68.244  1.00  0.00    -0.189 N  
HETATM   14  H   UNL     1     -10.009  11.053  67.994  1.00  0.00     0.000 HD 
HETATM   15  C   UNL     1      -9.709  13.079  68.181  1.00  0.00    -0.228 C  
HETATM   16  O   UNL     1      -8.904  13.994  68.357  1.00  0.00    -0.179 OA 
BRANCH  15  17
HETATM   17  C   UNL     1     -11.195  13.340  67.967  1.00  0.00    -0.307 C  
HETATM   18  C   UNL     1     -12.034  13.360  69.032  1.00  0.00    -0.357 C  
BRANCH  17  19
HETATM   19  C   UNL     1     -11.687  13.572  66.624  1.00  0.00    -0.387 A  
HETATM   20  C   UNL     1     -11.591  14.760  65.923  1.00  0.00    -0.286 A  
HETATM   21  H2  UNL     1     -13.341  12.460  62.869  1.00  0.00     0.000 HD 
HETATM   22  S   UNL     1     -12.244  14.560  64.349  1.00  0.00    -0.375 SA 
HETATM   23  H1  UNL     1     -13.330  11.123  64.012  1.00  0.00     0.000 HD 
HETATM   24  N   UNL     1     -12.273  12.531  65.919  1.00  0.00    -0.624 NA 
HETATM   25  N   UNL     1     -13.127  12.099  63.799  1.00  0.00    -0.755 NA 
HETATM   26  C   UNL     1     -12.586  12.919  64.707  1.00  0.00    -0.425 A  
ENDBRANCH  17  19
BRANCH  18  27
HETATM   27  C   UNL     1     -11.769  13.295  70.515  1.00  0.00    -0.075 C  
HETATM   28  O   UNL     1     -13.645  12.907  71.994  1.00  0.00    -0.478 OA 
HETATM   29  C   UNL     1     -12.724  12.445  71.333  1.00  0.00    -0.243 C  
HETATM   30  O   UNL     1     -12.463  11.122  71.295  1.00  0.00    -0.376 OA 
ENDBRANCH  18  27
ENDBRANCH  15  17
ENDBRANCH  11  13
TORSDOF 4
ENDMDL
MODEL       86
REMARK 921   NORMALIZED FREE ENERGY PREDICTED BY IDOCK:   -5.58 KCAL/MOL
REMARK 922        TOTAL FREE ENERGY PREDICTED BY IDOCK:   -7.43 KCAL/MOL
REMARK 923 INTER-LIGAND FREE ENERGY PREDICTED BY IDOCK:   -6.06 KCAL/MOL
REMARK 924 INTRA-LIGAND FREE ENERGY PREDICTED BY IDOCK:   -1.37 KCAL/MOL
REMARK 927      BINDING AFFINITY PREDICTED BY RF-SCORE:    0.00 PKD
ROOT
HETATM    1  CE  UNL     1     -12.487  12.330  69.518  1.00  0.00     0.229 C  
HETATM    2  SD  UNL     1     -12.413  11.060  70.808  1.00  0.00    -0.400 SA 
HETATM    3  CG  UNL     1     -13.476  11.972  71.961  1.00  0.00    -0.261 C  
HETATM    4  CB  UNL     1     -13.084  13.414  72.092  1.00  0.00    -0.487 C  
HETATM    5  CA  UNL     1     -12.347  14.136  71.223  1.00  0.00    -0.369 C  
HETATM    6  N   UNL     1     -11.947  13.570  70.052  1.00  0.00    -0.334 N  
HETATM    7  C   UNL     1     -11.980  15.523  71.664  1.00  0.00    -0.408 C  
HETATM    8  C   UNL     1     -11.068  13.799  69.061  1.00  0.00    -0.259 C  
HETATM    9  OXT UNL     1     -12.345  15.995  72.736  1.00  0.00    -0.429 OA 
HETATM   10  O   UNL     1     -11.249  16.262  70.807  1.00  0.00    -0.366 OA 
HETATM   11  CA  UNL     1     -11.334  12.364  68.461  1.00  0.00    -0.293 C  
HETATM   12  O   UNL     1     -10.342  14.752  68.881  1.00  0.00    -0.231 OA 
ENDROOT
BRANCH  11  13
HETATM   13  N   UNL     1     -10.197  11.417  68.616  1.00  0.00    -0.204 N  
HETATM   14  H   UNL     1      -9.554  11.565  69.393  1.00  0.00     0.000 HD 
HETATM   15  C   UNL     1      -9.958  10.355  67.780  1.00  0.00    -0.175 C  
HETATM   16  O   UNL     1     -10.622  10.180  66.758  1.00  0.00    -0.223 OA 
BRANCH  15  17
HETATM   17  C   UNL     1      -8.888   9.366  68.227  1.00  0.00    -0.128 C  
HETATM   18  C   UNL     1      -7.595   9.569  67.873  1.00  0.00    -0.087 C  
BRANCH  17  19
HETATM   19  C   UNL     1      -9.272   8.225  69.034  1.00  0.00    -0.147 A  
HETATM   20  C   UNL     1      -8.437   7.194  69.423  1.00  0.00    -0.134 A  
HETATM   21  H2  UNL     1     -11.869   5.934  71.500  1.00  0.00     0.000 HD 
HETATM   22  S   UNL     1      -9.296   6.097  70.424  1.00  0.00    -0.161 SA 
HETATM   23  H1  UNL     1     -12.668   7.351  70.831  1.00  0.00     0.000 HD 
HETATM   24  N   UNL     1     -10.567   8.134  69.521  1.00  0.00    -0.227 NA 
HETATM   25  N   UNL     1     -11.835   6.770  70.916  1.00  0.00    -0.370 NA 
HETATM   26  C   UNL     1     -10.696   7.074  70.281  1.00  0.00    -0.241 A  
ENDBRANCH  17  19
BRANCH  18  27
HETATM   27  C   UNL     1      -6.919  10.724  67.179  1.00  0.00    -0.091 C  
HETATM   28  O   UNL     1      -7.641  12.967  67.730  1.00  0.00    -0.122 OA 
HETATM   29  C   UNL     1      -6.876  12.036  67.942  1.00  0.00    -0.087 C  
HETATM   30  O   UNL     1      -5.899  12.108  68.870  1.00  0.00    -0.057 OA 
ENDBRANCH  18  27
ENDBRANCH  15  17
ENDBRANCH  11  13
TORSDOF 4
ENDMDL
MODEL       87
REMARK 921   NORMALIZED FREE ENERGY PREDICTED BY IDOCK:   -5.55 KCAL/MOL
REMARK 922        TOTAL FREE ENERGY PREDICTED BY IDOCK:   -7.40 KCAL/MOL
REMARK 923 INTER-LIGAND FREE ENERGY PREDICTED BY IDOCK:   -6.42 KCAL/MOL
REMARK 924 INTRA-LIGAND FREE ENERGY PREDICTED BY IDOCK:   -0.99 KCAL/MOL
REMARK 927      BINDING AFFINITY PREDICTED BY RF-SCORE:    0.00 PKD
ROOT
HETATM    1  CE  UNL     1     -12.504  12.375  69.786  1.00  0.00     0.134 C  
HETATM    2  SD  UNL     1     -12.586  11.316  71.253  1.00  0.00    -0.340 SA 
HETATM    3  CG  UNL     1     -13.608  12.475  72.203  1.00  0.00    -0.360 C  
HETATM    4  CB  UNL     1     -13.100  13.884  72.137  1.00  0.00    -0.497 C  
HETATM    5  CA  UNL     1     -12.272  14.404  71.207  1.00  0.00    -0.357 C  
HETATM    6  N   UNL     1     -11.879  13.636  70.154  1.00  0.00    -0.298 N  
HETATM    7  C   UNL     1     -11.804  15.809  71.453  1.00  0.00    -0.442 C  
HETATM    8  C   UNL     1     -10.948  13.641  69.184  1.00  0.00    -0.194 C  
HETATM    9  OXT UNL     1     -12.166  16.466  72.423  1.00  0.00    -0.479 OA 
HETATM   10  O   UNL     1     -10.981  16.348  70.533  1.00  0.00    -0.296 OA 
HETATM   11  CA  UNL     1     -11.314  12.156  68.793  1.00  0.00    -0.288 C  
HETATM   12  O   UNL     1     -10.137  14.494  68.901  1.00  0.00    -0.234 OA 
ENDROOT
BRANCH  11  13
HETATM   13  N   UNL     1     -10.269  11.157  69.143  1.00  0.00    -0.367 N  
HETATM   14  H   UNL     1      -9.533  11.442  69.789  1.00  0.00     0.000 HD 
HETATM   15  C   UNL     1     -10.232   9.875  68.654  1.00  0.00    -0.178 C  
HETATM   16  O   UNL     1     -11.019   9.497  67.786  1.00  0.00    -0.244 OA 
BRANCH  15  17
HETATM   17  C   UNL     1      -9.225   8.930  69.300  1.00  0.00    -0.145 C  
HETATM   18  C   UNL     1      -7.994   8.783  68.750  1.00  0.00    -0.106 C  
BRANCH  17  19
HETATM   19  C   UNL     1      -9.600   8.209  70.500  1.00  0.00    -0.170 A  
HETATM   20  C   UNL     1      -9.799   8.767  71.748  1.00  0.00    -0.321 A  
HETATM   21  H2  UNL     1     -10.869   4.822  72.734  1.00  0.00     0.000 HD 
HETATM   22  S   UNL     1     -10.296   7.554  72.855  1.00  0.00    -0.329 SA 
HETATM   23  H1  UNL     1     -10.523   4.419  71.058  1.00  0.00     0.000 HD 
HETATM   24  N   UNL     1      -9.834   6.844  70.434  1.00  0.00    -0.179 NA 
HETATM   25  N   UNL     1     -10.564   5.112  71.805  1.00  0.00    -0.199 NA 
HETATM   26  C   UNL     1     -10.227   6.391  71.599  1.00  0.00    -0.196 A  
ENDBRANCH  17  19
BRANCH  18  27
HETATM   27  C   UNL     1      -7.313   9.506  67.616  1.00  0.00    -0.083 C  
HETATM   28  O   UNL     1      -6.280   8.181  65.875  1.00  0.00    -0.044 OA 
HETATM   29  C   UNL     1      -7.267   8.777  66.286  1.00  0.00    -0.086 C  
HETATM   30  O   UNL     1      -8.405   8.860  65.566  1.00  0.00    -0.120 OA 
ENDBRANCH  18  27
ENDBRANCH  15  17
ENDBRANCH  11  13
TORSDOF 4
ENDMDL
MODEL       88
REMARK 921   NORMALIZED FREE ENERGY PREDICTED BY IDOCK:   -5.55 KCAL/MOL
REMARK 922        TOTAL FREE ENERGY PREDICTED BY IDOCK:   -7.40 KCAL/MOL
REMARK 923 INTER-LIGAND FREE ENERGY PREDICTED BY IDOCK:   -6.56 KCAL/MOL
REMARK 924 INTRA-LIGAND FREE ENERGY PREDICTED BY IDOCK:   -0.85 KCAL/MOL
REMARK 927      BINDING AFFINITY PREDICTED BY RF-SCORE:    0.00 PKD
ROOT
HETATM    1  CE  UNL     1      -8.896   8.283  67.406  1.00  0.00    -0.131 C  
HETATM    2  SD  UNL     1      -7.778   8.240  68.830  1.00  0.00    -0.116 SA 
HETATM    3  CG  UNL     1      -6.461   7.360  67.945  1.00  0.00    -0.049 C  
HETATM    4  CB  UNL     1      -6.973   6.185  67.165  1.00  0.00    -0.068 C  
HETATM    5  CA  UNL     1      -8.243   5.970  66.763  1.00  0.00    -0.106 C  
HETATM    6  N   UNL     1      -9.191   6.918  67.001  1.00  0.00    -0.137 N  
HETATM    7  C   UNL     1      -8.514   4.642  66.117  1.00  0.00    -0.114 C  
HETATM    8  C   UNL     1     -10.530   7.038  67.000  1.00  0.00    -0.316 C  
HETATM    9  OXT UNL     1      -7.637   3.805  65.934  1.00  0.00    -0.083 OA 
HETATM   10  O   UNL     1      -9.775   4.411  65.704  1.00  0.00    -0.175 OA 
HETATM   11  CA  UNL     1     -10.426   8.456  67.684  1.00  0.00    -0.239 C  
HETATM   12  O   UNL     1     -11.373   6.237  66.664  1.00  0.00    -0.165 OA 
ENDROOT
BRANCH  11  13
HETATM   13  N   UNL     1     -10.894   8.488  69.097  1.00  0.00    -0.418 N  
HETATM   14  H   UNL     1     -11.271   7.629  69.495  1.00  0.00     0.000 HD 
HETATM   15  C   UNL     1     -10.850   9.601  69.899  1.00  0.00    -0.256 C  
HETATM   16  O   UNL     1     -10.515  10.700  69.454  1.00  0.00    -0.219 OA 
BRANCH  15  17
HETATM   17  C   UNL     1     -11.156   9.386  71.376  1.00  0.00    -0.450 C  
HETATM   18  C   UNL     1     -12.190  10.048  71.951  1.00  0.00    -0.269 C  
BRANCH  17  19
HETATM   19  C   UNL     1     -10.338   8.467  72.142  1.00  0.00    -0.339 A  
HETATM   20  C   UNL     1      -8.960   8.507  72.246  1.00  0.00    -0.229 A  
HETATM   21  H2  UNL     1      -9.619   5.313  74.900  1.00  0.00     0.000 HD 
HETATM   22  S   UNL     1      -8.422   7.272  73.308  1.00  0.00    -0.139 SA 
HETATM   23  H1  UNL     1     -11.331   5.512  74.552  1.00  0.00     0.000 HD 
HETATM   24  N   UNL     1     -10.945   7.469  72.890  1.00  0.00    -0.356 NA 
HETATM   25  N   UNL     1     -10.364   5.797  74.400  1.00  0.00    -0.274 NA 
HETATM   26  C   UNL     1     -10.047   6.792  73.562  1.00  0.00    -0.268 A  
ENDBRANCH  17  19
BRANCH  18  27
HETATM   27  C   UNL     1     -13.263  10.929  71.364  1.00  0.00    -0.355 C  
HETATM   28  O   UNL     1     -13.826  12.973  72.529  1.00  0.00    -0.625 OA 
HETATM   29  C   UNL     1     -13.159  12.412  71.671  1.00  0.00    -0.307 C  
HETATM   30  O   UNL     1     -12.280  13.080  70.895  1.00  0.00    -0.354 OA 
ENDBRANCH  18  27
ENDBRANCH  15  17
ENDBRANCH  11  13
TORSDOF 4
ENDMDL
MODEL       89
REMARK 921   NORMALIZED FREE ENERGY PREDICTED BY IDOCK:   -5.55 KCAL/MOL
REMARK 922        TOTAL FREE ENERGY PREDICTED BY IDOCK:   -7.40 KCAL/MOL
REMARK 923 INTER-LIGAND FREE ENERGY PREDICTED BY IDOCK:   -6.63 KCAL/MOL
REMARK 924 INTRA-LIGAND FREE ENERGY PREDICTED BY IDOCK:   -0.77 KCAL/MOL
REMARK 927      BINDING AFFINITY PREDICTED BY RF-SCORE:    0.00 PKD
ROOT
HETATM    1  CE  UNL     1     -10.165  12.072  64.843  1.00  0.00    -0.270 C  
HETATM    2  SD  UNL     1     -11.768  11.231  64.784  1.00  0.00     0.560 SA 
HETATM    3  CG  UNL     1     -12.379  12.197  63.375  1.00  0.00    -0.538 C  
HETATM    4  CB  UNL     1     -12.139  13.669  63.535  1.00  0.00    -0.341 C  
HETATM    5  CA  UNL     1     -11.242  14.260  64.352  1.00  0.00    -0.249 C  
HETATM    6  N   UNL     1     -10.389  13.489  65.080  1.00  0.00    -0.347 N  
HETATM    7  C   UNL     1     -11.303  15.758  64.424  1.00  0.00    -0.265 C  
HETATM    8  C   UNL     1      -9.552  13.609  66.125  1.00  0.00    -0.209 C  
HETATM    9  OXT UNL     1     -12.098  16.420  63.765  1.00  0.00    -0.927 OA 
HETATM   10  O   UNL     1     -10.412  16.367  65.229  1.00  0.00    -0.572 OA 
HETATM   11  CA  UNL     1      -9.375  12.042  66.193  1.00  0.00    -0.211 C  
HETATM   12  O   UNL     1      -9.229  14.599  66.742  1.00  0.00    -0.238 OA 
ENDROOT
BRANCH  11  13
HETATM   13  N   UNL     1     -10.012  11.406  67.377  1.00  0.00    -0.185 N  
HETATM   14  H   UNL     1     -10.981  11.100  67.291  1.00  0.00     0.000 HD 
HETATM   15  C   UNL     1      -9.380  11.204  68.579  1.00  0.00    -0.190 C  
HETATM   16  O   UNL     1      -8.252  11.648  68.794  1.00  0.00    -0.134 OA 
BRANCH  15  17
HETATM   17  C   UNL     1     -10.113  10.335  69.594  1.00  0.00    -0.257 C  
HETATM   18  C   UNL     1     -11.332  10.718  70.050  1.00  0.00    -0.397 C  
BRANCH  17  19
HETATM   19  C   UNL     1      -9.497   9.105  70.050  1.00  0.00    -0.198 A  
HETATM   20  C   UNL     1      -8.736   8.960  71.195  1.00  0.00    -0.222 A  
HETATM   21  H2  UNL     1      -8.723   4.925  70.012  1.00  0.00     0.000 HD 
HETATM   22  S   UNL     1      -8.267   7.320  71.377  1.00  0.00    -0.106 SA 
HETATM   23  H1  UNL     1      -9.693   5.433  68.636  1.00  0.00     0.000 HD 
HETATM   24  N   UNL     1      -9.693   7.934  69.335  1.00  0.00    -0.168 NA 
HETATM   25  N   UNL     1      -9.187   5.668  69.489  1.00  0.00    -0.127 NA 
HETATM   26  C   UNL     1      -9.117   6.926  69.942  1.00  0.00    -0.144 A  
ENDBRANCH  17  19
BRANCH  18  27
HETATM   27  C   UNL     1     -12.242  11.847  69.641  1.00  0.00    -0.216 C  
HETATM   28  O   UNL     1     -13.077  13.322  71.369  1.00  0.00    -0.337 OA 
HETATM   29  C   UNL     1     -12.222  13.081  70.526  1.00  0.00    -0.313 C  
HETATM   30  O   UNL     1     -11.190  13.917  70.292  1.00  0.00    -0.030 OA 
ENDBRANCH  18  27
ENDBRANCH  15  17
ENDBRANCH  11  13
TORSDOF 4
ENDMDL
MODEL       90
REMARK 921   NORMALIZED FREE ENERGY PREDICTED BY IDOCK:   -5.54 KCAL/MOL
REMARK 922        TOTAL FREE ENERGY PREDICTED BY IDOCK:   -7.38 KCAL/MOL
REMARK 923 INTER-LIGAND FREE ENERGY PREDICTED BY IDOCK:   -6.51 KCAL/MOL
REMARK 924 INTRA-LIGAND FREE ENERGY PREDICTED BY IDOCK:   -0.87 KCAL/MOL
REMARK 927      BINDING AFFINITY PREDICTED BY RF-SCORE:    0.00 PKD
ROOT
HETATM    1  CE  UNL     1     -11.009  13.663  68.072  1.00  0.00    -0.250 C  
HETATM    2  SD  UNL     1     -11.795  13.750  69.702  1.00  0.00    -0.347 SA 
HETATM    3  CG  UNL     1     -12.080  15.540  69.621  1.00  0.00    -0.328 C  
HETATM    4  CB  UNL     1     -10.871  16.299  69.163  1.00  0.00    -0.314 C  
HETATM    5  CA  UNL     1      -9.816  15.807  68.481  1.00  0.00    -0.209 C  
HETATM    6  N   UNL     1      -9.825  14.507  68.079  1.00  0.00    -0.218 N  
HETATM    7  C   UNL     1      -8.670  16.754  68.267  1.00  0.00    -0.227 C  
HETATM    8  C   UNL     1      -8.966  13.580  67.619  1.00  0.00    -0.200 C  
HETATM    9  OXT UNL     1      -8.690  17.916  68.659  1.00  0.00    -0.301 OA 
HETATM   10  O   UNL     1      -7.610  16.282  67.584  1.00  0.00    -0.130 OA 
HETATM   11  CA  UNL     1     -10.059  12.453  67.784  1.00  0.00    -0.203 C  
HETATM   12  O   UNL     1      -7.797  13.692  67.326  1.00  0.00    -0.159 OA 
ENDROOT
BRANCH  11  13
HETATM   13  N   UNL     1      -9.781  11.489  68.883  1.00  0.00    -0.393 N  
HETATM   14  H   UNL     1      -9.048  11.725  69.551  1.00  0.00     0.000 HD 
HETATM   15  C   UNL     1     -10.448  10.301  69.054  1.00  0.00    -0.217 C  
HETATM   16  O   UNL     1     -11.262   9.897  68.224  1.00  0.00    -0.195 OA 
BRANCH  15  17
HETATM   17  C   UNL     1     -10.186   9.558  70.359  1.00  0.00    -0.337 C  
HETATM   18  C   UNL     1     -11.083   9.644  71.372  1.00  0.00    -0.397 C  
BRANCH  17  19
HETATM   19  C   UNL     1      -8.982   8.763  70.491  1.00  0.00    -0.177 A  
HETATM   20  C   UNL     1      -8.849   7.433  70.139  1.00  0.00    -0.147 A  
HETATM   21  H2  UNL     1      -4.854   8.101  71.266  1.00  0.00     0.000 HD 
HETATM   22  S   UNL     1      -7.235   6.919  70.405  1.00  0.00    -0.077 SA 
HETATM   23  H1  UNL     1      -5.342   9.750  71.634  1.00  0.00     0.000 HD 
HETATM   24  N   UNL     1      -7.820   9.352  70.967  1.00  0.00    -0.320 NA 
HETATM   25  N   UNL     1      -5.583   8.813  71.312  1.00  0.00    -0.036 NA 
HETATM   26  C   UNL     1      -6.830   8.494  70.946  1.00  0.00    -0.052 A  
ENDBRANCH  17  19
BRANCH  18  27
HETATM   27  C   UNL     1     -12.453  10.268  71.444  1.00  0.00    -0.528 C  
HETATM   28  O   UNL     1     -14.372   8.862  70.999  1.00  0.00    -0.151 OA 
HETATM   29  C   UNL     1     -13.596   9.340  71.816  1.00  0.00    -0.398 C  
HETATM   30  O   UNL     1     -13.709   9.100  73.138  1.00  0.00    -0.201 OA 
ENDBRANCH  18  27
ENDBRANCH  15  17
ENDBRANCH  11  13
TORSDOF 4
ENDMDL
MODEL       91
REMARK 921   NORMALIZED FREE ENERGY PREDICTED BY IDOCK:   -5.53 KCAL/MOL
REMARK 922        TOTAL FREE ENERGY PREDICTED BY IDOCK:   -7.38 KCAL/MOL
REMARK 923 INTER-LIGAND FREE ENERGY PREDICTED BY IDOCK:   -6.55 KCAL/MOL
REMARK 924 INTRA-LIGAND FREE ENERGY PREDICTED BY IDOCK:   -0.84 KCAL/MOL
REMARK 927      BINDING AFFINITY PREDICTED BY RF-SCORE:    0.00 PKD
ROOT
HETATM    1  CE  UNL     1     -10.799  10.431  68.649  1.00  0.00    -0.232 C  
HETATM    2  SD  UNL     1      -9.148   9.793  69.035  1.00  0.00    -0.167 SA 
HETATM    3  CG  UNL     1      -9.767   8.332  69.915  1.00  0.00    -0.180 C  
HETATM    4  CB  UNL     1     -10.856   8.664  70.892  1.00  0.00    -0.288 C  
HETATM    5  CA  UNL     1     -11.632   9.768  70.897  1.00  0.00    -0.361 C  
HETATM    6  N   UNL     1     -11.507  10.680  69.894  1.00  0.00    -0.291 N  
HETATM    7  C   UNL     1     -12.554   9.919  72.072  1.00  0.00    -0.323 C  
HETATM    8  C   UNL     1     -11.865  11.947  69.623  1.00  0.00    -0.337 C  
HETATM    9  OXT UNL     1     -12.628   9.084  72.967  1.00  0.00    -0.157 OA 
HETATM   10  O   UNL     1     -13.341  11.012  72.092  1.00  0.00    -0.451 OA 
HETATM   11  CA  UNL     1     -10.938  11.960  68.346  1.00  0.00    -0.232 C  
HETATM   12  O   UNL     1     -12.562  12.703  70.262  1.00  0.00    -0.122 OA 
ENDROOT
BRANCH  11  13
HETATM   13  N   UNL     1      -9.733  12.824  68.475  1.00  0.00    -0.370 N  
HETATM   14  H   UNL     1      -9.312  12.922  69.398  1.00  0.00     0.000 HD 
HETATM   15  C   UNL     1      -9.151  13.497  67.430  1.00  0.00    -0.219 C  
HETATM   16  O   UNL     1      -9.668  13.518  66.312  1.00  0.00    -0.285 OA 
BRANCH  15  17
HETATM   17  C   UNL     1      -7.798  14.142  67.707  1.00  0.00    -0.177 C  
HETATM   18  C   UNL     1      -6.711  13.359  67.917  1.00  0.00    -0.150 C  
BRANCH  17  19
HETATM   19  C   UNL     1      -7.695  15.587  67.734  1.00  0.00    -0.140 A  
HETATM   20  C   UNL     1      -7.555  16.365  68.868  1.00  0.00    -0.220 A  
HETATM   21  H2  UNL     1      -7.285  19.464  66.039  1.00  0.00     0.000 HD 
HETATM   22  S   UNL     1      -7.404  18.015  68.425  1.00  0.00    -0.269 SA 
HETATM   23  H1  UNL     1      -7.491  18.222  64.812  1.00  0.00     0.000 HD 
HETATM   24  N   UNL     1      -7.686  16.296  66.543  1.00  0.00    -0.256 NA 
HETATM   25  N   UNL     1      -7.425  18.484  65.795  1.00  0.00    -0.508 NA 
HETATM   26  C   UNL     1      -7.516  17.575  66.773  1.00  0.00    -0.219 A  
ENDBRANCH  17  19
BRANCH  18  27
HETATM   27  C   UNL     1      -6.516  11.868  67.802  1.00  0.00    -0.084 C  
HETATM   28  O   UNL     1      -7.379  10.752  65.836  1.00  0.00    -0.146 OA 
HETATM   29  C   UNL     1      -6.441  11.306  66.394  1.00  0.00    -0.080 C  
HETATM   30  O   UNL     1      -5.235  11.442  65.804  1.00  0.00    -0.283 OA 
ENDBRANCH  18  27
ENDBRANCH  15  17
ENDBRANCH  11  13
TORSDOF 4
ENDMDL
MODEL       92
REMARK 921   NORMALIZED FREE ENERGY PREDICTED BY IDOCK:   -5.53 KCAL/MOL
REMARK 922        TOTAL FREE ENERGY PREDICTED BY IDOCK:   -7.38 KCAL/MOL
REMARK 923 INTER-LIGAND FREE ENERGY PREDICTED BY IDOCK:   -6.76 KCAL/MOL
REMARK 924 INTRA-LIGAND FREE ENERGY PREDICTED BY IDOCK:   -0.61 KCAL/MOL
REMARK 927      BINDING AFFINITY PREDICTED BY RF-SCORE:    0.00 PKD
ROOT
HETATM    1  CE  UNL     1     -10.424   8.639  69.455  1.00  0.00    -0.218 C  
HETATM    2  SD  UNL     1     -10.675   7.687  67.934  1.00  0.00    -0.047 SA 
HETATM    3  CG  UNL     1     -10.373   6.082  68.724  1.00  0.00    -0.214 C  
HETATM    4  CB  UNL     1      -9.150   6.086  69.593  1.00  0.00    -0.139 C  
HETATM    5  CA  UNL     1      -8.534   7.165  70.121  1.00  0.00    -0.139 C  
HETATM    6  N   UNL     1      -9.073   8.401  69.937  1.00  0.00    -0.145 N  
HETATM    7  C   UNL     1      -7.243   6.900  70.840  1.00  0.00    -0.072 C  
HETATM    8  C   UNL     1      -8.718   9.692  70.060  1.00  0.00    -0.231 C  
HETATM    9  OXT UNL     1      -6.779   5.772  70.971  1.00  0.00    -0.049 OA 
HETATM   10  O   UNL     1      -6.616   7.963  71.378  1.00  0.00    -0.041 OA 
HETATM   11  CA  UNL     1     -10.033  10.148  69.315  1.00  0.00    -0.219 C  
HETATM   12  O   UNL     1      -7.699  10.171  70.504  1.00  0.00    -0.232 OA 
ENDROOT
BRANCH  11  13
HETATM   13  N   UNL     1      -9.803  10.701  67.953  1.00  0.00    -0.159 N  
HETATM   14  H   UNL     1      -8.841  10.777  67.625  1.00  0.00     0.000 HD 
HETATM   15  C   UNL     1     -10.803  11.115  67.109  1.00  0.00    -0.273 C  
HETATM   16  O   UNL     1     -11.977  11.160  67.478  1.00  0.00    -0.580 OA 
BRANCH  15  17
HETATM   17  C   UNL     1     -10.394  11.434  65.676  1.00  0.00    -0.307 C  
HETATM   18  C   UNL     1     -10.733  12.629  65.132  1.00  0.00    -0.321 C  
BRANCH  17  19
HETATM   19  C   UNL     1      -9.639  10.455  64.920  1.00  0.00    -0.289 A  
HETATM   20  C   UNL     1      -9.360  10.519  63.568  1.00  0.00    -0.293 A  
HETATM   21  H2  UNL     1      -7.184   7.022  64.412  1.00  0.00     0.000 HD 
HETATM   22  S   UNL     1      -8.384   9.184  63.112  1.00  0.00    -0.192 SA 
HETATM   23  H1  UNL     1      -7.719   7.214  66.076  1.00  0.00     0.000 HD 
HETATM   24  N   UNL     1      -9.090   9.361  65.572  1.00  0.00    -0.202 NA 
HETATM   25  N   UNL     1      -7.716   7.541  65.111  1.00  0.00    -0.103 NA 
HETATM   26  C   UNL     1      -8.391   8.634  64.735  1.00  0.00    -0.157 A  
ENDBRANCH  17  19
BRANCH  18  27
HETATM   27  C   UNL     1     -11.373  13.855  65.731  1.00  0.00    -0.308 C  
HETATM   28  O   UNL     1     -10.771  16.016  64.822  1.00  0.00    -0.611 OA 
HETATM   29  C   UNL     1     -11.526  15.052  64.810  1.00  0.00    -0.403 C  
HETATM   30  O   UNL     1     -12.589  14.984  63.982  1.00  0.00    -0.817 OA 
ENDBRANCH  18  27
ENDBRANCH  15  17
ENDBRANCH  11  13
TORSDOF 4
ENDMDL
MODEL       93
REMARK 921   NORMALIZED FREE ENERGY PREDICTED BY IDOCK:   -5.51 KCAL/MOL
REMARK 922        TOTAL FREE ENERGY PREDICTED BY IDOCK:   -7.36 KCAL/MOL
REMARK 923 INTER-LIGAND FREE ENERGY PREDICTED BY IDOCK:   -6.49 KCAL/MOL
REMARK 924 INTRA-LIGAND FREE ENERGY PREDICTED BY IDOCK:   -0.86 KCAL/MOL
REMARK 927      BINDING AFFINITY PREDICTED BY RF-SCORE:    0.00 PKD
ROOT
HETATM    1  CE  UNL     1     -11.168   6.151  70.202  1.00  0.00    -0.382 C  
HETATM    2  SD  UNL     1      -9.792   5.697  69.116  1.00  0.00    -0.177 SA 
HETATM    3  CG  UNL     1      -9.599   4.038  69.823  1.00  0.00    -0.210 C  
HETATM    4  CB  UNL     1      -9.599   4.044  71.323  1.00  0.00    -0.245 C  
HETATM    5  CA  UNL     1     -10.085   5.011  72.130  1.00  0.00    -0.196 C  
HETATM    6  N   UNL     1     -10.715   6.086  71.583  1.00  0.00    -0.243 N  
HETATM    7  C   UNL     1      -9.831   4.832  73.598  1.00  0.00    -0.143 C  
HETATM    8  C   UNL     1     -11.120   7.317  71.941  1.00  0.00    -0.238 C  
HETATM    9  OXT UNL     1      -9.243   3.857  74.054  1.00  0.00    -0.093 OA 
HETATM   10  O   UNL     1     -10.313   5.784  74.420  1.00  0.00    -0.273 OA 
HETATM   11  CA  UNL     1     -11.441   7.674  70.438  1.00  0.00    -0.174 C  
HETATM   12  O   UNL     1     -11.094   7.849  73.028  1.00  0.00    -0.402 OA 
ENDROOT
BRANCH  11  13
HETATM   13  N   UNL     1     -10.511   8.665  69.833  1.00  0.00    -0.214 N  
HETATM   14  H   UNL     1      -9.713   8.312  69.306  1.00  0.00     0.000 HD 
HETATM   15  C   UNL     1     -10.658  10.026  69.939  1.00  0.00    -0.282 C  
HETATM   16  O   UNL     1     -11.528  10.524  70.653  1.00  0.00    -0.322 OA 
BRANCH  15  17
HETATM   17  C   UNL     1      -9.743  10.877  69.066  1.00  0.00    -0.181 C  
HETATM   18  C   UNL     1     -10.279  11.823  68.255  1.00  0.00    -0.209 C  
BRANCH  17  19
HETATM   19  C   UNL     1      -8.311  10.666  69.124  1.00  0.00    -0.135 A  
HETATM   20  C   UNL     1      -7.429  10.820  68.071  1.00  0.00    -0.090 A  
HETATM   21  H2  UNL     1      -4.588   9.932  71.041  1.00  0.00     0.000 HD 
HETATM   22  S   UNL     1      -5.826  10.532  68.609  1.00  0.00    -0.039 SA 
HETATM   23  H1  UNL     1      -5.944   9.799  72.153  1.00  0.00     0.000 HD 
HETATM   24  N   UNL     1      -7.717  10.321  70.329  1.00  0.00    -0.159 NA 
HETATM   25  N   UNL     1      -5.593   9.970  71.211  1.00  0.00    -0.126 NA 
HETATM   26  C   UNL     1      -6.416  10.244  70.192  1.00  0.00    -0.128 A  
ENDBRANCH  17  19
BRANCH  18  27
HETATM   27  C   UNL     1     -11.689  12.336  68.113  1.00  0.00    -0.408 C  
HETATM   28  O   UNL     1     -12.061  14.279  66.719  1.00  0.00    -0.430 OA 
HETATM   29  C   UNL     1     -12.014  13.060  66.819  1.00  0.00    -0.369 C  
HETATM   30  O   UNL     1     -12.277  12.245  65.777  1.00  0.00    -0.622 OA 
ENDBRANCH  18  27
ENDBRANCH  15  17
ENDBRANCH  11  13
TORSDOF 4
ENDMDL
MODEL       94
REMARK 921   NORMALIZED FREE ENERGY PREDICTED BY IDOCK:   -5.51 KCAL/MOL
REMARK 922        TOTAL FREE ENERGY PREDICTED BY IDOCK:   -7.35 KCAL/MOL
REMARK 923 INTER-LIGAND FREE ENERGY PREDICTED BY IDOCK:   -6.18 KCAL/MOL
REMARK 924 INTRA-LIGAND FREE ENERGY PREDICTED BY IDOCK:   -1.17 KCAL/MOL
REMARK 927      BINDING AFFINITY PREDICTED BY RF-SCORE:    0.00 PKD
ROOT
HETATM    1  CE  UNL     1      -9.115  11.174  68.950  1.00  0.00    -0.089 C  
HETATM    2  SD  UNL     1      -7.792  10.154  68.251  1.00  0.00    -0.094 SA 
HETATM    3  CG  UNL     1      -7.349  11.361  66.971  1.00  0.00    -0.144 C  
HETATM    4  CB  UNL     1      -8.545  11.903  66.248  1.00  0.00    -0.016 C  
HETATM    5  CA  UNL     1      -9.825  11.894  66.677  1.00  0.00    -0.201 C  
HETATM    6  N   UNL     1     -10.111  11.417  67.919  1.00  0.00    -0.179 N  
HETATM    7  C   UNL     1     -10.852  12.376  65.695  1.00  0.00    -0.277 C  
HETATM    8  C   UNL     1     -11.179  11.018  68.633  1.00  0.00    -0.263 C  
HETATM    9  OXT UNL     1     -10.558  12.783  64.576  1.00  0.00    -0.318 OA 
HETATM   10  O   UNL     1     -12.135  12.379  66.107  1.00  0.00    -0.611 OA 
HETATM   11  CA  UNL     1     -10.239  10.452  69.767  1.00  0.00    -0.184 C  
HETATM   12  O   UNL     1     -12.354  11.052  68.343  1.00  0.00    -0.528 OA 
ENDROOT
BRANCH  11  13
HETATM   13  N   UNL     1     -10.213   8.967  69.855  1.00  0.00    -0.194 N  
HETATM   14  H   UNL     1      -9.420   8.478  69.441  1.00  0.00     0.000 HD 
HETATM   15  C   UNL     1     -11.188   8.213  70.458  1.00  0.00    -0.247 C  
HETATM   16  O   UNL     1     -12.227   8.723  70.876  1.00  0.00    -0.240 OA 
BRANCH  15  17
HETATM   17  C   UNL     1     -10.879   6.733  70.652  1.00  0.00    -0.292 C  
HETATM   18  C   UNL     1     -11.000   5.879  69.606  1.00  0.00    -0.447 C  
BRANCH  17  19
HETATM   19  C   UNL     1     -10.452   6.264  71.955  1.00  0.00    -0.209 A  
HETATM   20  C   UNL     1      -9.883   7.042  72.946  1.00  0.00    -0.177 A  
HETATM   21  H2  UNL     1     -10.070   3.442  75.111  1.00  0.00     0.000 HD 
HETATM   22  S   UNL     1      -9.599   6.087  74.342  1.00  0.00    -0.239 SA 
HETATM   23  H1  UNL     1     -10.778   2.731  73.667  1.00  0.00     0.000 HD 
HETATM   24  N   UNL     1     -10.649   4.937  72.304  1.00  0.00    -0.207 NA 
HETATM   25  N   UNL     1     -10.383   3.540  74.145  1.00  0.00    -0.169 NA 
HETATM   26  C   UNL     1     -10.263   4.727  73.538  1.00  0.00    -0.177 A  
ENDBRANCH  17  19
BRANCH  18  27
HETATM   27  C   UNL     1     -11.278   6.122  68.144  1.00  0.00    -0.166 C  
HETATM   28  O   UNL     1     -10.043   7.875  67.023  1.00  0.00    -0.221 OA 
HETATM   29  C   UNL     1     -10.133   6.693  67.327  1.00  0.00    -0.170 C  
HETATM   30  O   UNL     1      -9.221   5.780  66.933  1.00  0.00    -0.118 OA 
ENDBRANCH  18  27
ENDBRANCH  15  17
ENDBRANCH  11  13
TORSDOF 4
ENDMDL
MODEL       95
REMARK 921   NORMALIZED FREE ENERGY PREDICTED BY IDOCK:   -5.50 KCAL/MOL
REMARK 922        TOTAL FREE ENERGY PREDICTED BY IDOCK:   -7.34 KCAL/MOL
REMARK 923 INTER-LIGAND FREE ENERGY PREDICTED BY IDOCK:   -6.25 KCAL/MOL
REMARK 924 INTRA-LIGAND FREE ENERGY PREDICTED BY IDOCK:   -1.09 KCAL/MOL
REMARK 927      BINDING AFFINITY PREDICTED BY RF-SCORE:    0.00 PKD
ROOT
HETATM    1  CE  UNL     1      -9.816   9.203  71.231  1.00  0.00    -0.293 C  
HETATM    2  SD  UNL     1     -11.599   9.520  71.266  1.00  0.00    -0.400 SA 
HETATM    3  CG  UNL     1     -11.966   8.126  72.367  1.00  0.00    -0.372 C  
HETATM    4  CB  UNL     1     -11.285   6.859  71.943  1.00  0.00    -0.287 C  
HETATM    5  CA  UNL     1     -10.208   6.748  71.137  1.00  0.00    -0.193 C  
HETATM    6  N   UNL     1      -9.589   7.873  70.687  1.00  0.00    -0.166 N  
HETATM    7  C   UNL     1      -9.810   5.351  70.757  1.00  0.00    -0.190 C  
HETATM    8  C   UNL     1      -8.699   8.236  69.747  1.00  0.00    -0.134 C  
HETATM    9  OXT UNL     1     -10.403   4.359  71.169  1.00  0.00    -0.109 OA 
HETATM   10  O   UNL     1      -8.734   5.220  69.958  1.00  0.00    -0.112 OA 
HETATM   11  CA  UNL     1      -8.999   9.762  70.018  1.00  0.00    -0.222 C  
HETATM   12  O   UNL     1      -8.059   7.545  68.985  1.00  0.00    -0.122 OA 
ENDROOT
BRANCH  11  13
HETATM   13  N   UNL     1      -9.733  10.445  68.919  1.00  0.00    -0.188 N  
HETATM   14  H   UNL     1     -10.745  10.533  69.004  1.00  0.00     0.000 HD 
HETATM   15  C   UNL     1      -9.136  10.965  67.798  1.00  0.00    -0.149 C  
HETATM   16  O   UNL     1      -7.937  10.795  67.573  1.00  0.00    -0.109 OA 
BRANCH  15  17
HETATM   17  C   UNL     1     -10.014  11.826  66.898  1.00  0.00    -0.220 C  
HETATM   18  C   UNL     1     -10.300  11.408  65.640  1.00  0.00    -0.307 C  
BRANCH  17  19
HETATM   19  C   UNL     1     -10.537  13.078  67.408  1.00  0.00    -0.234 A  
HETATM   20  C   UNL     1     -10.630  14.261  66.700  1.00  0.00    -0.278 A  
HETATM   21  H2  UNL     1     -12.486  15.587  70.232  1.00  0.00     0.000 HD 
HETATM   22  S   UNL     1     -11.372  15.464  67.673  1.00  0.00    -0.241 SA 
HETATM   23  H1  UNL     1     -12.215  13.967  70.860  1.00  0.00     0.000 HD 
HETATM   24  N   UNL     1     -11.043  13.135  68.697  1.00  0.00    -0.257 NA 
HETATM   25  N   UNL     1     -12.121  14.644  70.104  1.00  0.00    -0.308 NA 
HETATM   26  C   UNL     1     -11.530  14.326  68.945  1.00  0.00    -0.286 A  
ENDBRANCH  17  19
BRANCH  18  27
HETATM   27  C   UNL     1     -10.012  10.111  64.928  1.00  0.00    -0.358 C  
HETATM   28  O   UNL     1      -9.533  10.193  62.558  1.00  0.00    -0.301 OA 
HETATM   29  C   UNL     1      -9.113  10.199  63.708  1.00  0.00    -0.261 C  
HETATM   30  O   UNL     1      -7.796  10.259  63.990  1.00  0.00    -0.156 OA 
ENDBRANCH  18  27
ENDBRANCH  15  17
ENDBRANCH  11  13
TORSDOF 4
ENDMDL
MODEL       96
REMARK 921   NORMALIZED FREE ENERGY PREDICTED BY IDOCK:   -5.45 KCAL/MOL
REMARK 922        TOTAL FREE ENERGY PREDICTED BY IDOCK:   -7.28 KCAL/MOL
REMARK 923 INTER-LIGAND FREE ENERGY PREDICTED BY IDOCK:   -6.96 KCAL/MOL
REMARK 924 INTRA-LIGAND FREE ENERGY PREDICTED BY IDOCK:   -0.32 KCAL/MOL
REMARK 927      BINDING AFFINITY PREDICTED BY RF-SCORE:    0.00 PKD
ROOT
HETATM    1  CE  UNL     1     -10.420   8.872  68.774  1.00  0.00    -0.200 C  
HETATM    2  SD  UNL     1      -8.621   9.007  68.940  1.00  0.00    -0.132 SA 
HETATM    3  CG  UNL     1      -8.487   7.627  70.109  1.00  0.00    -0.138 C  
HETATM    4  CB  UNL     1      -9.501   7.701  71.211  1.00  0.00    -0.166 C  
HETATM    5  CA  UNL     1     -10.656   8.399  71.205  1.00  0.00    -0.215 C  
HETATM    6  N   UNL     1     -11.026   9.071  70.081  1.00  0.00    -0.238 N  
HETATM    7  C   UNL     1     -11.424   8.414  72.495  1.00  0.00    -0.352 C  
HETATM    8  C   UNL     1     -11.900  10.022  69.708  1.00  0.00    -0.021 C  
HETATM    9  OXT UNL     1     -11.050   7.809  73.494  1.00  0.00    -0.279 OA 
HETATM   10  O   UNL     1     -12.582   9.101  72.506  1.00  0.00    -0.341 OA 
HETATM   11  CA  UNL     1     -11.206  10.138  68.295  1.00  0.00    -0.183 C  
HETATM   12  O   UNL     1     -12.771  10.562  70.352  1.00  0.00    -0.331 OA 
ENDROOT
BRANCH  11  13
HETATM   13  N   UNL     1     -10.455  11.405  68.084  1.00  0.00    -0.181 N  
HETATM   14  H   UNL     1      -9.984  11.820  68.888  1.00  0.00     0.000 HD 
HETATM   15  C   UNL     1     -10.355  12.051  66.878  1.00  0.00    -0.213 C  
HETATM   16  O   UNL     1     -10.988  11.673  65.892  1.00  0.00    -0.291 OA 
BRANCH  15  17
HETATM   17  C   UNL     1      -9.360  13.204  66.806  1.00  0.00    -0.244 C  
HETATM   18  C   UNL     1      -8.053  12.982  67.093  1.00  0.00    -0.114 C  
BRANCH  17  19
HETATM   19  C   UNL     1      -9.828  14.520  66.423  1.00  0.00    -0.290 A  
HETATM   20  C   UNL     1      -9.502  15.708  67.051  1.00  0.00    -0.224 A  
HETATM   21  H2  UNL     1     -11.784  17.350  63.924  1.00  0.00     0.000 HD 
HETATM   22  S   UNL     1     -10.225  17.023  66.220  1.00  0.00    -0.313 SA 
HETATM   23  H1  UNL     1     -12.025  15.698  63.371  1.00  0.00     0.000 HD 
HETATM   24  N   UNL     1     -10.640  14.661  65.308  1.00  0.00    -0.362 NA 
HETATM   25  N   UNL     1     -11.625  16.350  64.046  1.00  0.00    -1.082 NA 
HETATM   26  C   UNL     1     -10.897  15.927  65.087  1.00  0.00    -0.421 A  
ENDBRANCH  17  19
BRANCH  18  27
HETATM   27  C   UNL     1      -7.293  11.710  67.371  1.00  0.00    -0.128 C  
HETATM   28  O   UNL     1      -6.842  10.222  65.516  1.00  0.00    -0.123 OA 
HETATM   29  C   UNL     1      -6.473  11.152  66.221  1.00  0.00    -0.082 C  
HETATM   30  O   UNL     1      -5.276  11.751  66.049  1.00  0.00    -0.294 OA 
ENDBRANCH  18  27
ENDBRANCH  15  17
ENDBRANCH  11  13
TORSDOF 4
ENDMDL
MODEL       97
REMARK 921   NORMALIZED FREE ENERGY PREDICTED BY IDOCK:   -5.43 KCAL/MOL
REMARK 922        TOTAL FREE ENERGY PREDICTED BY IDOCK:   -7.25 KCAL/MOL
REMARK 923 INTER-LIGAND FREE ENERGY PREDICTED BY IDOCK:   -6.33 KCAL/MOL
REMARK 924 INTRA-LIGAND FREE ENERGY PREDICTED BY IDOCK:   -0.93 KCAL/MOL
REMARK 927      BINDING AFFINITY PREDICTED BY RF-SCORE:    0.00 PKD
ROOT
HETATM    1  CE  UNL     1      -6.367  13.427  68.524  1.00  0.00    -0.087 C  
HETATM    2  SD  UNL     1      -6.118  14.211  70.137  1.00  0.00    -0.156 SA 
HETATM    3  CG  UNL     1      -5.221  12.799  70.840  1.00  0.00    -0.160 C  
HETATM    4  CB  UNL     1      -5.901  11.490  70.570  1.00  0.00    -0.129 C  
HETATM    5  CA  UNL     1      -6.810  11.232  69.606  1.00  0.00    -0.095 C  
HETATM    6  N   UNL     1      -7.132  12.205  68.711  1.00  0.00    -0.107 N  
HETATM    7  C   UNL     1      -7.441   9.870  69.643  1.00  0.00    -0.122 C  
HETATM    8  C   UNL     1      -8.082  12.470  67.797  1.00  0.00    -0.164 C  
HETATM    9  OXT UNL     1      -7.138   9.023  70.477  1.00  0.00    -0.054 OA 
HETATM   10  O   UNL     1      -8.347   9.592  68.686  1.00  0.00    -0.114 OA 
HETATM   11  CA  UNL     1      -7.546  13.946  67.635  1.00  0.00    -0.178 C  
HETATM   12  O   UNL     1      -8.998  11.777  67.416  1.00  0.00    -0.164 OA 
ENDROOT
BRANCH  11  13
HETATM   13  N   UNL     1      -8.451  14.988  68.189  1.00  0.00    -0.146 N  
HETATM   14  H   UNL     1      -8.184  15.434  69.067  1.00  0.00     0.000 HD 
HETATM   15  C   UNL     1      -9.621  15.390  67.596  1.00  0.00    -0.210 C  
HETATM   16  O   UNL     1     -10.064  14.820  66.599  1.00  0.00    -0.253 OA 
BRANCH  15  17
HETATM   17  C   UNL     1     -10.293  16.624  68.187  1.00  0.00    -0.303 C  
HETATM   18  C   UNL     1     -11.178  16.484  69.205  1.00  0.00    -0.221 C  
BRANCH  17  19
HETATM   19  C   UNL     1      -9.968  17.931  67.653  1.00  0.00    -0.324 A  
HETATM   20  C   UNL     1     -10.512  19.132  68.069  1.00  0.00    -0.370 A  
HETATM   21  H2  UNL     1      -7.772  20.706  65.296  1.00  0.00     0.000 HD 
HETATM   22  S   UNL     1      -9.788  20.428  67.211  1.00  0.00    -0.422 SA 
HETATM   23  H1  UNL     1      -7.295  19.043  64.979  1.00  0.00     0.000 HD 
HETATM   24  N   UNL     1      -8.998  18.048  66.668  1.00  0.00    -0.267 NA 
HETATM   25  N   UNL     1      -7.884  19.709  65.479  1.00  0.00    -0.362 NA 
HETATM   26  C   UNL     1      -8.799  19.308  66.370  1.00  0.00    -0.348 A  
ENDBRANCH  17  19
BRANCH  18  27
HETATM   27  C   UNL     1     -11.577  15.283  70.024  1.00  0.00    -0.331 C  
HETATM   28  O   UNL     1     -12.168  15.631  72.345  1.00  0.00    -0.358 OA 
HETATM   29  C   UNL     1     -12.529  15.543  71.178  1.00  0.00    -0.432 C  
HETATM   30  O   UNL     1     -13.825  15.645  70.819  1.00  0.00    -0.449 OA 
ENDBRANCH  18  27
ENDBRANCH  15  17
ENDBRANCH  11  13
TORSDOF 4
ENDMDL
MODEL       98
REMARK 921   NORMALIZED FREE ENERGY PREDICTED BY IDOCK:   -5.39 KCAL/MOL
REMARK 922        TOTAL FREE ENERGY PREDICTED BY IDOCK:   -7.21 KCAL/MOL
REMARK 923 INTER-LIGAND FREE ENERGY PREDICTED BY IDOCK:   -6.43 KCAL/MOL
REMARK 924 INTRA-LIGAND FREE ENERGY PREDICTED BY IDOCK:   -0.77 KCAL/MOL
REMARK 927      BINDING AFFINITY PREDICTED BY RF-SCORE:    0.00 PKD
ROOT
HETATM    1  CE  UNL     1     -10.041   8.093  68.226  1.00  0.00    -0.197 C  
HETATM    2  SD  UNL     1      -8.452   8.046  67.358  1.00  0.00    -0.126 SA 
HETATM    3  CG  UNL     1      -7.868   6.560  68.220  1.00  0.00    -0.106 C  
HETATM    4  CB  UNL     1      -8.083   6.629  69.703  1.00  0.00    -0.126 C  
HETATM    5  CA  UNL     1      -8.949   7.429  70.360  1.00  0.00    -0.150 C  
HETATM    6  N   UNL     1      -9.791   8.230  69.652  1.00  0.00    -0.181 N  
HETATM    7  C   UNL     1      -8.864   7.399  71.859  1.00  0.00    -0.114 C  
HETATM    8  C   UNL     1     -10.596   9.287  69.854  1.00  0.00    -0.226 C  
HETATM    9  OXT UNL     1      -8.080   6.676  72.463  1.00  0.00    -0.103 OA 
HETATM   10  O   UNL     1      -9.724   8.187  72.533  1.00  0.00    -0.229 OA 
HETATM   11  CA  UNL     1     -10.793   9.464  68.298  1.00  0.00    -0.112 C  
HETATM   12  O   UNL     1     -10.888   9.846  70.888  1.00  0.00    -0.319 OA 
ENDROOT
BRANCH  11  13
HETATM   13  N   UNL     1     -10.132  10.669  67.731  1.00  0.00    -0.170 N  
HETATM   14  H   UNL     1      -9.278  10.535  67.191  1.00  0.00     0.000 HD 
HETATM   15  C   UNL     1     -10.597  11.951  67.889  1.00  0.00    -0.201 C  
HETATM   16  O   UNL     1     -11.554  12.201  68.622  1.00  0.00    -0.273 OA 
BRANCH  15  17
HETATM   17  C   UNL     1      -9.919  13.027  67.049  1.00  0.00    -0.242 C  
HETATM   18  C   UNL     1      -8.638  13.381  67.317  1.00  0.00    -0.216 C  
BRANCH  17  19
HETATM   19  C   UNL     1     -10.657  13.651  65.969  1.00  0.00    -0.290 A  
HETATM   20  C   UNL     1     -11.630  13.043  65.199  1.00  0.00    -0.324 A  
HETATM   21  H2  UNL     1     -11.930  16.888  63.524  1.00  0.00     0.000 HD 
HETATM   22  S   UNL     1     -12.282  14.174  64.086  1.00  0.00    -0.288 SA 
HETATM   23  H1  UNL     1     -10.654  17.360  64.639  1.00  0.00     0.000 HD 
HETATM   24  N   UNL     1     -10.436  14.987  65.670  1.00  0.00    -0.324 NA 
HETATM   25  N   UNL     1     -11.272  16.641  64.264  1.00  0.00    -1.080 NA 
HETATM   26  C   UNL     1     -11.243  15.382  64.717  1.00  0.00    -0.395 A  
ENDBRANCH  17  19
BRANCH  18  27
HETATM   27  C   UNL     1      -7.619  12.802  68.265  1.00  0.00    -0.134 C  
HETATM   28  O   UNL     1      -6.203  11.010  67.464  1.00  0.00    -0.051 OA 
HETATM   29  C   UNL     1      -6.371  12.210  67.633  1.00  0.00    -0.109 C  
HETATM   30  O   UNL     1      -5.437  13.120  67.289  1.00  0.00    -0.345 OA 
ENDBRANCH  18  27
ENDBRANCH  15  17
ENDBRANCH  11  13
TORSDOF 4
ENDMDL
MODEL       99
REMARK 921   NORMALIZED FREE ENERGY PREDICTED BY IDOCK:   -5.39 KCAL/MOL
REMARK 922        TOTAL FREE ENERGY PREDICTED BY IDOCK:   -7.20 KCAL/MOL
REMARK 923 INTER-LIGAND FREE ENERGY PREDICTED BY IDOCK:   -6.60 KCAL/MOL
REMARK 924 INTRA-LIGAND FREE ENERGY PREDICTED BY IDOCK:   -0.60 KCAL/MOL
REMARK 927      BINDING AFFINITY PREDICTED BY RF-SCORE:    0.00 PKD
ROOT
HETATM    1  CE  UNL     1     -11.309   6.481  70.210  1.00  0.00    -0.395 C  
HETATM    2  SD  UNL     1     -10.224   5.685  68.997  1.00  0.00    -0.239 SA 
HETATM    3  CG  UNL     1      -9.782   4.307  70.091  1.00  0.00    -0.212 C  
HETATM    4  CB  UNL     1      -9.411   4.760  71.472  1.00  0.00    -0.197 C  
HETATM    5  CA  UNL     1      -9.728   5.936  72.052  1.00  0.00    -0.153 C  
HETATM    6  N   UNL     1     -10.526   6.817  71.388  1.00  0.00    -0.214 N  
HETATM    7  C   UNL     1      -9.110   6.196  73.395  1.00  0.00    -0.131 C  
HETATM    8  C   UNL     1     -10.888   8.110  71.456  1.00  0.00    -0.238 C  
HETATM    9  OXT UNL     1      -8.381   5.385  73.956  1.00  0.00    -0.113 OA 
HETATM   10  O   UNL     1      -9.419   7.363  73.992  1.00  0.00    -0.262 OA 
HETATM   11  CA  UNL     1     -11.588   8.012  70.045  1.00  0.00     0.173 C  
HETATM   12  O   UNL     1     -10.620   8.941  72.295  1.00  0.00    -0.320 OA 
ENDROOT
BRANCH  11  13
HETATM   13  N   UNL     1     -10.886   8.751  68.962  1.00  0.00    -0.420 N  
HETATM   14  H   UNL     1     -10.172   8.254  68.430  1.00  0.00     0.000 HD 
HETATM   15  C   UNL     1     -11.137  10.060  68.633  1.00  0.00    -0.174 C  
HETATM   16  O   UNL     1     -11.899  10.756  69.303  1.00  0.00    -0.300 OA 
BRANCH  15  17
HETATM   17  C   UNL     1     -10.487  10.574  67.353  1.00  0.00    -0.291 C  
HETATM   18  C   UNL     1     -10.914  11.739  66.805  1.00  0.00    -0.336 C  
BRANCH  17  19
HETATM   19  C   UNL     1      -9.415   9.811  66.747  1.00  0.00    -0.163 A  
HETATM   20  C   UNL     1      -8.107  10.232  66.601  1.00  0.00    -0.119 A  
HETATM   21  H2  UNL     1      -7.608   6.349  65.068  1.00  0.00     0.000 HD 
HETATM   22  S   UNL     1      -7.170   8.982  65.893  1.00  0.00    -0.094 SA 
HETATM   23  H1  UNL     1      -9.325   6.120  65.371  1.00  0.00     0.000 HD 
HETATM   24  N   UNL     1      -9.660   8.522  66.298  1.00  0.00    -0.239 NA 
HETATM   25  N   UNL     1      -8.500   6.718  65.396  1.00  0.00    -0.130 NA 
HETATM   26  C   UNL     1      -8.557   7.976  65.850  1.00  0.00    -0.152 A  
ENDBRANCH  17  19
BRANCH  18  27
HETATM   27  C   UNL     1     -11.887  12.779  67.298  1.00  0.00    -0.414 C  
HETATM   28  O   UNL     1     -11.570  15.069  66.585  1.00  0.00    -0.311 OA 
HETATM   29  C   UNL     1     -12.100  13.982  66.398  1.00  0.00    -0.455 C  
HETATM   30  O   UNL     1     -12.952  13.767  65.374  1.00  0.00    -0.706 OA 
ENDBRANCH  18  27
ENDBRANCH  15  17
ENDBRANCH  11  13
TORSDOF 4
ENDMDL
MODEL      100
REMARK 921   NORMALIZED FREE ENERGY PREDICTED BY IDOCK:   -5.38 KCAL/MOL
REMARK 922        TOTAL FREE ENERGY PREDICTED BY IDOCK:   -7.19 KCAL/MOL
REMARK 923 INTER-LIGAND FREE ENERGY PREDICTED BY IDOCK:   -6.34 KCAL/MOL
REMARK 924 INTRA-LIGAND FREE ENERGY PREDICTED BY IDOCK:   -0.84 KCAL/MOL
REMARK 927      BINDING AFFINITY PREDICTED BY RF-SCORE:    0.00 PKD
ROOT
HETATM    1  CE  UNL     1      -8.365  16.126  68.387  1.00  0.00    -0.179 C  
HETATM    2  SD  UNL     1      -8.443  15.447  66.710  1.00  0.00    -0.255 SA 
HETATM    3  CG  UNL     1      -7.775  16.940  65.926  1.00  0.00     0.170 C  
HETATM    4  CB  UNL     1      -8.428  18.196  66.420  1.00  0.00    -0.263 C  
HETATM    5  CA  UNL     1      -9.115  18.353  67.571  1.00  0.00    -0.271 C  
HETATM    6  N   UNL     1      -9.198  17.316  68.449  1.00  0.00    -0.261 N  
HETATM    7  C   UNL     1      -9.789  19.681  67.760  1.00  0.00    -0.383 C  
HETATM    8  C   UNL     1      -9.916  16.953  69.526  1.00  0.00    -0.016 C  
HETATM    9  OXT UNL     1      -9.706  20.588  66.938  1.00  0.00    -0.432 OA 
HETATM   10  O   UNL     1     -10.475  19.859  68.905  1.00  0.00    -0.329 OA 
HETATM   11  CA  UNL     1      -9.303  15.500  69.473  1.00  0.00    -0.276 C  
HETATM   12  O   UNL     1     -10.753  17.577  70.139  1.00  0.00     0.340 OA 
ENDROOT
BRANCH  11  13
HETATM   13  N   UNL     1     -10.267  14.445  69.058  1.00  0.00    -0.335 N  
HETATM   14  H   UNL     1     -11.253  14.697  68.995  1.00  0.00     0.000 HD 
HETATM   15  C   UNL     1      -9.914  13.153  68.755  1.00  0.00    -0.028 C  
HETATM   16  O   UNL     1      -8.764  12.747  68.919  1.00  0.00     0.118 OA 
BRANCH  15  17
HETATM   17  C   UNL     1     -10.999  12.282  68.131  1.00  0.00    -0.269 C  
HETATM   18  C   UNL     1     -11.614  11.336  68.883  1.00  0.00    -0.386 C  
BRANCH  17  19
HETATM   19  C   UNL     1     -11.361  12.487  66.743  1.00  0.00    -0.334 A  
HETATM   20  C   UNL     1     -11.183  11.576  65.720  1.00  0.00    -0.164 A  
HETATM   21  H2  UNL     1     -13.160  14.536  63.481  1.00  0.00     0.000 HD 
HETATM   22  S   UNL     1     -11.817  12.212  64.258  1.00  0.00    -0.371 SA 
HETATM   23  H1  UNL     1     -13.225  15.471  64.969  1.00  0.00     0.000 HD 
HETATM   24  N   UNL     1     -11.984  13.667  66.364  1.00  0.00    -0.403 NA 
HETATM   25  N   UNL     1     -12.942  14.627  64.474  1.00  0.00    -0.344 NA 
HETATM   26  C   UNL     1     -12.292  13.632  65.091  1.00  0.00    -0.452 A  
ENDBRANCH  17  19
BRANCH  18  27
HETATM   27  C   UNL     1     -11.534  11.019  70.354  1.00  0.00    -0.316 C  
HETATM   28  O   UNL     1     -13.372   9.813  71.364  1.00  0.00    -0.379 OA 
HETATM   29  C   UNL     1     -12.278   9.779  70.817  1.00  0.00    -0.256 C  
HETATM   30  O   UNL     1     -11.619   8.622  70.600  1.00  0.00    -0.271 OA 
ENDBRANCH  18  27
ENDBRANCH  15  17
ENDBRANCH  11  13
TORSDOF 4
ENDMDL
MODEL      101
REMARK 921   NORMALIZED FREE ENERGY PREDICTED BY IDOCK:   -5.36 KCAL/MOL
REMARK 922        TOTAL FREE ENERGY PREDICTED BY IDOCK:   -7.16 KCAL/MOL
REMARK 923 INTER-LIGAND FREE ENERGY PREDICTED BY IDOCK:   -5.96 KCAL/MOL
REMARK 924 INTRA-LIGAND FREE ENERGY PREDICTED BY IDOCK:   -1.20 KCAL/MOL
REMARK 927      BINDING AFFINITY PREDICTED BY RF-SCORE:    0.00 PKD
ROOT
HETATM    1  CE  UNL     1      -8.742   9.839  67.709  1.00  0.00    -0.129 C  
HETATM    2  SD  UNL     1      -8.986   8.454  66.567  1.00  0.00    -0.167 SA 
HETATM    3  CG  UNL     1      -9.060   9.505  65.090  1.00  0.00    -0.228 C  
HETATM    4  CB  UNL     1      -9.956  10.694  65.269  1.00  0.00    -0.356 C  
HETATM    5  CA  UNL     1     -10.362  11.235  66.437  1.00  0.00    -0.245 C  
HETATM    6  N   UNL     1      -9.884  10.734  67.609  1.00  0.00    -0.169 N  
HETATM    7  C   UNL     1     -11.374  12.339  66.335  1.00  0.00    -0.354 C  
HETATM    8  C   UNL     1     -10.161  10.786  68.923  1.00  0.00    -0.205 C  
HETATM    9  OXT UNL     1     -11.796  12.753  65.261  1.00  0.00    -0.356 OA 
HETATM   10  O   UNL     1     -11.787  12.895  67.490  1.00  0.00    -0.360 OA 
HETATM   11  CA  UNL     1      -9.131   9.625  69.210  1.00  0.00    -0.172 C  
HETATM   12  O   UNL     1     -10.986  11.449  69.510  1.00  0.00    -0.232 OA 
ENDROOT
BRANCH  11  13
HETATM   13  N   UNL     1      -9.758   8.335  69.606  1.00  0.00    -0.172 N  
HETATM   14  H   UNL     1     -10.705   8.145  69.281  1.00  0.00     0.000 HD 
HETATM   15  C   UNL     1      -9.143   7.384  70.380  1.00  0.00    -0.157 C  
HETATM   16  O   UNL     1      -8.047   7.591  70.903  1.00  0.00    -0.101 OA 
BRANCH  15  17
HETATM   17  C   UNL     1      -9.848   6.037  70.489  1.00  0.00    -0.222 C  
HETATM   18  C   UNL     1     -10.813   5.858  71.425  1.00  0.00    -0.332 C  
BRANCH  17  19
HETATM   19  C   UNL     1      -9.480   4.969  69.582  1.00  0.00    -0.143 A  
HETATM   20  C   UNL     1      -9.341   5.086  68.212  1.00  0.00    -0.126 A  
HETATM   21  H2  UNL     1      -8.136   1.071  68.545  1.00  0.00     0.000 HD 
HETATM   22  S   UNL     1      -8.827   3.589  67.550  1.00  0.00    -0.140 SA 
HETATM   23  H1  UNL     1      -8.415   1.239  70.273  1.00  0.00     0.000 HD 
HETATM   24  N   UNL     1      -9.186   3.711  70.087  1.00  0.00    -0.134 NA 
HETATM   25  N   UNL     1      -8.426   1.644  69.338  1.00  0.00    -0.048 NA 
HETATM   26  C   UNL     1      -8.809   2.908  69.122  1.00  0.00    -0.097 A  
ENDBRANCH  17  19
BRANCH  18  27
HETATM   27  C   UNL     1     -11.476   6.824  72.375  1.00  0.00    -0.302 C  
HETATM   28  O   UNL     1     -12.148   8.985  71.520  1.00  0.00    -0.301 OA 
HETATM   29  C   UNL     1     -12.440   7.820  71.757  1.00  0.00    -0.320 C  
HETATM   30  O   UNL     1     -13.669   7.324  71.509  1.00  0.00    -0.390 OA 
ENDBRANCH  18  27
ENDBRANCH  15  17
ENDBRANCH  11  13
TORSDOF 4
ENDMDL
MODEL      102
REMARK 921   NORMALIZED FREE ENERGY PREDICTED BY IDOCK:   -5.35 KCAL/MOL
REMARK 922        TOTAL FREE ENERGY PREDICTED BY IDOCK:   -7.15 KCAL/MOL
REMARK 923 INTER-LIGAND FREE ENERGY PREDICTED BY IDOCK:   -5.83 KCAL/MOL
REMARK 924 INTRA-LIGAND FREE ENERGY PREDICTED BY IDOCK:   -1.32 KCAL/MOL
REMARK 927      BINDING AFFINITY PREDICTED BY RF-SCORE:    0.00 PKD
ROOT
HETATM    1  CE  UNL     1     -10.353   9.488  67.014  1.00  0.00    -0.250 C  
HETATM    2  SD  UNL     1      -9.722  10.926  67.916  1.00  0.00    -0.169 SA 
HETATM    3  CG  UNL     1      -8.763  11.559  66.511  1.00  0.00    -0.183 C  
HETATM    4  CB  UNL     1      -7.953  10.493  65.836  1.00  0.00    -0.154 C  
HETATM    5  CA  UNL     1      -8.152   9.160  65.902  1.00  0.00    -0.111 C  
HETATM    6  N   UNL     1      -9.227   8.676  66.583  1.00  0.00    -0.168 N  
HETATM    7  C   UNL     1      -7.109   8.305  65.243  1.00  0.00    -0.074 C  
HETATM    8  C   UNL     1      -9.670   7.510  67.085  1.00  0.00    -0.173 C  
HETATM    9  OXT UNL     1      -6.143   8.777  64.653  1.00  0.00    -0.064 OA 
HETATM   10  O   UNL     1      -7.293   6.972  65.294  1.00  0.00    -0.070 OA 
HETATM   11  CA  UNL     1     -10.831   8.254  67.851  1.00  0.00     0.033 C  
HETATM   12  O   UNL     1      -9.196   6.400  66.986  1.00  0.00    -0.123 OA 
ENDROOT
BRANCH  11  13
HETATM   13  N   UNL     1     -10.664   8.289  69.329  1.00  0.00    -0.370 N  
HETATM   14  H   UNL     1     -10.064   9.012  69.725  1.00  0.00     0.000 HD 
HETATM   15  C   UNL     1     -11.267   7.410  70.194  1.00  0.00    -0.218 C  
HETATM   16  O   UNL     1     -11.911   6.445  69.784  1.00  0.00    -0.357 OA 
BRANCH  15  17
HETATM   17  C   UNL     1     -11.163   7.741  71.679  1.00  0.00    -0.286 C  
HETATM   18  C   UNL     1     -12.015   8.643  72.227  1.00  0.00    -0.438 C  
BRANCH  17  19
HETATM   19  C   UNL     1     -10.158   7.078  72.483  1.00  0.00    -0.177 A  
HETATM   20  C   UNL     1     -10.214   6.888  73.851  1.00  0.00    -0.367 A  
HETATM   21  H2  UNL     1      -6.635   4.795  73.155  1.00  0.00     0.000 HD 
HETATM   22  S   UNL     1      -8.844   5.997  74.372  1.00  0.00    -0.132 SA 
HETATM   23  H1  UNL     1      -6.843   5.209  71.459  1.00  0.00     0.000 HD 
HETATM   24  N   UNL     1      -9.042   6.527  71.870  1.00  0.00    -0.148 NA 
HETATM   25  N   UNL     1      -7.172   5.258  72.423  1.00  0.00    -0.089 NA 
HETATM   26  C   UNL     1      -8.291   5.915  72.752  1.00  0.00    -0.118 A  
ENDBRANCH  17  19
BRANCH  18  27
HETATM   27  C   UNL     1     -13.219   9.353  71.661  1.00  0.00    -0.470 C  
HETATM   28  O   UNL     1     -13.254  11.771  71.730  1.00  0.00    -0.457 OA 
HETATM   29  C   UNL     1     -12.981  10.749  71.115  1.00  0.00    -0.371 C  
HETATM   30  O   UNL     1     -12.462  10.779  69.870  1.00  0.00    -0.322 OA 
ENDBRANCH  18  27
ENDBRANCH  15  17
ENDBRANCH  11  13
TORSDOF 4
ENDMDL
MODEL      103
REMARK 921   NORMALIZED FREE ENERGY PREDICTED BY IDOCK:   -5.34 KCAL/MOL
REMARK 922        TOTAL FREE ENERGY PREDICTED BY IDOCK:   -7.14 KCAL/MOL
REMARK 923 INTER-LIGAND FREE ENERGY PREDICTED BY IDOCK:   -7.19 KCAL/MOL
REMARK 924 INTRA-LIGAND FREE ENERGY PREDICTED BY IDOCK:    0.05 KCAL/MOL
REMARK 927      BINDING AFFINITY PREDICTED BY RF-SCORE:    0.00 PKD
ROOT
HETATM    1  CE  UNL     1      -8.091  16.120  69.092  1.00  0.00    -0.230 C  
HETATM    2  SD  UNL     1      -6.986  14.701  68.880  1.00  0.00    -0.120 SA 
HETATM    3  CG  UNL     1      -5.511  15.716  68.591  1.00  0.00    -0.096 C  
HETATM    4  CB  UNL     1      -5.754  16.823  67.608  1.00  0.00    -0.166 C  
HETATM    5  CA  UNL     1      -6.947  17.345  67.254  1.00  0.00    -0.168 C  
HETATM    6  N   UNL     1      -8.079  16.908  67.870  1.00  0.00    -0.185 N  
HETATM    7  C   UNL     1      -6.921  18.352  66.141  1.00  0.00    -0.264 C  
HETATM    8  C   UNL     1      -9.412  16.956  67.699  1.00  0.00    -0.241 C  
HETATM    9  OXT UNL     1      -5.882  18.710  65.596  1.00  0.00    -0.167 OA 
HETATM   10  O   UNL     1      -8.102  18.888  65.777  1.00  0.00    -0.472 OA 
HETATM   11  CA  UNL     1      -9.621  15.897  68.850  1.00  0.00    -0.230 C  
HETATM   12  O   UNL     1     -10.060  17.553  66.868  1.00  0.00    -0.300 OA 
ENDROOT
BRANCH  11  13
HETATM   13  N   UNL     1     -10.080  14.563  68.376  1.00  0.00    -0.234 N  
HETATM   14  H   UNL     1     -10.512  13.938  69.056  1.00  0.00     0.000 HD 
HETATM   15  C   UNL     1      -9.958  14.119  67.083  1.00  0.00    -0.255 C  
HETATM   16  O   UNL     1      -9.346  14.770  66.236  1.00  0.00    -0.286 OA 
BRANCH  15  17
HETATM   17  C   UNL     1     -10.688  12.826  66.738  1.00  0.00    -0.278 C  
HETATM   18  C   UNL     1     -11.927  12.881  66.189  1.00  0.00    -0.491 C  
BRANCH  17  19
HETATM   19  C   UNL     1     -10.039  11.556  66.996  1.00  0.00    -0.210 A  
HETATM   20  C   UNL     1     -10.233  10.391  66.279  1.00  0.00    -0.222 A  
HETATM   21  H2  UNL     1      -7.245   8.954  68.865  1.00  0.00     0.000 HD 
HETATM   22  S   UNL     1      -9.211   9.156  66.890  1.00  0.00    -0.154 SA 
HETATM   23  H1  UNL     1      -7.238  10.560  69.581  1.00  0.00     0.000 HD 
HETATM   24  N   UNL     1      -9.100  11.460  68.011  1.00  0.00    -0.164 NA 
HETATM   25  N   UNL     1      -7.614   9.904  68.897  1.00  0.00    -0.079 NA 
HETATM   26  C   UNL     1      -8.579  10.258  68.040  1.00  0.00    -0.118 A  
ENDBRANCH  17  19
BRANCH  18  27
HETATM   27  C   UNL     1     -12.751  14.042  65.694  1.00  0.00    -0.515 C  
HETATM   28  O   UNL     1     -11.681  15.671  64.259  1.00  0.00    -0.375 OA 
HETATM   29  C   UNL     1     -12.336  14.642  64.363  1.00  0.00    -0.398 C  
HETATM   30  O   UNL     1     -12.773  13.959  63.285  1.00  0.00    -0.775 OA 
ENDBRANCH  18  27
ENDBRANCH  15  17
ENDBRANCH  11  13
TORSDOF 4
ENDMDL
MODEL      104
REMARK 921   NORMALIZED FREE ENERGY PREDICTED BY IDOCK:   -5.31 KCAL/MOL
REMARK 922        TOTAL FREE ENERGY PREDICTED BY IDOCK:   -7.10 KCAL/MOL
REMARK 923 INTER-LIGAND FREE ENERGY PREDICTED BY IDOCK:   -6.64 KCAL/MOL
REMARK 924 INTRA-LIGAND FREE ENERGY PREDICTED BY IDOCK:   -0.46 KCAL/MOL
REMARK 927      BINDING AFFINITY PREDICTED BY RF-SCORE:    0.00 PKD
ROOT
HETATM    1  CE  UNL     1     -11.494  11.569  65.986  1.00  0.00    -0.020 C  
HETATM    2  SD  UNL     1     -10.637  12.920  65.138  1.00  0.00    -0.313 SA 
HETATM    3  CG  UNL     1     -10.069  11.883  63.763  1.00  0.00    -0.398 C  
HETATM    4  CB  UNL     1      -9.472  10.587  64.224  1.00  0.00    -0.337 C  
HETATM    5  CA  UNL     1      -9.660   9.987  65.419  1.00  0.00    -0.279 C  
HETATM    6  N   UNL     1     -10.526  10.535  66.314  1.00  0.00    -0.215 N  
HETATM    7  C   UNL     1      -8.831   8.763  65.679  1.00  0.00    -0.199 C  
HETATM    8  C   UNL     1     -10.836  10.436  67.619  1.00  0.00    -0.306 C  
HETATM    9  OXT UNL     1      -8.047   8.307  64.854  1.00  0.00    -0.136 OA 
HETATM   10  O   UNL     1      -9.009   8.147  66.864  1.00  0.00    -0.131 OA 
HETATM   11  CA  UNL     1     -11.752  11.717  67.522  1.00  0.00    -0.240 C  
HETATM   12  O   UNL     1     -10.415   9.666  68.453  1.00  0.00    -0.205 OA 
ENDROOT
BRANCH  11  13
HETATM   13  N   UNL     1     -11.207  12.912  68.223  1.00  0.00    -0.251 N  
HETATM   14  H   UNL     1     -10.520  12.760  68.960  1.00  0.00     0.000 HD 
HETATM   15  C   UNL     1     -11.572  14.204  67.941  1.00  0.00    -0.338 C  
HETATM   16  O   UNL     1     -12.477  14.457  67.146  1.00  0.00    -0.234 OA 
BRANCH  15  17
HETATM   17  C   UNL     1     -10.744  15.302  68.599  1.00  0.00    -0.245 C  
HETATM   18  C   UNL     1     -11.266  16.010  69.631  1.00  0.00    -0.336 C  
BRANCH  17  19
HETATM   19  C   UNL     1      -9.404  15.565  68.114  1.00  0.00    -0.197 A  
HETATM   20  C   UNL     1      -8.871  16.813  67.850  1.00  0.00    -0.218 A  
HETATM   21  H2  UNL     1      -5.408  14.561  67.064  1.00  0.00     0.000 HD 
HETATM   22  S   UNL     1      -7.234  16.655  67.362  1.00  0.00    -0.171 SA 
HETATM   23  H1  UNL     1      -6.367  13.141  67.459  1.00  0.00     0.000 HD 
HETATM   24  N   UNL     1      -8.524  14.510  67.926  1.00  0.00    -0.152 NA 
HETATM   25  N   UNL     1      -6.299  14.151  67.345  1.00  0.00    -0.308 NA 
HETATM   26  C   UNL     1      -7.349  14.956  67.554  1.00  0.00    -0.204 A  
ENDBRANCH  17  19
BRANCH  18  27
HETATM   27  C   UNL     1     -12.548  15.847  70.407  1.00  0.00    -0.121 C  
HETATM   28  O   UNL     1     -12.788  13.894  71.815  1.00  0.00    -0.328 OA 
HETATM   29  C   UNL     1     -12.453  15.066  71.705  1.00  0.00    -0.339 C  
HETATM   30  O   UNL     1     -11.988  15.779  72.751  1.00  0.00    -0.415 OA 
ENDBRANCH  18  27
ENDBRANCH  15  17
ENDBRANCH  11  13
TORSDOF 4
ENDMDL
MODEL      105
REMARK 921   NORMALIZED FREE ENERGY PREDICTED BY IDOCK:   -5.30 KCAL/MOL
REMARK 922        TOTAL FREE ENERGY PREDICTED BY IDOCK:   -7.10 KCAL/MOL
REMARK 923 INTER-LIGAND FREE ENERGY PREDICTED BY IDOCK:   -5.72 KCAL/MOL
REMARK 924 INTRA-LIGAND FREE ENERGY PREDICTED BY IDOCK:   -1.38 KCAL/MOL
REMARK 927      BINDING AFFINITY PREDICTED BY RF-SCORE:    0.00 PKD
ROOT
HETATM    1  CE  UNL     1     -11.902  11.662  67.847  1.00  0.00    -0.203 C  
HETATM    2  SD  UNL     1     -11.447  12.624  69.312  1.00  0.00    -0.279 SA 
HETATM    3  CG  UNL     1     -12.115  14.183  68.666  1.00  0.00    -0.285 C  
HETATM    4  CB  UNL     1     -11.699  14.448  67.250  1.00  0.00    -0.429 C  
HETATM    5  CA  UNL     1     -11.256  13.543  66.352  1.00  0.00    -0.307 C  
HETATM    6  N   UNL     1     -11.225  12.224  66.689  1.00  0.00    -0.298 N  
HETATM    7  C   UNL     1     -10.772  14.096  65.043  1.00  0.00    -0.416 C  
HETATM    8  C   UNL     1     -10.683  11.076  66.248  1.00  0.00    -0.212 C  
HETATM    9  OXT UNL     1     -10.798  15.294  64.781  1.00  0.00    -0.411 OA 
HETATM   10  O   UNL     1     -10.330  13.208  64.133  1.00  0.00    -0.421 OA 
HETATM   11  CA  UNL     1     -11.118  10.335  67.572  1.00  0.00    -0.232 C  
HETATM   12  O   UNL     1     -10.043  10.863  65.243  1.00  0.00    -0.248 OA 
ENDROOT
BRANCH  11  13
HETATM   13  N   UNL     1      -9.989   9.977  68.472  1.00  0.00    -0.157 N  
HETATM   14  H   UNL     1      -9.801  10.586  69.268  1.00  0.00     0.000 HD 
HETATM   15  C   UNL     1      -9.183   8.879  68.299  1.00  0.00    -0.140 C  
HETATM   16  O   UNL     1      -9.277   8.165  67.301  1.00  0.00    -0.134 OA 
BRANCH  15  17
HETATM   17  C   UNL     1      -8.231   8.549  69.443  1.00  0.00    -0.114 C  
HETATM   18  C   UNL     1      -6.956   9.011  69.409  1.00  0.00    -0.052 C  
BRANCH  17  19
HETATM   19  C   UNL     1      -8.708   7.752  70.554  1.00  0.00    -0.140 A  
HETATM   20  C   UNL     1      -7.969   7.390  71.665  1.00  0.00    -0.098 A  
HETATM   21  H2  UNL     1     -11.632   5.718  72.876  1.00  0.00     0.000 HD 
HETATM   22  S   UNL     1      -8.954   6.506  72.756  1.00  0.00    -0.121 SA 
HETATM   23  H1  UNL     1     -12.287   6.309  71.354  1.00  0.00     0.000 HD 
HETATM   24  N   UNL     1     -10.028   7.327  70.576  1.00  0.00    -0.190 NA 
HETATM   25  N   UNL     1     -11.496   6.203  71.989  1.00  0.00    -0.305 NA 
HETATM   26  C   UNL     1     -10.283   6.684  71.689  1.00  0.00    -0.192 A  
ENDBRANCH  17  19
BRANCH  18  27
HETATM   27  C   UNL     1      -6.261   9.960  68.466  1.00  0.00    -0.049 C  
HETATM   28  O   UNL     1      -7.491  11.889  67.677  1.00  0.00    -0.110 OA 
HETATM   29  C   UNL     1      -6.726  11.404  68.501  1.00  0.00    -0.069 C  
HETATM   30  O   UNL     1      -6.205  12.132  69.511  1.00  0.00    -0.103 OA 
ENDBRANCH  18  27
ENDBRANCH  15  17
ENDBRANCH  11  13
TORSDOF 4
ENDMDL
MODEL      106
REMARK 921   NORMALIZED FREE ENERGY PREDICTED BY IDOCK:   -5.29 KCAL/MOL
REMARK 922        TOTAL FREE ENERGY PREDICTED BY IDOCK:   -7.09 KCAL/MOL
REMARK 923 INTER-LIGAND FREE ENERGY PREDICTED BY IDOCK:   -6.13 KCAL/MOL
REMARK 924 INTRA-LIGAND FREE ENERGY PREDICTED BY IDOCK:   -0.95 KCAL/MOL
REMARK 927      BINDING AFFINITY PREDICTED BY RF-SCORE:    0.00 PKD
ROOT
HETATM    1  CE  UNL     1     -10.221  12.379  66.007  1.00  0.00    -0.245 C  
HETATM    2  SD  UNL     1     -11.884  12.344  66.722  1.00  0.00    -0.226 SA 
HETATM    3  CG  UNL     1     -12.506  13.702  65.692  1.00  0.00    -0.496 C  
HETATM    4  CB  UNL     1     -11.568  14.872  65.649  1.00  0.00    -0.245 C  
HETATM    5  CA  UNL     1     -10.250  14.866  65.940  1.00  0.00    -0.314 C  
HETATM    6  N   UNL     1      -9.637  13.689  66.245  1.00  0.00    -0.267 N  
HETATM    7  C   UNL     1      -9.572  16.205  65.953  1.00  0.00    -0.324 C  
HETATM    8  C   UNL     1      -8.488  13.255  66.792  1.00  0.00     0.028 C  
HETATM    9  OXT UNL     1     -10.162  17.248  65.689  1.00  0.00    -0.579 OA 
HETATM   10  O   UNL     1      -8.256  16.219  66.236  1.00  0.00    -0.309 OA 
HETATM   11  CA  UNL     1      -9.049  11.781  66.855  1.00  0.00    -0.192 C  
HETATM   12  O   UNL     1      -7.517  13.886  67.144  1.00  0.00    -0.095 OA 
ENDROOT
BRANCH  11  13
HETATM   13  N   UNL     1      -9.341  11.297  68.231  1.00  0.00    -0.173 N  
HETATM   14  H   UNL     1      -9.114  11.912  69.012  1.00  0.00     0.000 HD 
HETATM   15  C   UNL     1      -9.897  10.075  68.518  1.00  0.00    -0.156 C  
HETATM   16  O   UNL     1     -10.092   9.236  67.638  1.00  0.00    -0.187 OA 
BRANCH  15  17
HETATM   17  C   UNL     1     -10.333   9.849  69.961  1.00  0.00    -0.320 C  
HETATM   18  C   UNL     1      -9.717   8.900  70.707  1.00  0.00    -0.281 C  
BRANCH  17  19
HETATM   19  C   UNL     1     -11.398  10.661  70.514  1.00  0.00    -0.267 A  
HETATM   20  C   UNL     1     -12.416  10.209  71.332  1.00  0.00    -0.423 A  
HETATM   21  H2  UNL     1     -13.422  14.291  71.409  1.00  0.00     0.000 HD 
HETATM   22  S   UNL     1     -13.410  11.525  71.804  1.00  0.00    -0.094 SA 
HETATM   23  H1  UNL     1     -12.040  14.545  70.351  1.00  0.00     0.000 HD 
HETATM   24  N   UNL     1     -11.417  12.026  70.269  1.00  0.00    -0.041 NA 
HETATM   25  N   UNL     1     -12.635  13.911  70.883  1.00  0.00    -0.349 NA 
HETATM   26  C   UNL     1     -12.410  12.592  70.910  1.00  0.00    -0.255 A  
ENDBRANCH  17  19
BRANCH  18  27
HETATM   27  C   UNL     1      -8.513   8.036  70.430  1.00  0.00    -0.130 C  
HETATM   28  O   UNL     1      -6.858   8.853  68.865  1.00  0.00    -0.059 OA 
HETATM   29  C   UNL     1      -7.243   8.762  70.023  1.00  0.00    -0.052 C  
HETATM   30  O   UNL     1      -6.547   9.285  71.053  1.00  0.00    -0.081 OA 
ENDBRANCH  18  27
ENDBRANCH  15  17
ENDBRANCH  11  13
TORSDOF 4
ENDMDL
MODEL      107
REMARK 921   NORMALIZED FREE ENERGY PREDICTED BY IDOCK:   -5.29 KCAL/MOL
REMARK 922        TOTAL FREE ENERGY PREDICTED BY IDOCK:   -7.08 KCAL/MOL
REMARK 923 INTER-LIGAND FREE ENERGY PREDICTED BY IDOCK:   -6.31 KCAL/MOL
REMARK 924 INTRA-LIGAND FREE ENERGY PREDICTED BY IDOCK:   -0.77 KCAL/MOL
REMARK 927      BINDING AFFINITY PREDICTED BY RF-SCORE:    0.00 PKD
ROOT
HETATM    1  CE  UNL     1      -8.894   8.512  68.748  1.00  0.00    -0.139 C  
HETATM    2  SD  UNL     1     -10.498   8.831  69.525  1.00  0.00    -0.214 SA 
HETATM    3  CG  UNL     1     -10.867   7.076  69.803  1.00  0.00    -0.248 C  
HETATM    4  CB  UNL     1     -10.604   6.231  68.592  1.00  0.00    -0.314 C  
HETATM    5  CA  UNL     1      -9.815   6.541  67.543  1.00  0.00    -0.124 C  
HETATM    6  N   UNL     1      -9.102   7.700  67.560  1.00  0.00    -0.125 N  
HETATM    7  C   UNL     1      -9.836   5.574  66.394  1.00  0.00    -0.167 C  
HETATM    8  C   UNL     1      -8.421   8.486  66.708  1.00  0.00    -0.109 C  
HETATM    9  OXT UNL     1     -10.505   4.546  66.407  1.00  0.00    -0.235 OA 
HETATM   10  O   UNL     1      -9.050   5.864  65.339  1.00  0.00    -0.075 OA 
HETATM   11  CA  UNL     1      -8.308   9.616  67.805  1.00  0.00    -0.121 C  
HETATM   12  O   UNL     1      -8.158   8.308  65.540  1.00  0.00    -0.112 OA 
ENDROOT
BRANCH  11  13
HETATM   13  N   UNL     1      -9.130  10.824  67.525  1.00  0.00    -0.139 N  
HETATM   14  H   UNL     1      -9.956  10.983  68.102  1.00  0.00     0.000 HD 
HETATM   15  C   UNL     1      -8.849  11.738  66.541  1.00  0.00    -0.183 C  
HETATM   16  O   UNL     1      -7.938  11.553  65.734  1.00  0.00     0.138 OA 
BRANCH  15  17
HETATM   17  C   UNL     1      -9.668  13.024  66.555  1.00  0.00    -0.266 C  
HETATM   18  C   UNL     1     -10.552  13.267  65.556  1.00  0.00    -0.295 C  
BRANCH  17  19
HETATM   19  C   UNL     1      -9.493  13.963  67.644  1.00  0.00    -0.212 A  
HETATM   20  C   UNL     1      -8.306  14.224  68.302  1.00  0.00    -0.165 A  
HETATM   21  H2  UNL     1     -10.676  17.070  70.294  1.00  0.00     0.000 HD 
HETATM   22  S   UNL     1      -8.550  15.453  69.474  1.00  0.00    -0.125 SA 
HETATM   23  H1  UNL     1     -12.010  16.505  69.297  1.00  0.00     0.000 HD 
HETATM   24  N   UNL     1     -10.570  14.724  68.072  1.00  0.00    -0.242 NA 
HETATM   25  N   UNL     1     -11.030  16.442  69.572  1.00  0.00    -0.323 NA 
HETATM   26  C   UNL     1     -10.196  15.558  69.011  1.00  0.00    -0.229 A  
ENDBRANCH  17  19
BRANCH  18  27
HETATM   27  C   UNL     1     -11.023  12.412  64.408  1.00  0.00    -0.377 C  
HETATM   28  O   UNL     1     -13.395  11.974  64.210  1.00  0.00    -0.709 OA 
HETATM   29  C   UNL     1     -12.434  12.671  63.911  1.00  0.00    -0.407 C  
HETATM   30  O   UNL     1     -12.546  13.729  63.081  1.00  0.00    -0.793 OA 
ENDBRANCH  18  27
ENDBRANCH  15  17
ENDBRANCH  11  13
TORSDOF 4
ENDMDL
MODEL      108
REMARK 921   NORMALIZED FREE ENERGY PREDICTED BY IDOCK:   -5.28 KCAL/MOL
REMARK 922        TOTAL FREE ENERGY PREDICTED BY IDOCK:   -7.07 KCAL/MOL
REMARK 923 INTER-LIGAND FREE ENERGY PREDICTED BY IDOCK:   -5.73 KCAL/MOL
REMARK 924 INTRA-LIGAND FREE ENERGY PREDICTED BY IDOCK:   -1.33 KCAL/MOL
REMARK 927      BINDING AFFINITY PREDICTED BY RF-SCORE:    0.00 PKD
ROOT
HETATM    1  CE  UNL     1      -9.941   9.856  65.480  1.00  0.00    -0.292 C  
HETATM    2  SD  UNL     1      -8.449  10.303  64.556  1.00  0.00    -0.176 SA 
HETATM    3  CG  UNL     1      -8.086   8.600  64.047  1.00  0.00    -0.163 C  
HETATM    4  CB  UNL     1      -8.184   7.624  65.182  1.00  0.00    -0.130 C  
HETATM    5  CA  UNL     1      -8.844   7.798  66.346  1.00  0.00    -0.155 C  
HETATM    6  N   UNL     1      -9.574   8.931  66.540  1.00  0.00    -0.211 N  
HETATM    7  C   UNL     1      -8.665   6.717  67.373  1.00  0.00    -0.119 C  
HETATM    8  C   UNL     1     -10.159   9.602  67.547  1.00  0.00    -0.197 C  
HETATM    9  OXT UNL     1      -7.984   5.717  67.169  1.00  0.00    -0.101 OA 
HETATM   10  O   UNL     1      -9.320   6.871  68.539  1.00  0.00    -0.136 OA 
HETATM   11  CA  UNL     1     -10.426  10.836  66.601  1.00  0.00    -0.246 C  
HETATM   12  O   UNL     1     -10.274   9.294  68.713  1.00  0.00    -0.193 OA 
ENDROOT
BRANCH  11  13
HETATM   13  N   UNL     1      -9.597  12.032  66.908  1.00  0.00    -0.199 N  
HETATM   14  H   UNL     1      -8.774  12.204  66.332  1.00  0.00     0.000 HD 
HETATM   15  C   UNL     1      -9.869  12.921  67.918  1.00  0.00    -0.227 C  
HETATM   16  O   UNL     1     -10.777  12.719  68.724  1.00  0.00    -0.243 OA 
BRANCH  15  17
HETATM   17  C   UNL     1      -9.045  14.203  67.934  1.00  0.00    -0.189 C  
HETATM   18  C   UNL     1      -7.792  14.189  68.454  1.00  0.00    -0.143 C  
BRANCH  17  19
HETATM   19  C   UNL     1      -9.613  15.418  67.385  1.00  0.00    -0.210 A  
HETATM   20  C   UNL     1      -9.515  16.679  67.941  1.00  0.00    -0.225 A  
HETATM   21  H2  UNL     1     -11.553  17.786  64.434  1.00  0.00     0.000 HD 
HETATM   22  S   UNL     1     -10.276  17.827  66.919  1.00  0.00    -0.349 SA 
HETATM   23  H1  UNL     1     -11.523  16.081  64.003  1.00  0.00     0.000 HD 
HETATM   24  N   UNL     1     -10.286  15.373  66.173  1.00  0.00    -0.296 NA 
HETATM   25  N   UNL     1     -11.294  16.825  64.660  1.00  0.00    -0.837 NA 
HETATM   26  C   UNL     1     -10.661  16.576  65.813  1.00  0.00    -0.225 A  
ENDBRANCH  17  19
BRANCH  18  27
HETATM   27  C   UNL     1      -6.927  13.057  68.946  1.00  0.00    -0.088 C  
HETATM   28  O   UNL     1      -6.707  11.097  67.543  1.00  0.00    -0.068 OA 
HETATM   29  C   UNL     1      -6.278  12.194  67.878  1.00  0.00    -0.079 C  
HETATM   30  O   UNL     1      -5.162  12.724  67.337  1.00  0.00    -0.239 OA 
ENDBRANCH  18  27
ENDBRANCH  15  17
ENDBRANCH  11  13
TORSDOF 4
ENDMDL
MODEL      109
REMARK 921   NORMALIZED FREE ENERGY PREDICTED BY IDOCK:   -5.26 KCAL/MOL
REMARK 922        TOTAL FREE ENERGY PREDICTED BY IDOCK:   -7.05 KCAL/MOL
REMARK 923 INTER-LIGAND FREE ENERGY PREDICTED BY IDOCK:   -6.21 KCAL/MOL
REMARK 924 INTRA-LIGAND FREE ENERGY PREDICTED BY IDOCK:   -0.84 KCAL/MOL
REMARK 927      BINDING AFFINITY PREDICTED BY RF-SCORE:    0.00 PKD
ROOT
HETATM    1  CE  UNL     1     -10.618  10.792  66.240  1.00  0.00    -0.192 C  
HETATM    2  SD  UNL     1      -8.912  10.520  65.698  1.00  0.00    -0.188 SA 
HETATM    3  CG  UNL     1      -9.006   8.714  65.847  1.00  0.00    -0.200 C  
HETATM    4  CB  UNL     1      -9.622   8.272  67.141  1.00  0.00    -0.234 C  
HETATM    5  CA  UNL     1     -10.408   9.004  67.957  1.00  0.00    -0.224 C  
HETATM    6  N   UNL     1     -10.771  10.262  67.586  1.00  0.00    -0.267 N  
HETATM    7  C   UNL     1     -10.777   8.365  69.264  1.00  0.00    -0.126 C  
HETATM    8  C   UNL     1     -11.302  11.370  68.134  1.00  0.00    -0.304 C  
HETATM    9  OXT UNL     1     -10.417   7.234  69.573  1.00  0.00    -0.218 OA 
HETATM   10  O   UNL     1     -11.566   9.079  70.091  1.00  0.00    -0.148 OA 
HETATM   11  CA  UNL     1     -10.982  12.197  66.828  1.00  0.00    -0.280 C  
HETATM   12  O   UNL     1     -11.731  11.545  69.252  1.00  0.00    -0.272 OA 
ENDROOT
BRANCH  11  13
HETATM   13  N   UNL     1      -9.897  13.202  66.992  1.00  0.00    -0.238 N  
HETATM   14  H   UNL     1      -8.940  12.906  66.807  1.00  0.00     0.000 HD 
HETATM   15  C   UNL     1     -10.103  14.503  67.377  1.00  0.00    -0.235 C  
HETATM   16  O   UNL     1     -11.215  14.901  67.728  1.00  0.00    -0.297 OA 
BRANCH  15  17
HETATM   17  C   UNL     1      -8.907  15.441  67.269  1.00  0.00    -0.212 C  
HETATM   18  C   UNL     1      -9.056  16.655  66.684  1.00  0.00    -0.277 C  
BRANCH  17  19
HETATM   19  C   UNL     1      -7.627  15.020  67.802  1.00  0.00    -0.160 A  
HETATM   20  C   UNL     1      -6.392  15.504  67.413  1.00  0.00    -0.072 A  
HETATM   21  H2  UNL     1      -5.044  12.963  70.480  1.00  0.00     0.000 HD 
HETATM   22  S   UNL     1      -5.158  14.774  68.355  1.00  0.00    -0.114 SA 
HETATM   23  H1  UNL     1      -6.733  12.540  70.730  1.00  0.00     0.000 HD 
HETATM   24  N   UNL     1      -7.584  14.084  68.824  1.00  0.00    -0.125 NA 
HETATM   25  N   UNL     1      -6.025  13.066  70.219  1.00  0.00    -0.151 NA 
HETATM   26  C   UNL     1      -6.349  13.889  69.214  1.00  0.00    -0.112 A  
ENDBRANCH  17  19
BRANCH  18  27
HETATM   27  C   UNL     1     -10.280  17.383  66.189  1.00  0.00    -0.334 C  
HETATM   28  O   UNL     1     -11.087  19.265  67.479  1.00  0.00    -0.423 OA 
HETATM   29  C   UNL     1     -10.387  18.850  66.564  1.00  0.00    -0.431 C  
HETATM   30  O   UNL     1      -9.662  19.678  65.784  1.00  0.00    -0.379 OA 
ENDBRANCH  18  27
ENDBRANCH  15  17
ENDBRANCH  11  13
TORSDOF 4
ENDMDL
MODEL      110
REMARK 921   NORMALIZED FREE ENERGY PREDICTED BY IDOCK:   -5.22 KCAL/MOL
REMARK 922        TOTAL FREE ENERGY PREDICTED BY IDOCK:   -7.00 KCAL/MOL
REMARK 923 INTER-LIGAND FREE ENERGY PREDICTED BY IDOCK:   -6.23 KCAL/MOL
REMARK 924 INTRA-LIGAND FREE ENERGY PREDICTED BY IDOCK:   -0.76 KCAL/MOL
REMARK 927      BINDING AFFINITY PREDICTED BY RF-SCORE:    0.00 PKD
ROOT
HETATM    1  CE  UNL     1     -11.318   6.360  70.002  1.00  0.00    -0.430 C  
HETATM    2  SD  UNL     1      -9.959   5.682  69.015  1.00  0.00    -0.192 SA 
HETATM    3  CG  UNL     1      -9.821   4.163  69.997  1.00  0.00    -0.175 C  
HETATM    4  CB  UNL     1      -9.818   4.425  71.473  1.00  0.00    -0.259 C  
HETATM    5  CA  UNL     1     -10.271   5.531  72.101  1.00  0.00    -0.199 C  
HETATM    6  N   UNL     1     -10.866   6.517  71.375  1.00  0.00    -0.238 N  
HETATM    7  C   UNL     1     -10.021   5.597  73.580  1.00  0.00    -0.177 C  
HETATM    8  C   UNL     1     -11.229   7.804  71.517  1.00  0.00    -0.244 C  
HETATM    9  OXT UNL     1      -9.465   4.696  74.198  1.00  0.00    -0.116 OA 
HETATM   10  O   UNL     1     -10.470   6.691  74.224  1.00  0.00    -0.344 OA 
HETATM   11  CA  UNL     1     -11.539   7.909  69.973  1.00  0.00     0.154 C  
HETATM   12  O   UNL     1     -11.184   8.513  72.497  1.00  0.00    -0.357 OA 
ENDROOT
BRANCH  11  13
HETATM   13  N   UNL     1     -10.578   8.752  69.212  1.00  0.00    -0.283 N  
HETATM   14  H   UNL     1      -9.858   8.279  68.666  1.00  0.00     0.000 HD 
HETATM   15  C   UNL     1     -10.596  10.124  69.198  1.00  0.00    -0.224 C  
HETATM   16  O   UNL     1     -11.361  10.763  69.922  1.00  0.00    -0.265 OA 
BRANCH  15  17
HETATM   17  C   UNL     1      -9.683  10.805  68.185  1.00  0.00    -0.169 C  
HETATM   18  C   UNL     1      -8.377  11.008  68.489  1.00  0.00    -0.149 C  
BRANCH  17  19
HETATM   19  C   UNL     1     -10.228  11.219  66.908  1.00  0.00    -0.219 A  
HETATM   20  C   UNL     1      -9.672  10.955  65.670  1.00  0.00    -0.232 A  
HETATM   21  H2  UNL     1     -13.159  12.871  64.309  1.00  0.00     0.000 HD 
HETATM   22  S   UNL     1     -10.687  11.574  64.434  1.00  0.00    -0.350 SA 
HETATM   23  H1  UNL     1     -13.591  13.062  66.003  1.00  0.00     0.000 HD 
HETATM   24  N   UNL     1     -11.432  11.905  66.866  1.00  0.00    -0.452 NA 
HETATM   25  N   UNL     1     -12.935  12.734  65.295  1.00  0.00    -0.658 NA 
HETATM   26  C   UNL     1     -11.789  12.127  65.624  1.00  0.00    -0.276 A  
ENDBRANCH  17  19
BRANCH  18  27
HETATM   27  C   UNL     1      -7.541  10.555  69.658  1.00  0.00    -0.134 C  
HETATM   28  O   UNL     1      -5.164  10.259  69.314  1.00  0.00    -0.039 OA 
HETATM   29  C   UNL     1      -6.086  10.990  69.652  1.00  0.00    -0.084 C  
HETATM   30  O   UNL     1      -5.881  12.253  70.080  1.00  0.00    -0.124 OA 
ENDBRANCH  18  27
ENDBRANCH  15  17
ENDBRANCH  11  13
TORSDOF 4
ENDMDL
MODEL      111
REMARK 921   NORMALIZED FREE ENERGY PREDICTED BY IDOCK:   -5.21 KCAL/MOL
REMARK 922        TOTAL FREE ENERGY PREDICTED BY IDOCK:   -6.99 KCAL/MOL
REMARK 923 INTER-LIGAND FREE ENERGY PREDICTED BY IDOCK:   -5.75 KCAL/MOL
REMARK 924 INTRA-LIGAND FREE ENERGY PREDICTED BY IDOCK:   -1.24 KCAL/MOL
REMARK 927      BINDING AFFINITY PREDICTED BY RF-SCORE:    0.00 PKD
ROOT
HETATM    1  CE  UNL     1      -7.299  11.901  67.887  1.00  0.00    -0.104 C  
HETATM    2  SD  UNL     1      -6.596  12.645  69.381  1.00  0.00    -0.020 SA 
HETATM    3  CG  UNL     1      -6.066  11.061  70.088  1.00  0.00    -0.138 C  
HETATM    4  CB  UNL     1      -7.136  10.012  70.023  1.00  0.00    -0.146 C  
HETATM    5  CA  UNL     1      -8.210   9.999  69.207  1.00  0.00    -0.147 C  
HETATM    6  N   UNL     1      -8.356  10.982  68.276  1.00  0.00    -0.126 N  
HETATM    7  C   UNL     1      -9.204   8.899  69.443  1.00  0.00    -0.146 C  
HETATM    8  C   UNL     1      -9.307  11.481  67.467  1.00  0.00    -0.166 C  
HETATM    9  OXT UNL     1      -9.048   8.040  70.304  1.00  0.00    -0.146 OA 
HETATM   10  O   UNL     1     -10.281   8.868  68.635  1.00  0.00    -0.190 OA 
HETATM   11  CA  UNL     1      -8.387  12.713  67.109  1.00  0.00    -0.172 C  
HETATM   12  O   UNL     1     -10.433  11.085  67.267  1.00  0.00    -0.208 OA 
ENDROOT
BRANCH  11  13
HETATM   13  N   UNL     1      -8.851  14.008  67.678  1.00  0.00    -0.179 N  
HETATM   14  H   UNL     1      -8.648  14.198  68.659  1.00  0.00     0.000 HD 
HETATM   15  C   UNL     1      -9.535  14.962  66.967  1.00  0.00    -0.229 C  
HETATM   16  O   UNL     1      -9.915  14.755  65.814  1.00  0.00    -0.309 OA 
BRANCH  15  17
HETATM   17  C   UNL     1      -9.723  16.312  67.650  1.00  0.00    -0.234 C  
HETATM   18  C   UNL     1     -10.852  16.553  68.361  1.00  0.00    -0.348 C  
BRANCH  17  19
HETATM   19  C   UNL     1      -8.684  17.315  67.533  1.00  0.00    -0.210 A  
HETATM   20  C   UNL     1      -8.060  17.699  66.361  1.00  0.00    -0.267 A  
HETATM   21  H2  UNL     1      -6.169  20.452  68.916  1.00  0.00     0.000 HD 
HETATM   22  S   UNL     1      -6.946  18.963  66.683  1.00  0.00    -0.214 SA 
HETATM   23  H1  UNL     1      -7.114  19.737  70.216  1.00  0.00     0.000 HD 
HETATM   24  N   UNL     1      -8.275  18.012  68.660  1.00  0.00    -0.300 NA 
HETATM   25  N   UNL     1      -6.853  19.763  69.231  1.00  0.00    -0.345 NA 
HETATM   26  C   UNL     1      -7.385  18.918  68.339  1.00  0.00    -0.288 A  
ENDBRANCH  17  19
BRANCH  18  27
HETATM   27  C   UNL     1     -11.997  15.654  68.754  1.00  0.00    -0.247 C  
HETATM   28  O   UNL     1     -11.480  13.418  69.521  1.00  0.00    -0.271 OA 
HETATM   29  C   UNL     1     -11.691  14.592  69.795  1.00  0.00    -0.303 C  
HETATM   30  O   UNL     1     -11.696  15.042  71.066  1.00  0.00    -0.292 OA 
ENDBRANCH  18  27
ENDBRANCH  15  17
ENDBRANCH  11  13
TORSDOF 4
ENDMDL
MODEL      112
REMARK 921   NORMALIZED FREE ENERGY PREDICTED BY IDOCK:   -5.21 KCAL/MOL
REMARK 922        TOTAL FREE ENERGY PREDICTED BY IDOCK:   -6.98 KCAL/MOL
REMARK 923 INTER-LIGAND FREE ENERGY PREDICTED BY IDOCK:   -5.83 KCAL/MOL
REMARK 924 INTRA-LIGAND FREE ENERGY PREDICTED BY IDOCK:   -1.14 KCAL/MOL
REMARK 927      BINDING AFFINITY PREDICTED BY RF-SCORE:    0.00 PKD
ROOT
HETATM    1  CE  UNL     1      -8.088   7.229  70.244  1.00  0.00    -0.121 C  
HETATM    2  SD  UNL     1      -7.390   8.747  70.943  1.00  0.00    -0.097 SA 
HETATM    3  CG  UNL     1      -7.035   8.004  72.560  1.00  0.00    -0.083 C  
HETATM    4  CB  UNL     1      -8.189   7.212  73.099  1.00  0.00    -0.127 C  
HETATM    5  CA  UNL     1      -9.222   6.705  72.395  1.00  0.00    -0.135 C  
HETATM    6  N   UNL     1      -9.239   6.835  71.040  1.00  0.00    -0.156 N  
HETATM    7  C   UNL     1     -10.319   6.071  73.201  1.00  0.00    -0.213 C  
HETATM    8  C   UNL     1     -10.104   6.712  70.019  1.00  0.00    -0.177 C  
HETATM    9  OXT UNL     1     -10.278   5.987  74.424  1.00  0.00    -0.277 OA 
HETATM   10  O   UNL     1     -11.357   5.554  72.516  1.00  0.00    -0.278 OA 
HETATM   11  CA  UNL     1      -9.065   7.367  69.029  1.00  0.00    -0.133 C  
HETATM   12  O   UNL     1     -11.251   6.323  70.024  1.00  0.00    -0.350 OA 
ENDROOT
BRANCH  11  13
HETATM   13  N   UNL     1      -9.437   8.731  68.566  1.00  0.00    -0.144 N  
HETATM   14  H   UNL     1      -9.048   9.529  69.069  1.00  0.00     0.000 HD 
HETATM   15  C   UNL     1     -10.271   8.986  67.507  1.00  0.00    -0.241 C  
HETATM   16  O   UNL     1     -10.868   8.078  66.927  1.00  0.00    -0.267 OA 
BRANCH  15  17
HETATM   17  C   UNL     1     -10.353  10.435  67.040  1.00  0.00    -0.295 C  
HETATM   18  C   UNL     1      -9.955  10.759  65.784  1.00  0.00    -0.306 C  
BRANCH  17  19
HETATM   19  C   UNL     1     -10.864  11.443  67.946  1.00  0.00    -0.225 A  
HETATM   20  C   UNL     1     -10.903  12.803  67.702  1.00  0.00    -0.228 A  
HETATM   21  H2  UNL     1     -12.849  12.859  71.429  1.00  0.00     0.000 HD 
HETATM   22  S   UNL     1     -11.650  13.609  69.019  1.00  0.00    -0.334 SA 
HETATM   23  H1  UNL     1     -12.639  11.113  71.449  1.00  0.00     0.000 HD 
HETATM   24  N   UNL     1     -11.413  11.058  69.160  1.00  0.00    -0.273 NA 
HETATM   25  N   UNL     1     -12.502  12.009  70.983  1.00  0.00    -0.341 NA 
HETATM   26  C   UNL     1     -11.879  12.101  69.802  1.00  0.00    -0.327 A  
ENDBRANCH  17  19
BRANCH  18  27
HETATM   27  C   UNL     1      -9.532   9.904  64.618  1.00  0.00    -0.343 C  
HETATM   28  O   UNL     1      -7.265  10.131  63.800  1.00  0.00    -0.131 OA 
HETATM   29  C   UNL     1      -8.055   9.558  64.539  1.00  0.00    -0.142 C  
HETATM   30  O   UNL     1      -7.680   8.538  65.337  1.00  0.00    -0.088 OA 
ENDBRANCH  18  27
ENDBRANCH  15  17
ENDBRANCH  11  13
TORSDOF 4
ENDMDL
MODEL      113
REMARK 921   NORMALIZED FREE ENERGY PREDICTED BY IDOCK:   -5.19 KCAL/MOL
REMARK 922        TOTAL FREE ENERGY PREDICTED BY IDOCK:   -6.95 KCAL/MOL
REMARK 923 INTER-LIGAND FREE ENERGY PREDICTED BY IDOCK:   -6.20 KCAL/MOL
REMARK 924 INTRA-LIGAND FREE ENERGY PREDICTED BY IDOCK:   -0.75 KCAL/MOL
REMARK 927      BINDING AFFINITY PREDICTED BY RF-SCORE:    0.00 PKD
ROOT
HETATM    1  CE  UNL     1      -5.854  14.356  68.600  1.00  0.00    -0.087 C  
HETATM    2  SD  UNL     1      -6.657  15.487  69.765  1.00  0.00    -0.139 SA 
HETATM    3  CG  UNL     1      -5.593  15.025  71.160  1.00  0.00    -0.022 C  
HETATM    4  CB  UNL     1      -5.441  13.541  71.305  1.00  0.00    -0.207 C  
HETATM    5  CA  UNL     1      -5.662  12.606  70.357  1.00  0.00    -0.172 C  
HETATM    6  N   UNL     1      -5.994  12.997  69.096  1.00  0.00    -0.080 N  
HETATM    7  C   UNL     1      -5.570  11.177  70.807  1.00  0.00    -0.114 C  
HETATM    8  C   UNL     1      -6.501  12.467  67.970  1.00  0.00    -0.081 C  
HETATM    9  OXT UNL     1      -5.285  10.862  71.958  1.00  0.00    -0.309 OA 
HETATM   10  O   UNL     1      -5.783  10.230  69.873  1.00  0.00    -0.041 OA 
HETATM   11  CA  UNL     1      -6.669  13.905  67.342  1.00  0.00     0.029 C  
HETATM   12  O   UNL     1      -6.769  11.314  67.714  1.00  0.00    -0.065 OA 
ENDROOT
BRANCH  11  13
HETATM   13  N   UNL     1      -8.082  14.353  67.210  1.00  0.00    -0.235 N  
HETATM   14  H   UNL     1      -8.817  13.705  67.493  1.00  0.00     0.000 HD 
HETATM   15  C   UNL     1      -8.460  15.583  66.732  1.00  0.00    -0.279 C  
HETATM   16  O   UNL     1      -7.637  16.371  66.266  1.00  0.00    -0.234 OA 
BRANCH  15  17
HETATM   17  C   UNL     1      -9.932  15.948  66.886  1.00  0.00    -0.253 C  
HETATM   18  C   UNL     1     -10.281  17.039  67.611  1.00  0.00    -0.317 C  
BRANCH  17  19
HETATM   19  C   UNL     1     -10.936  15.123  66.244  1.00  0.00    -0.335 A  
HETATM   20  C   UNL     1     -11.843  14.306  66.892  1.00  0.00    -0.433 A  
HETATM   21  H2  UNL     1     -13.243  13.684  62.976  1.00  0.00     0.000 HD 
HETATM   22  S   UNL     1     -12.885  13.570  65.745  1.00  0.00    -0.087 SA 
HETATM   23  H1  UNL     1     -11.966  14.775  62.457  1.00  0.00     0.000 HD 
HETATM   24  N   UNL     1     -11.070  15.154  64.864  1.00  0.00    -0.410 NA 
HETATM   25  N   UNL     1     -12.450  14.282  63.206  1.00  0.00    -0.555 NA 
HETATM   26  C   UNL     1     -12.071  14.399  64.485  1.00  0.00    -0.481 A  
ENDBRANCH  17  19
BRANCH  18  27
HETATM   27  C   UNL     1      -9.451  18.125  68.246  1.00  0.00    -0.315 C  
HETATM   28  O   UNL     1      -8.176  19.582  66.794  1.00  0.00    -0.271 OA 
HETATM   29  C   UNL     1      -9.214  19.368  67.406  1.00  0.00    -0.305 C  
HETATM   30  O   UNL     1     -10.240  20.244  67.407  1.00  0.00    -0.407 OA 
ENDBRANCH  18  27
ENDBRANCH  15  17
ENDBRANCH  11  13
TORSDOF 4
ENDMDL
MODEL      114
REMARK 921   NORMALIZED FREE ENERGY PREDICTED BY IDOCK:   -5.15 KCAL/MOL
REMARK 922        TOTAL FREE ENERGY PREDICTED BY IDOCK:   -6.90 KCAL/MOL
REMARK 923 INTER-LIGAND FREE ENERGY PREDICTED BY IDOCK:   -5.68 KCAL/MOL
REMARK 924 INTRA-LIGAND FREE ENERGY PREDICTED BY IDOCK:   -1.23 KCAL/MOL
REMARK 927      BINDING AFFINITY PREDICTED BY RF-SCORE:    0.00 PKD
ROOT
HETATM    1  CE  UNL     1     -10.528   7.556  66.755  1.00  0.00    -0.249 C  
HETATM    2  SD  UNL     1     -10.154   9.325  66.858  1.00  0.00    -0.266 SA 
HETATM    3  CG  UNL     1      -9.262   9.370  65.279  1.00  0.00    -0.238 C  
HETATM    4  CB  UNL     1      -8.278   8.247  65.138  1.00  0.00    -0.156 C  
HETATM    5  CA  UNL     1      -8.270   7.085  65.823  1.00  0.00    -0.132 C  
HETATM    6  N   UNL     1      -9.278   6.816  66.698  1.00  0.00    -0.154 N  
HETATM    7  C   UNL     1      -7.088   6.190  65.589  1.00  0.00    -0.072 C  
HETATM    8  C   UNL     1      -9.551   5.965  67.702  1.00  0.00    -0.111 C  
HETATM    9  OXT UNL     1      -6.189   6.473  64.804  1.00  0.00    -0.036 OA 
HETATM   10  O   UNL     1      -7.066   5.022  66.260  1.00  0.00    -0.069 OA 
HETATM   11  CA  UNL     1     -10.835   6.796  68.088  1.00  0.00    -0.228 C  
HETATM   12  O   UNL     1      -8.909   5.022  68.107  1.00  0.00    -0.102 OA 
ENDROOT
BRANCH  11  13
HETATM   13  N   UNL     1     -10.721   7.538  69.373  1.00  0.00    -0.306 N  
HETATM   14  H   UNL     1     -10.130   8.368  69.394  1.00  0.00     0.000 HD 
HETATM   15  C   UNL     1     -11.360   7.176  70.532  1.00  0.00    -0.297 C  
HETATM   16  O   UNL     1     -11.996   6.125  70.614  1.00  0.00    -0.147 OA 
BRANCH  15  17
HETATM   17  C   UNL     1     -11.307   8.180  71.678  1.00  0.00    -0.315 C  
HETATM   18  C   UNL     1     -10.689   7.843  72.838  1.00  0.00    -0.440 C  
BRANCH  17  19
HETATM   19  C   UNL     1     -11.913   9.484  71.505  1.00  0.00    -0.399 A  
HETATM   20  C   UNL     1     -12.888  10.035  72.315  1.00  0.00    -0.217 A  
HETATM   21  H2  UNL     1     -12.345  13.346  69.782  1.00  0.00     0.000 HD 
HETATM   22  S   UNL     1     -13.262  11.621  71.779  1.00  0.00    -0.189 SA 
HETATM   23  H1  UNL     1     -11.143  12.376  68.941  1.00  0.00     0.000 HD 
HETATM   24  N   UNL     1     -11.481  10.311  70.479  1.00  0.00    -0.321 NA 
HETATM   25  N   UNL     1     -11.836  12.468  69.683  1.00  0.00    -0.323 NA 
HETATM   26  C   UNL     1     -12.096  11.466  70.532  1.00  0.00    -0.394 A  
ENDBRANCH  17  19
BRANCH  18  27
HETATM   27  C   UNL     1      -9.871   6.636  73.220  1.00  0.00    -0.199 C  
HETATM   28  O   UNL     1      -8.233   5.819  71.637  1.00  0.00    -0.116 OA 
HETATM   29  C   UNL     1      -8.490   6.534  72.596  1.00  0.00    -0.121 C  
HETATM   30  O   UNL     1      -7.548   7.283  73.206  1.00  0.00    -0.081 OA 
ENDBRANCH  18  27
ENDBRANCH  15  17
ENDBRANCH  11  13
TORSDOF 4
ENDMDL
MODEL      115
REMARK 921   NORMALIZED FREE ENERGY PREDICTED BY IDOCK:   -5.14 KCAL/MOL
REMARK 922        TOTAL FREE ENERGY PREDICTED BY IDOCK:   -6.90 KCAL/MOL
REMARK 923 INTER-LIGAND FREE ENERGY PREDICTED BY IDOCK:   -6.05 KCAL/MOL
REMARK 924 INTRA-LIGAND FREE ENERGY PREDICTED BY IDOCK:   -0.85 KCAL/MOL
REMARK 927      BINDING AFFINITY PREDICTED BY RF-SCORE:    0.00 PKD
ROOT
HETATM    1  CE  UNL     1      -8.962  15.762  67.106  1.00  0.00    -0.214 C  
HETATM    2  SD  UNL     1     -10.136  15.383  65.779  1.00  0.00    -0.388 SA 
HETATM    3  CG  UNL     1     -10.123  17.065  65.099  1.00  0.00     0.578 C  
HETATM    4  CB  UNL     1     -10.268  18.118  66.157  1.00  0.00    -0.372 C  
HETATM    5  CA  UNL     1     -10.025  17.980  67.477  1.00  0.00    -0.327 C  
HETATM    6  N   UNL     1      -9.528  16.804  67.948  1.00  0.00    -0.228 N  
HETATM    7  C   UNL     1     -10.386  19.155  68.340  1.00  0.00    -0.327 C  
HETATM    8  C   UNL     1      -9.366  16.166  69.120  1.00  0.00    -0.238 C  
HETATM    9  OXT UNL     1     -10.849  20.195  67.882  1.00  0.00    -0.163 OA 
HETATM   10  O   UNL     1     -10.146  19.038  69.660  1.00  0.00    -0.030 OA 
HETATM   11  CA  UNL     1      -8.964  14.838  68.369  1.00  0.00    -0.187 C  
HETATM   12  O   UNL     1      -9.582  16.558  70.245  1.00  0.00     0.779 OA 
ENDROOT
BRANCH  11  13
HETATM   13  N   UNL     1      -9.981  13.755  68.457  1.00  0.00    -0.256 N  
HETATM   14  H   UNL     1     -10.863  13.965  68.923  1.00  0.00     0.000 HD 
HETATM   15  C   UNL     1      -9.808  12.491  67.950  1.00  0.00    -0.207 C  
HETATM   16  O   UNL     1      -8.730  12.131  67.478  1.00  0.00    -0.158 OA 
BRANCH  15  17
HETATM   17  C   UNL     1     -11.039  11.593  67.931  1.00  0.00    -0.306 C  
HETATM   18  C   UNL     1     -11.776  11.488  66.797  1.00  0.00     0.008 C  
BRANCH  17  19
HETATM   19  C   UNL     1     -11.398  10.858  69.127  1.00  0.00    -0.283 A  
HETATM   20  C   UNL     1     -10.900   9.623  69.496  1.00  0.00    -0.231 A  
HETATM   21  H2  UNL     1     -13.251  10.308  72.914  1.00  0.00     0.000 HD 
HETATM   22  S   UNL     1     -11.549   9.164  71.016  1.00  0.00    -0.324 SA 
HETATM   23  H1  UNL     1     -13.708  11.833  72.167  1.00  0.00     0.000 HD 
HETATM   24  N   UNL     1     -12.282  11.419  70.037  1.00  0.00    -0.311 NA 
HETATM   25  N   UNL     1     -13.188  10.957  72.130  1.00  0.00    -0.393 NA 
HETATM   26  C   UNL     1     -12.424  10.637  71.078  1.00  0.00    -0.413 A  
ENDBRANCH  17  19
BRANCH  18  27
HETATM   27  C   UNL     1     -11.548  12.017  65.404  1.00  0.00    -0.343 C  
HETATM   28  O   UNL     1     -13.375  11.891  63.823  1.00  0.00    -0.614 OA 
HETATM   29  C   UNL     1     -12.773  12.534  64.672  1.00  0.00    -0.349 C  
HETATM   30  O   UNL     1     -13.138  13.787  65.016  1.00  0.00    -0.751 OA 
ENDBRANCH  18  27
ENDBRANCH  15  17
ENDBRANCH  11  13
TORSDOF 4
ENDMDL
MODEL      116
REMARK 921   NORMALIZED FREE ENERGY PREDICTED BY IDOCK:   -5.11 KCAL/MOL
REMARK 922        TOTAL FREE ENERGY PREDICTED BY IDOCK:   -6.85 KCAL/MOL
REMARK 923 INTER-LIGAND FREE ENERGY PREDICTED BY IDOCK:   -6.07 KCAL/MOL
REMARK 924 INTRA-LIGAND FREE ENERGY PREDICTED BY IDOCK:   -0.78 KCAL/MOL
REMARK 927      BINDING AFFINITY PREDICTED BY RF-SCORE:    0.00 PKD
ROOT
HETATM    1  CE  UNL     1      -8.483  11.001  68.789  1.00  0.00    -0.144 C  
HETATM    2  SD  UNL     1     -10.177  10.747  68.201  1.00  0.00    -0.180 SA 
HETATM    3  CG  UNL     1     -10.239   9.006  68.706  1.00  0.00    -0.208 C  
HETATM    4  CB  UNL     1      -9.018   8.239  68.293  1.00  0.00    -0.136 C  
HETATM    5  CA  UNL     1      -7.811   8.750  67.969  1.00  0.00    -0.102 C  
HETATM    6  N   UNL     1      -7.600  10.090  68.077  1.00  0.00    -0.088 N  
HETATM    7  C   UNL     1      -6.798   7.769  67.454  1.00  0.00    -0.069 C  
HETATM    8  C   UNL     1      -6.710  11.014  67.674  1.00  0.00    -0.073 C  
HETATM    9  OXT UNL     1      -7.030   6.569  67.354  1.00  0.00    -0.073 OA 
HETATM   10  O   UNL     1      -5.585   8.260  67.131  1.00  0.00    -0.036 OA 
HETATM   11  CA  UNL     1      -7.660  12.176  68.161  1.00  0.00    -0.125 C  
HETATM   12  O   UNL     1      -5.664  10.868  67.082  1.00  0.00    -0.042 OA 
ENDROOT
BRANCH  11  13
HETATM   13  N   UNL     1      -8.274  12.966  67.060  1.00  0.00    -0.358 N  
HETATM   14  H   UNL     1      -8.014  12.732  66.102  1.00  0.00     0.000 HD 
HETATM   15  C   UNL     1      -9.169  13.989  67.250  1.00  0.00    -0.230 C  
HETATM   16  O   UNL     1      -9.441  14.402  68.378  1.00  0.00    -0.197 OA 
BRANCH  15  17
HETATM   17  C   UNL     1      -9.861  14.526  66.003  1.00  0.00    -0.342 C  
HETATM   18  C   UNL     1      -9.851  15.858  65.750  1.00  0.00    -0.380 C  
BRANCH  17  19
HETATM   19  C   UNL     1     -10.515  13.598  65.102  1.00  0.00    -0.374 A  
HETATM   20  C   UNL     1     -11.642  13.864  64.348  1.00  0.00    -0.382 A  
HETATM   21  H2  UNL     1     -10.911   9.988  62.893  1.00  0.00     0.000 HD 
HETATM   22  S   UNL     1     -12.026  12.504  63.376  1.00  0.00    -0.464 SA 
HETATM   23  H1  UNL     1      -9.528   9.952  63.979  1.00  0.00     0.000 HD 
HETATM   24  N   UNL     1      -9.976  12.335  64.909  1.00  0.00    -0.235 NA 
HETATM   25  N   UNL     1     -10.337  10.445  63.602  1.00  0.00     0.077 NA 
HETATM   26  C   UNL     1     -10.666  11.676  64.011  1.00  0.00    -0.384 A  
ENDBRANCH  17  19
BRANCH  18  27
HETATM   27  C   UNL     1      -9.138  16.999  66.429  1.00  0.00    -0.300 C  
HETATM   28  O   UNL     1      -9.782  19.257  65.844  1.00  0.00    -0.435 OA 
HETATM   29  C   UNL     1      -9.924  18.289  66.580  1.00  0.00    -0.373 C  
HETATM   30  O   UNL     1     -10.785  18.298  67.618  1.00  0.00    -0.419 OA 
ENDBRANCH  18  27
ENDBRANCH  15  17
ENDBRANCH  11  13
TORSDOF 4
ENDMDL
MODEL      117
REMARK 921   NORMALIZED FREE ENERGY PREDICTED BY IDOCK:   -5.10 KCAL/MOL
REMARK 922        TOTAL FREE ENERGY PREDICTED BY IDOCK:   -6.84 KCAL/MOL
REMARK 923 INTER-LIGAND FREE ENERGY PREDICTED BY IDOCK:   -6.33 KCAL/MOL
REMARK 924 INTRA-LIGAND FREE ENERGY PREDICTED BY IDOCK:   -0.52 KCAL/MOL
REMARK 927      BINDING AFFINITY PREDICTED BY RF-SCORE:    0.00 PKD
ROOT
HETATM    1  CE  UNL     1      -7.414  11.901  68.495  1.00  0.00    -0.117 C  
HETATM    2  SD  UNL     1      -6.535  13.039  69.596  1.00  0.00     0.013 SA 
HETATM    3  CG  UNL     1      -5.254  11.835  70.044  1.00  0.00    -0.081 C  
HETATM    4  CB  UNL     1      -5.820  10.493  70.401  1.00  0.00    -0.101 C  
HETATM    5  CA  UNL     1      -7.036  10.012  70.068  1.00  0.00    -0.146 C  
HETATM    6  N   UNL     1      -7.852  10.749  69.266  1.00  0.00    -0.143 N  
HETATM    7  C   UNL     1      -7.410   8.690  70.674  1.00  0.00    -0.064 C  
HETATM    8  C   UNL     1      -9.143  10.787  68.891  1.00  0.00    -0.164 C  
HETATM    9  OXT UNL     1      -6.654   8.061  71.407  1.00  0.00    -0.041 OA 
HETATM   10  O   UNL     1      -8.618   8.190  70.349  1.00  0.00    -0.126 OA 
HETATM   11  CA  UNL     1      -8.925  12.190  68.202  1.00  0.00    -0.195 C  
HETATM   12  O   UNL     1     -10.041  10.017  69.145  1.00  0.00    -0.185 OA 
ENDROOT
BRANCH  11  13
HETATM   13  N   UNL     1      -9.581  13.325  68.904  1.00  0.00    -0.404 N  
HETATM   14  H   UNL     1      -9.705  13.254  69.914  1.00  0.00     0.000 HD 
HETATM   15  C   UNL     1     -10.032  14.462  68.281  1.00  0.00    -0.232 C  
HETATM   16  O   UNL     1     -10.020  14.569  67.055  1.00  0.00    -0.248 OA 
BRANCH  15  17
HETATM   17  C   UNL     1     -10.466  15.607  69.189  1.00  0.00    -0.236 C  
HETATM   18  C   UNL     1      -9.949  16.847  68.999  1.00  0.00    -0.265 C  
BRANCH  17  19
HETATM   19  C   UNL     1     -11.433  15.352  70.237  1.00  0.00    -0.316 A  
HETATM   20  C   UNL     1     -12.658  14.735  70.072  1.00  0.00    -0.224 A  
HETATM   21  H2  UNL     1     -12.825  15.179  74.250  1.00  0.00     0.000 HD 
HETATM   22  S   UNL     1     -13.441  14.582  71.591  1.00  0.00    -0.402 SA 
HETATM   23  H1  UNL     1     -11.244  15.940  74.129  1.00  0.00     0.000 HD 
HETATM   24  N   UNL     1     -11.132  15.698  71.546  1.00  0.00    -0.274 NA 
HETATM   25  N   UNL     1     -12.044  15.498  73.677  1.00  0.00    -0.494 NA 
HETATM   26  C   UNL     1     -12.096  15.325  72.350  1.00  0.00    -0.405 A  
ENDBRANCH  17  19
BRANCH  18  27
HETATM   27  C   UNL     1      -9.059  17.405  67.918  1.00  0.00    -0.255 C  
HETATM   28  O   UNL     1      -9.785  17.189  65.619  1.00  0.00    -0.545 OA 
HETATM   29  C   UNL     1      -9.751  17.857  66.644  1.00  0.00    -0.319 C  
HETATM   30  O   UNL     1     -10.312  19.081  66.721  1.00  0.00    -0.359 OA 
ENDBRANCH  18  27
ENDBRANCH  15  17
ENDBRANCH  11  13
TORSDOF 4
ENDMDL
MODEL      118
REMARK 921   NORMALIZED FREE ENERGY PREDICTED BY IDOCK:   -5.09 KCAL/MOL
REMARK 922        TOTAL FREE ENERGY PREDICTED BY IDOCK:   -6.84 KCAL/MOL
REMARK 923 INTER-LIGAND FREE ENERGY PREDICTED BY IDOCK:   -6.04 KCAL/MOL
REMARK 924 INTRA-LIGAND FREE ENERGY PREDICTED BY IDOCK:   -0.79 KCAL/MOL
REMARK 927      BINDING AFFINITY PREDICTED BY RF-SCORE:    0.00 PKD
ROOT
HETATM    1  CE  UNL     1     -10.307   9.447  71.081  1.00  0.00    -0.307 C  
HETATM    2  SD  UNL     1     -12.054   9.680  70.662  1.00  0.00    -0.141 SA 
HETATM    3  CG  UNL     1     -12.656   8.541  71.939  1.00  0.00    -0.354 C  
HETATM    4  CB  UNL     1     -11.900   7.246  71.963  1.00  0.00    -0.332 C  
HETATM    5  CA  UNL     1     -10.673   7.014  71.452  1.00  0.00    -0.219 C  
HETATM    6  N   UNL     1      -9.968   8.043  70.907  1.00  0.00    -0.186 N  
HETATM    7  C   UNL     1     -10.204   5.588  71.485  1.00  0.00    -0.212 C  
HETATM    8  C   UNL     1      -8.893   8.236  70.123  1.00  0.00    -0.141 C  
HETATM    9  OXT UNL     1     -10.874   4.683  71.969  1.00  0.00    -0.071 OA 
HETATM   10  O   UNL     1      -8.979   5.338  70.984  1.00  0.00    -0.134 OA 
HETATM   11  CA  UNL     1      -9.243   9.768  69.979  1.00  0.00    -0.229 C  
HETATM   12  O   UNL     1      -8.103   7.427  69.689  1.00  0.00    -0.123 OA 
ENDROOT
BRANCH  11  13
HETATM   13  N   UNL     1      -9.717  10.162  68.625  1.00  0.00    -0.157 N  
HETATM   14  H   UNL     1     -10.571   9.729  68.273  1.00  0.00     0.000 HD 
HETATM   15  C   UNL     1      -9.079  11.071  67.818  1.00  0.00    -0.147 C  
HETATM   16  O   UNL     1      -7.986  11.546  68.126  1.00  0.00    -0.121 OA 
BRANCH  15  17
HETATM   17  C   UNL     1      -9.832  11.517  66.570  1.00  0.00    -0.228 C  
HETATM   18  C   UNL     1      -9.926  10.679  65.507  1.00  0.00    -0.333 C  
BRANCH  17  19
HETATM   19  C   UNL     1     -10.444  12.830  66.544  1.00  0.00    -0.263 A  
HETATM   20  C   UNL     1     -11.373  13.306  67.450  1.00  0.00    -0.303 A  
HETATM   21  H2  UNL     1     -10.962  16.825  65.186  1.00  0.00     0.000 HD 
HETATM   22  S   UNL     1     -11.772  14.931  67.074  1.00  0.00    -0.181 SA 
HETATM   23  H1  UNL     1      -9.809  15.934  64.201  1.00  0.00     0.000 HD 
HETATM   24  N   UNL     1     -10.067  13.743  65.571  1.00  0.00    -0.301 NA 
HETATM   25  N   UNL     1     -10.461  15.960  64.985  1.00  0.00    -0.559 NA 
HETATM   26  C   UNL     1     -10.676  14.887  65.757  1.00  0.00    -0.331 A  
ENDBRANCH  17  19
BRANCH  18  27
HETATM   27  C   UNL     1      -9.516   9.240  65.330  1.00  0.00    -0.234 C  
HETATM   28  O   UNL     1      -8.469   8.600  63.244  1.00  0.00    -0.170 OA 
HETATM   29  C   UNL     1      -8.344   8.984  64.400  1.00  0.00    -0.176 C  
HETATM   30  O   UNL     1      -7.134   9.189  64.960  1.00  0.00    -0.089 OA 
ENDBRANCH  18  27
ENDBRANCH  15  17
ENDBRANCH  11  13
TORSDOF 4
ENDMDL
MODEL      119
REMARK 921   NORMALIZED FREE ENERGY PREDICTED BY IDOCK:   -5.08 KCAL/MOL
REMARK 922        TOTAL FREE ENERGY PREDICTED BY IDOCK:   -6.82 KCAL/MOL
REMARK 923 INTER-LIGAND FREE ENERGY PREDICTED BY IDOCK:   -6.96 KCAL/MOL
REMARK 924 INTRA-LIGAND FREE ENERGY PREDICTED BY IDOCK:    0.14 KCAL/MOL
REMARK 927      BINDING AFFINITY PREDICTED BY RF-SCORE:    0.00 PKD
ROOT
HETATM    1  CE  UNL     1     -11.459  12.582  66.926  1.00  0.00    -0.353 C  
HETATM    2  SD  UNL     1     -12.178  13.968  66.008  1.00  0.00    -0.452 SA 
HETATM    3  CG  UNL     1     -12.780  12.933  64.645  1.00  0.00    -0.330 C  
HETATM    4  CB  UNL     1     -11.745  11.966  64.152  1.00  0.00    -0.428 C  
HETATM    5  CA  UNL     1     -10.649  11.543  64.816  1.00  0.00    -0.305 C  
HETATM    6  N   UNL     1     -10.444  11.950  66.099  1.00  0.00    -0.230 N  
HETATM    7  C   UNL     1      -9.699  10.679  64.037  1.00  0.00    -0.315 C  
HETATM    8  C   UNL     1      -9.455  11.980  67.009  1.00  0.00    -0.198 C  
HETATM    9  OXT UNL     1      -9.909  10.347  62.875  1.00  0.00    -0.287 OA 
HETATM   10  O   UNL     1      -8.602  10.243  64.685  1.00  0.00    -0.170 OA 
HETATM   11  CA  UNL     1     -10.322  12.899  67.954  1.00  0.00    -0.231 C  
HETATM   12  O   UNL     1      -8.338  11.518  66.947  1.00  0.00    -0.155 OA 
ENDROOT
BRANCH  11  13
HETATM   13  N   UNL     1      -9.832  14.299  68.064  1.00  0.00    -0.218 N  
HETATM   14  H   UNL     1     -10.026  14.807  68.927  1.00  0.00     0.000 HD 
HETATM   15  C   UNL     1      -9.134  14.952  67.079  1.00  0.00    -0.237 C  
HETATM   16  O   UNL     1      -8.962  14.445  65.970  1.00  0.00    -0.027 OA 
BRANCH  15  17
HETATM   17  C   UNL     1      -8.518  16.293  67.458  1.00  0.00    -0.183 C  
HETATM   18  C   UNL     1      -7.236  16.343  67.899  1.00  0.00    -0.150 C  
BRANCH  17  19
HETATM   19  C   UNL     1      -9.313  17.498  67.333  1.00  0.00    -0.249 A  
HETATM   20  C   UNL     1      -9.576  18.401  68.346  1.00  0.00    -0.345 A  
HETATM   21  H2  UNL     1     -11.497  20.487  65.242  1.00  0.00     0.000 HD 
HETATM   22  S   UNL     1     -10.499  19.710  67.733  1.00  0.00    -0.402 SA 
HETATM   23  H1  UNL     1     -11.013  19.162  64.191  1.00  0.00     0.000 HD 
HETATM   24  N   UNL     1      -9.842  17.845  66.099  1.00  0.00    -0.502 NA 
HETATM   25  N   UNL     1     -11.033  19.587  65.118  1.00  0.00    -0.275 NA 
HETATM   26  C   UNL     1     -10.465  18.995  66.176  1.00  0.00    -0.467 A  
ENDBRANCH  17  19
BRANCH  18  27
HETATM   27  C   UNL     1      -6.166  15.285  67.983  1.00  0.00    -0.156 C  
HETATM   28  O   UNL     1      -5.328  14.681  70.171  1.00  0.00    -0.095 OA 
HETATM   29  C   UNL     1      -6.124  14.473  69.265  1.00  0.00    -0.107 C  
HETATM   30  O   UNL     1      -7.025  13.471  69.319  1.00  0.00    -0.091 OA 
ENDBRANCH  18  27
ENDBRANCH  15  17
ENDBRANCH  11  13
TORSDOF 4
ENDMDL
MODEL      120
REMARK 921   NORMALIZED FREE ENERGY PREDICTED BY IDOCK:   -5.06 KCAL/MOL
REMARK 922        TOTAL FREE ENERGY PREDICTED BY IDOCK:   -6.80 KCAL/MOL
REMARK 923 INTER-LIGAND FREE ENERGY PREDICTED BY IDOCK:   -5.94 KCAL/MOL
REMARK 924 INTRA-LIGAND FREE ENERGY PREDICTED BY IDOCK:   -0.86 KCAL/MOL
REMARK 927      BINDING AFFINITY PREDICTED BY RF-SCORE:    0.00 PKD
ROOT
HETATM    1  CE  UNL     1      -9.089  11.016  69.423  1.00  0.00     0.221 C  
HETATM    2  SD  UNL     1      -7.655  10.254  68.621  1.00  0.00    -0.094 SA 
HETATM    3  CG  UNL     1      -7.280  11.706  67.600  1.00  0.00    -0.107 C  
HETATM    4  CB  UNL     1      -8.496  12.269  66.926  1.00  0.00    -0.159 C  
HETATM    5  CA  UNL     1      -9.783  12.075  67.282  1.00  0.00    -0.185 C  
HETATM    6  N   UNL     1     -10.068  11.358  68.403  1.00  0.00    -0.195 N  
HETATM    7  C   UNL     1     -10.816  12.640  66.350  1.00  0.00    -0.269 C  
HETATM    8  C   UNL     1     -11.118  10.749  68.980  1.00  0.00    -0.253 C  
HETATM    9  OXT UNL     1     -10.522  13.267  65.338  1.00  0.00    -0.283 OA 
HETATM   10  O   UNL     1     -12.107  12.461  66.691  1.00  0.00    -0.592 OA 
HETATM   11  CA  UNL     1     -10.170  10.067  70.041  1.00  0.00    -0.255 C  
HETATM   12  O   UNL     1     -12.281  10.736  68.642  1.00  0.00    -0.472 OA 
ENDROOT
BRANCH  11  13
HETATM   13  N   UNL     1     -10.012   8.598  69.864  1.00  0.00    -0.183 N  
HETATM   14  H   UNL     1      -9.160   8.260  69.416  1.00  0.00     0.000 HD 
HETATM   15  C   UNL     1     -10.938   7.668  70.266  1.00  0.00    -0.252 C  
HETATM   16  O   UNL     1     -12.036   8.006  70.709  1.00  0.00    -0.242 OA 
BRANCH  15  17
HETATM   17  C   UNL     1     -10.502   6.208  70.211  1.00  0.00    -0.288 C  
HETATM   18  C   UNL     1     -10.300   5.524  71.365  1.00  0.00    -0.291 C  
BRANCH  17  19
HETATM   19  C   UNL     1     -10.319   5.572  68.923  1.00  0.00    -0.218 A  
HETATM   20  C   UNL     1     -10.709   6.092  67.703  1.00  0.00    -0.296 A  
HETATM   21  H2  UNL     1      -8.822   2.629  66.245  1.00  0.00     0.000 HD 
HETATM   22  S   UNL     1     -10.232   5.033  66.440  1.00  0.00    -0.289 SA 
HETATM   23  H1  UNL     1      -8.476   2.235  67.924  1.00  0.00     0.000 HD 
HETATM   24  N   UNL     1      -9.658   4.355  68.847  1.00  0.00    -0.165 NA 
HETATM   25  N   UNL     1      -8.893   2.861  67.235  1.00  0.00    -0.128 NA 
HETATM   26  C   UNL     1      -9.532   3.981  67.598  1.00  0.00    -0.183 A  
ENDBRANCH  17  19
BRANCH  18  27
HETATM   27  C   UNL     1     -10.554   5.894  72.804  1.00  0.00    -0.257 C  
HETATM   28  O   UNL     1      -8.661   5.986  74.309  1.00  0.00    -0.118 OA 
HETATM   29  C   UNL     1      -9.409   6.571  73.536  1.00  0.00    -0.137 C  
HETATM   30  O   UNL     1      -9.292   7.891  73.287  1.00  0.00    -0.245 OA 
ENDBRANCH  18  27
ENDBRANCH  15  17
ENDBRANCH  11  13
TORSDOF 4
ENDMDL
MODEL      121
REMARK 921   NORMALIZED FREE ENERGY PREDICTED BY IDOCK:   -5.05 KCAL/MOL
REMARK 922        TOTAL FREE ENERGY PREDICTED BY IDOCK:   -6.79 KCAL/MOL
REMARK 923 INTER-LIGAND FREE ENERGY PREDICTED BY IDOCK:   -6.12 KCAL/MOL
REMARK 924 INTRA-LIGAND FREE ENERGY PREDICTED BY IDOCK:   -0.67 KCAL/MOL
REMARK 927      BINDING AFFINITY PREDICTED BY RF-SCORE:    0.00 PKD
ROOT
HETATM    1  CE  UNL     1     -12.450  11.696  69.568  1.00  0.00     0.046 C  
HETATM    2  SD  UNL     1     -12.356  10.723  71.092  1.00  0.00    -0.386 SA 
HETATM    3  CG  UNL     1     -13.518  11.779  72.002  1.00  0.00    -0.214 C  
HETATM    4  CB  UNL     1     -13.216  13.239  71.846  1.00  0.00    -0.523 C  
HETATM    5  CA  UNL     1     -12.486  13.817  70.869  1.00  0.00    -0.377 C  
HETATM    6  N   UNL     1     -12.005  13.052  69.851  1.00  0.00    -0.330 N  
HETATM    7  C   UNL     1     -12.219  15.285  71.026  1.00  0.00    -0.350 C  
HETATM    8  C   UNL     1     -11.100  13.132  68.860  1.00  0.00    -0.266 C  
HETATM    9  OXT UNL     1     -12.655  15.940  71.968  1.00  0.00    -0.433 OA 
HETATM   10  O   UNL     1     -11.497  15.881  70.058  1.00  0.00    -0.313 OA 
HETATM   11  CA  UNL     1     -11.257  11.591  68.560  1.00  0.00    -0.258 C  
HETATM   12  O   UNL     1     -10.424  14.074  68.510  1.00  0.00    -0.238 OA 
ENDROOT
BRANCH  11  13
HETATM   13  N   UNL     1     -10.075  10.771  68.939  1.00  0.00    -0.197 N  
HETATM   14  H   UNL     1      -9.314  11.232  69.436  1.00  0.00     0.000 HD 
HETATM   15  C   UNL     1      -9.944   9.433  68.663  1.00  0.00    -0.173 C  
HETATM   16  O   UNL     1     -10.767   8.837  67.969  1.00  0.00    -0.190 OA 
BRANCH  15  17
HETATM   17  C   UNL     1      -8.775   8.714  69.327  1.00  0.00    -0.133 C  
HETATM   18  C   UNL     1      -8.945   7.458  69.809  1.00  0.00    -0.141 C  
BRANCH  17  19
HETATM   19  C   UNL     1      -7.494   9.386  69.426  1.00  0.00    -0.080 A  
HETATM   20  C   UNL     1      -6.480   9.331  68.488  1.00  0.00    -0.053 A  
HETATM   21  H2  UNL     1      -4.653  12.059  71.115  1.00  0.00     0.000 HD 
HETATM   22  S   UNL     1      -5.177  10.330  68.983  1.00  0.00    -0.034 SA 
HETATM   23  H1  UNL     1      -6.095  11.908  72.110  1.00  0.00     0.000 HD 
HETATM   24  N   UNL     1      -7.231  10.203  70.514  1.00  0.00    -0.306 NA 
HETATM   25  N   UNL     1      -5.571  11.645  71.276  1.00  0.00    -0.377 NA 
HETATM   26  C   UNL     1      -6.057  10.772  70.386  1.00  0.00    -0.135 A  
ENDBRANCH  17  19
BRANCH  18  27
HETATM   27  C   UNL     1     -10.102   6.498  69.710  1.00  0.00    -0.207 C  
HETATM   28  O   UNL     1      -9.908   4.632  68.181  1.00  0.00    -0.152 OA 
HETATM   29  C   UNL     1      -9.761   5.072  69.314  1.00  0.00    -0.179 C  
HETATM   30  O   UNL     1      -9.301   4.309  70.326  1.00  0.00    -0.123 OA 
ENDBRANCH  18  27
ENDBRANCH  15  17
ENDBRANCH  11  13
TORSDOF 4
ENDMDL
MODEL      122
REMARK 921   NORMALIZED FREE ENERGY PREDICTED BY IDOCK:   -5.03 KCAL/MOL
REMARK 922        TOTAL FREE ENERGY PREDICTED BY IDOCK:   -6.75 KCAL/MOL
REMARK 923 INTER-LIGAND FREE ENERGY PREDICTED BY IDOCK:   -5.74 KCAL/MOL
REMARK 924 INTRA-LIGAND FREE ENERGY PREDICTED BY IDOCK:   -1.02 KCAL/MOL
REMARK 927      BINDING AFFINITY PREDICTED BY RF-SCORE:    0.00 PKD
ROOT
HETATM    1  CE  UNL     1      -9.706  10.051  69.825  1.00  0.00    -0.226 C  
HETATM    2  SD  UNL     1     -10.535  10.911  68.464  1.00  0.00    -0.201 SA 
HETATM    3  CG  UNL     1     -11.590  11.907  69.554  1.00  0.00    -0.327 C  
HETATM    4  CB  UNL     1     -12.239  11.093  70.633  1.00  0.00    -0.492 C  
HETATM    5  CA  UNL     1     -11.844   9.884  71.086  1.00  0.00    -0.386 C  
HETATM    6  N   UNL     1     -10.703   9.326  70.597  1.00  0.00    -0.246 N  
HETATM    7  C   UNL     1     -12.754   9.223  72.079  1.00  0.00    -0.401 C  
HETATM    8  C   UNL     1     -10.086   8.132  70.572  1.00  0.00    -0.192 C  
HETATM    9  OXT UNL     1     -13.785   9.749  72.485  1.00  0.00    -0.340 OA 
HETATM   10  O   UNL     1     -12.374   8.018  72.547  1.00  0.00    -0.289 OA 
HETATM   11  CA  UNL     1      -9.042   8.667  69.517  1.00  0.00    -0.146 C  
HETATM   12  O   UNL     1     -10.391   7.097  71.122  1.00  0.00    -0.203 OA 
ENDROOT
BRANCH  11  13
HETATM   13  N   UNL     1      -9.198   8.090  68.155  1.00  0.00    -0.134 N  
HETATM   14  H   UNL     1     -10.136   7.830  67.851  1.00  0.00     0.000 HD 
HETATM   15  C   UNL     1      -8.161   7.884  67.280  1.00  0.00    -0.118 C  
HETATM   16  O   UNL     1      -6.991   8.065  67.618  1.00  0.00    -0.071 OA 
BRANCH  15  17
HETATM   17  C   UNL     1      -8.541   7.502  65.854  1.00  0.00    -0.165 C  
HETATM   18  C   UNL     1      -8.765   8.473  64.935  1.00  0.00    -0.090 C  
BRANCH  17  19
HETATM   19  C   UNL     1      -8.648   6.100  65.502  1.00  0.00    -0.130 A  
HETATM   20  C   UNL     1      -8.508   5.574  64.232  1.00  0.00    -0.069 A  
HETATM   21  H2  UNL     1      -8.988   1.935  66.283  1.00  0.00     0.000 HD 
HETATM   22  S   UNL     1      -8.646   3.865  64.292  1.00  0.00    -0.108 SA 
HETATM   23  H1  UNL     1      -9.136   2.899  67.747  1.00  0.00     0.000 HD 
HETATM   24  N   UNL     1      -8.866   5.158  66.496  1.00  0.00    -0.116 NA 
HETATM   25  N   UNL     1      -9.007   2.848  66.737  1.00  0.00    -0.150 NA 
HETATM   26  C   UNL     1      -8.863   3.950  65.990  1.00  0.00    -0.123 A  
ENDBRANCH  17  19
BRANCH  18  27
HETATM   27  C   UNL     1      -8.583   9.969  64.997  1.00  0.00    -0.173 C  
HETATM   28  O   UNL     1      -8.793  11.229  62.942  1.00  0.00    -0.230 OA 
HETATM   29  C   UNL     1      -9.324  10.780  63.949  1.00  0.00    -0.253 C  
HETATM   30  O   UNL     1     -10.626  10.993  64.229  1.00  0.00    -0.357 OA 
ENDBRANCH  18  27
ENDBRANCH  15  17
ENDBRANCH  11  13
TORSDOF 4
ENDMDL
MODEL      123
REMARK 921   NORMALIZED FREE ENERGY PREDICTED BY IDOCK:   -5.01 KCAL/MOL
REMARK 922        TOTAL FREE ENERGY PREDICTED BY IDOCK:   -6.74 KCAL/MOL
REMARK 923 INTER-LIGAND FREE ENERGY PREDICTED BY IDOCK:   -6.14 KCAL/MOL
REMARK 924 INTRA-LIGAND FREE ENERGY PREDICTED BY IDOCK:   -0.60 KCAL/MOL
REMARK 927      BINDING AFFINITY PREDICTED BY RF-SCORE:    0.00 PKD
ROOT
HETATM    1  CE  UNL     1     -10.878  11.111  66.345  1.00  0.00    -0.225 C  
HETATM    2  SD  UNL     1      -9.213  10.917  65.658  1.00  0.00    -0.209 SA 
HETATM    3  CG  UNL     1      -9.217   9.108  65.796  1.00  0.00    -0.234 C  
HETATM    4  CB  UNL     1      -9.702   8.630  67.132  1.00  0.00    -0.248 C  
HETATM    5  CA  UNL     1     -10.446   9.322  68.019  1.00  0.00    -0.223 C  
HETATM    6  N   UNL     1     -10.894  10.566  67.693  1.00  0.00    -0.279 N  
HETATM    7  C   UNL     1     -10.677   8.658  69.346  1.00  0.00    -0.158 C  
HETATM    8  C   UNL     1     -11.423  11.645  68.295  1.00  0.00    -0.303 C  
HETATM    9  OXT UNL     1     -10.243   7.542  69.611  1.00  0.00    -0.195 OA 
HETATM   10  O   UNL     1     -11.422   9.331  70.243  1.00  0.00    -0.243 OA 
HETATM   11  CA  UNL     1     -11.250  12.494  66.976  1.00  0.00    -0.302 C  
HETATM   12  O   UNL     1     -11.764  11.793  69.447  1.00  0.00    -0.289 OA 
ENDROOT
BRANCH  11  13
HETATM   13  N   UNL     1     -10.201  13.545  67.059  1.00  0.00    -0.247 N  
HETATM   14  H   UNL     1      -9.333  13.395  66.544  1.00  0.00     0.000 HD 
HETATM   15  C   UNL     1     -10.324  14.704  67.784  1.00  0.00    -0.237 C  
HETATM   16  O   UNL     1     -11.291  14.901  68.520  1.00  0.00    -0.270 OA 
BRANCH  15  17
HETATM   17  C   UNL     1      -9.246  15.759  67.565  1.00  0.00    -0.207 C  
HETATM   18  C   UNL     1      -7.957  15.376  67.389  1.00  0.00    -0.213 C  
BRANCH  17  19
HETATM   19  C   UNL     1      -9.620  17.159  67.542  1.00  0.00    -0.254 A  
HETATM   20  C   UNL     1      -9.289  18.100  68.498  1.00  0.00    -0.310 A  
HETATM   21  H2  UNL     1     -11.241  20.697  65.829  1.00  0.00     0.000 HD 
HETATM   22  S   UNL     1      -9.882  19.639  68.030  1.00  0.00    -0.440 SA 
HETATM   23  H1  UNL     1     -11.516  19.284  64.818  1.00  0.00     0.000 HD 
HETATM   24  N   UNL     1     -10.337  17.659  66.464  1.00  0.00    -0.349 NA 
HETATM   25  N   UNL     1     -11.140  19.694  65.673  1.00  0.00    -0.255 NA 
HETATM   26  C   UNL     1     -10.515  18.950  66.594  1.00  0.00    -0.428 A  
ENDBRANCH  17  19
BRANCH  18  27
HETATM   27  C   UNL     1      -7.332  14.014  67.227  1.00  0.00    -0.022 C  
HETATM   28  O   UNL     1      -5.692  13.310  68.861  1.00  0.00    -0.071 OA 
HETATM   29  C   UNL     1      -6.861  13.335  68.501  1.00  0.00    -0.099 C  
HETATM   30  O   UNL     1      -7.841  12.729  69.203  1.00  0.00     0.171 OA 
ENDBRANCH  18  27
ENDBRANCH  15  17
ENDBRANCH  11  13
TORSDOF 4
ENDMDL
MODEL      124
REMARK 921   NORMALIZED FREE ENERGY PREDICTED BY IDOCK:   -5.01 KCAL/MOL
REMARK 922        TOTAL FREE ENERGY PREDICTED BY IDOCK:   -6.74 KCAL/MOL
REMARK 923 INTER-LIGAND FREE ENERGY PREDICTED BY IDOCK:   -5.97 KCAL/MOL
REMARK 924 INTRA-LIGAND FREE ENERGY PREDICTED BY IDOCK:   -0.77 KCAL/MOL
REMARK 927      BINDING AFFINITY PREDICTED BY RF-SCORE:    0.00 PKD
ROOT
HETATM    1  CE  UNL     1      -9.589   8.975  71.034  1.00  0.00    -0.279 C  
HETATM    2  SD  UNL     1     -11.159   9.600  70.381  1.00  0.00    -0.311 SA 
HETATM    3  CG  UNL     1     -12.115   9.130  71.849  1.00  0.00    -0.378 C  
HETATM    4  CB  UNL     1     -11.823   7.732  72.308  1.00  0.00    -0.378 C  
HETATM    5  CA  UNL     1     -10.731   6.995  72.016  1.00  0.00    -0.215 C  
HETATM    6  N   UNL     1      -9.723   7.550  71.289  1.00  0.00    -0.165 N  
HETATM    7  C   UNL     1     -10.752   5.570  72.489  1.00  0.00    -0.240 C  
HETATM    8  C   UNL     1      -8.633   7.162  70.603  1.00  0.00    -0.143 C  
HETATM    9  OXT UNL     1     -11.687   5.099  73.128  1.00  0.00    -0.298 OA 
HETATM   10  O   UNL     1      -9.669   4.820  72.211  1.00  0.00    -0.149 OA 
HETATM   11  CA  UNL     1      -8.464   8.614  70.007  1.00  0.00    -0.130 C  
HETATM   12  O   UNL     1      -8.144   6.060  70.495  1.00  0.00    -0.108 OA 
ENDROOT
BRANCH  11  13
HETATM   13  N   UNL     1      -8.765   8.718  68.554  1.00  0.00    -0.134 N  
HETATM   14  H   UNL     1      -9.131   7.891  68.082  1.00  0.00     0.000 HD 
HETATM   15  C   UNL     1      -8.583   9.855  67.808  1.00  0.00    -0.121 C  
HETATM   16  O   UNL     1      -8.040  10.854  68.281  1.00  0.00    -0.113 OA 
BRANCH  15  17
HETATM   17  C   UNL     1      -9.161   9.841  66.397  1.00  0.00    -0.187 C  
HETATM   18  C   UNL     1     -10.349  10.446  66.152  1.00  0.00    -0.269 C  
BRANCH  17  19
HETATM   19  C   UNL     1      -8.422   9.185  65.337  1.00  0.00    -0.149 A  
HETATM   20  C   UNL     1      -8.278   7.820  65.178  1.00  0.00    -0.132 A  
HETATM   21  H2  UNL     1      -6.255   8.994  61.684  1.00  0.00     0.000 HD 
HETATM   22  S   UNL     1      -7.384   7.492  63.751  1.00  0.00    -0.100 SA 
HETATM   23  H1  UNL     1      -6.596  10.651  62.168  1.00  0.00     0.000 HD 
HETATM   24  N   UNL     1      -7.827   9.948  64.343  1.00  0.00    -0.137 NA 
HETATM   25  N   UNL     1      -6.662   9.650  62.351  1.00  0.00    -0.095 NA 
HETATM   26  C   UNL     1      -7.271   9.174  63.444  1.00  0.00    -0.095 A  
ENDBRANCH  17  19
BRANCH  18  27
HETATM   27  C   UNL     1     -11.232  11.304  67.021  1.00  0.00    -0.324 C  
HETATM   28  O   UNL     1     -11.089  13.707  66.772  1.00  0.00    -0.299 OA 
HETATM   29  C   UNL     1     -11.627  12.655  66.452  1.00  0.00    -0.384 C  
HETATM   30  O   UNL     1     -12.650  12.611  65.573  1.00  0.00    -0.634 OA 
ENDBRANCH  18  27
ENDBRANCH  15  17
ENDBRANCH  11  13
TORSDOF 4
ENDMDL
MODEL      125
REMARK 921   NORMALIZED FREE ENERGY PREDICTED BY IDOCK:   -5.00 KCAL/MOL
REMARK 922        TOTAL FREE ENERGY PREDICTED BY IDOCK:   -6.72 KCAL/MOL
REMARK 923 INTER-LIGAND FREE ENERGY PREDICTED BY IDOCK:   -5.71 KCAL/MOL
REMARK 924 INTRA-LIGAND FREE ENERGY PREDICTED BY IDOCK:   -1.01 KCAL/MOL
REMARK 927      BINDING AFFINITY PREDICTED BY RF-SCORE:    0.00 PKD
ROOT
HETATM    1  CE  UNL     1     -10.852   6.481  69.762  1.00  0.00    -0.295 C  
HETATM    2  SD  UNL     1      -9.411   5.772  68.926  1.00  0.00    -0.125 SA 
HETATM    3  CG  UNL     1      -9.431   4.238  69.894  1.00  0.00    -0.189 C  
HETATM    4  CB  UNL     1      -9.589   4.483  71.365  1.00  0.00    -0.232 C  
HETATM    5  CA  UNL     1     -10.076   5.596  71.954  1.00  0.00    -0.189 C  
HETATM    6  N   UNL     1     -10.555   6.608  71.180  1.00  0.00    -0.224 N  
HETATM    7  C   UNL     1      -9.995   5.638  73.452  1.00  0.00    -0.175 C  
HETATM    8  C   UNL     1     -10.893   7.904  71.298  1.00  0.00    -0.235 C  
HETATM    9  OXT UNL     1      -9.540   4.712  74.116  1.00  0.00    -0.119 OA 
HETATM   10  O   UNL     1     -10.481   6.738  74.058  1.00  0.00    -0.364 OA 
HETATM   11  CA  UNL     1     -11.022   8.037  69.731  1.00  0.00    -0.137 C  
HETATM   12  O   UNL     1     -10.938   8.600  72.288  1.00  0.00    -0.354 OA 
ENDROOT
BRANCH  11  13
HETATM   13  N   UNL     1      -9.955   8.857  69.097  1.00  0.00    -0.184 N  
HETATM   14  H   UNL     1      -9.038   8.431  68.971  1.00  0.00     0.000 HD 
HETATM   15  C   UNL     1     -10.127  10.150  68.670  1.00  0.00    -0.172 C  
HETATM   16  O   UNL     1     -11.169  10.766  68.892  1.00  0.00    -0.229 OA 
BRANCH  15  17
HETATM   17  C   UNL     1      -8.996  10.747  67.841  1.00  0.00    -0.139 C  
HETATM   18  C   UNL     1      -9.055  10.694  66.487  1.00  0.00    -0.179 C  
BRANCH  17  19
HETATM   19  C   UNL     1      -7.876  11.370  68.517  1.00  0.00    -0.140 A  
HETATM   20  C   UNL     1      -7.326  12.599  68.204  1.00  0.00    -0.112 A  
HETATM   21  H2  UNL     1      -4.940  11.772  71.565  1.00  0.00     0.000 HD 
HETATM   22  S   UNL     1      -6.064  12.970  69.305  1.00  0.00    -0.104 SA 
HETATM   23  H1  UNL     1      -5.829  10.261  71.696  1.00  0.00     0.000 HD 
HETATM   24  N   UNL     1      -7.297  10.740  69.608  1.00  0.00    -0.135 NA 
HETATM   25  N   UNL     1      -5.658  11.141  71.211  1.00  0.00    -0.347 NA 
HETATM   26  C   UNL     1      -6.352  11.490  70.121  1.00  0.00    -0.078 A  
ENDBRANCH  17  19
BRANCH  18  27
HETATM   27  C   UNL     1     -10.148  10.244  65.551  1.00  0.00    -0.351 C  
HETATM   28  O   UNL     1     -10.419  11.431  63.460  1.00  0.00    -0.359 OA 
HETATM   29  C   UNL     1      -9.914  10.500  64.073  1.00  0.00    -0.297 C  
HETATM   30  O   UNL     1      -9.117   9.593  63.471  1.00  0.00    -0.244 OA 
ENDBRANCH  18  27
ENDBRANCH  15  17
ENDBRANCH  11  13
TORSDOF 4
ENDMDL
MODEL      126
REMARK 921   NORMALIZED FREE ENERGY PREDICTED BY IDOCK:   -4.99 KCAL/MOL
REMARK 922        TOTAL FREE ENERGY PREDICTED BY IDOCK:   -6.71 KCAL/MOL
REMARK 923 INTER-LIGAND FREE ENERGY PREDICTED BY IDOCK:   -5.60 KCAL/MOL
REMARK 924 INTRA-LIGAND FREE ENERGY PREDICTED BY IDOCK:   -1.12 KCAL/MOL
REMARK 927      BINDING AFFINITY PREDICTED BY RF-SCORE:    0.00 PKD
ROOT
HETATM    1  CE  UNL     1     -12.467  11.288  69.122  1.00  0.00     0.150 C  
HETATM    2  SD  UNL     1     -12.228  10.612  70.785  1.00  0.00    -0.407 SA 
HETATM    3  CG  UNL     1     -13.137  11.949  71.608  1.00  0.00    -0.328 C  
HETATM    4  CB  UNL     1     -12.733  13.309  71.122  1.00  0.00    -0.404 C  
HETATM    5  CA  UNL     1     -12.113  13.603  69.960  1.00  0.00    -0.348 C  
HETATM    6  N   UNL     1     -11.864  12.610  69.063  1.00  0.00    -0.304 N  
HETATM    7  C   UNL     1     -11.695  15.033  69.781  1.00  0.00    -0.307 C  
HETATM    8  C   UNL     1     -11.118  12.396  67.966  1.00  0.00    -0.245 C  
HETATM    9  OXT UNL     1     -11.921  15.899  70.619  1.00  0.00    -0.364 OA 
HETATM   10  O   UNL     1     -11.079  15.348  68.625  1.00  0.00    -0.259 OA 
HETATM   11  CA  UNL     1     -11.456  10.855  68.007  1.00  0.00    -0.281 C  
HETATM   12  O   UNL     1     -10.422  13.169  67.346  1.00  0.00    -0.240 OA 
ENDROOT
BRANCH  11  13
HETATM   13  N   UNL     1     -10.308   9.987  68.384  1.00  0.00    -0.181 N  
HETATM   14  H   UNL     1      -9.554  10.404  68.930  1.00  0.00     0.000 HD 
HETATM   15  C   UNL     1     -10.199   8.662  68.044  1.00  0.00    -0.210 C  
HETATM   16  O   UNL     1     -11.010   8.123  67.292  1.00  0.00    -0.154 OA 
BRANCH  15  17
HETATM   17  C   UNL     1      -9.071   7.882  68.710  1.00  0.00    -0.140 C  
HETATM   18  C   UNL     1      -8.155   7.239  67.944  1.00  0.00    -0.119 C  
BRANCH  17  19
HETATM   19  C   UNL     1      -8.994   7.846  70.157  1.00  0.00    -0.151 A  
HETATM   20  C   UNL     1      -7.832   7.901  70.904  1.00  0.00    -0.088 A  
HETATM   21  H2  UNL     1     -10.550   7.901  74.112  1.00  0.00     0.000 HD 
HETATM   22  S   UNL     1      -8.216   7.898  72.576  1.00  0.00    -0.153 SA 
HETATM   23  H1  UNL     1     -11.822   7.825  72.900  1.00  0.00     0.000 HD 
HETATM   24  N   UNL     1     -10.160   7.799  70.905  1.00  0.00    -0.187 NA 
HETATM   25  N   UNL     1     -10.830   7.857  73.132  1.00  0.00    -0.340 NA 
HETATM   26  C   UNL     1      -9.884   7.844  72.185  1.00  0.00    -0.205 A  
ENDBRANCH  17  19
BRANCH  18  27
HETATM   27  C   UNL     1      -7.925   7.235  66.454  1.00  0.00    -0.112 C  
HETATM   28  O   UNL     1      -7.838   9.364  65.307  1.00  0.00    -0.104 OA 
HETATM   29  C   UNL     1      -7.240   8.460  65.876  1.00  0.00    -0.072 C  
HETATM   30  O   UNL     1      -5.898   8.465  66.016  1.00  0.00    -0.042 OA 
ENDBRANCH  18  27
ENDBRANCH  15  17
ENDBRANCH  11  13
TORSDOF 4
ENDMDL
MODEL      127
REMARK 921   NORMALIZED FREE ENERGY PREDICTED BY IDOCK:   -4.99 KCAL/MOL
REMARK 922        TOTAL FREE ENERGY PREDICTED BY IDOCK:   -6.71 KCAL/MOL
REMARK 923 INTER-LIGAND FREE ENERGY PREDICTED BY IDOCK:   -5.76 KCAL/MOL
REMARK 924 INTRA-LIGAND FREE ENERGY PREDICTED BY IDOCK:   -0.95 KCAL/MOL
REMARK 927      BINDING AFFINITY PREDICTED BY RF-SCORE:    0.00 PKD
ROOT
HETATM    1  CE  UNL     1      -9.912  11.865  64.688  1.00  0.00    -0.230 C  
HETATM    2  SD  UNL     1     -11.677  11.536  64.450  1.00  0.00     0.071 SA 
HETATM    3  CG  UNL     1     -11.976  13.062  63.515  1.00  0.00    -0.545 C  
HETATM    4  CB  UNL     1     -11.364  14.267  64.163  1.00  0.00    -0.074 C  
HETATM    5  CA  UNL     1     -10.364  14.281  65.070  1.00  0.00    -0.421 C  
HETATM    6  N   UNL     1      -9.763  13.111  65.421  1.00  0.00    -0.086 N  
HETATM    7  C   UNL     1     -10.033  15.618  65.666  1.00  0.00    -0.354 C  
HETATM    8  C   UNL     1      -8.951  12.635  66.381  1.00  0.00    -0.050 C  
HETATM    9  OXT UNL     1     -10.609  16.650  65.337  1.00  0.00    -0.537 OA 
HETATM   10  O   UNL     1      -9.034  15.652  66.569  1.00  0.00    -0.254 OA 
HETATM   11  CA  UNL     1      -9.192  11.157  65.884  1.00  0.00    -0.206 C  
HETATM   12  O   UNL     1      -8.396  13.224  67.282  1.00  0.00    -0.181 OA 
ENDROOT
BRANCH  11  13
HETATM   13  N   UNL     1     -10.005  10.325  66.812  1.00  0.00    -0.200 N  
HETATM   14  H   UNL     1     -11.019  10.413  66.768  1.00  0.00     0.000 HD 
HETATM   15  C   UNL     1      -9.476   9.445  67.724  1.00  0.00    -0.132 C  
HETATM   16  O   UNL     1      -8.262   9.370  67.913  1.00  0.00    -0.113 OA 
BRANCH  15  17
HETATM   17  C   UNL     1     -10.463   8.518  68.423  1.00  0.00    -0.215 C  
HETATM   18  C   UNL     1     -10.823   7.352  67.832  1.00  0.00    -0.151 C  
BRANCH  17  19
HETATM   19  C   UNL     1     -10.995   8.896  69.717  1.00  0.00    -0.156 A  
HETATM   20  C   UNL     1     -11.740  10.029  69.983  1.00  0.00    -0.175 A  
HETATM   21  H2  UNL     1     -11.938   8.328  73.823  1.00  0.00     0.000 HD 
HETATM   22  S   UNL     1     -12.217  10.038  71.631  1.00  0.00    -0.308 SA 
HETATM   23  H1  UNL     1     -10.962   7.014  73.178  1.00  0.00     0.000 HD 
HETATM   24  N   UNL     1     -10.807   8.059  70.806  1.00  0.00    -0.228 NA 
HETATM   25  N   UNL     1     -11.437   7.906  73.041  1.00  0.00    -0.307 NA 
HETATM   26  C   UNL     1     -11.419   8.538  71.861  1.00  0.00    -0.335 A  
ENDBRANCH  17  19
BRANCH  18  27
HETATM   27  C   UNL     1     -10.320   6.665  66.588  1.00  0.00    -0.215 C  
HETATM   28  O   UNL     1      -7.957   6.169  66.434  1.00  0.00    -0.102 OA 
HETATM   29  C   UNL     1      -9.081   5.803  66.750  1.00  0.00    -0.126 C  
HETATM   30  O   UNL     1      -9.321   4.573  67.251  1.00  0.00    -0.128 OA 
ENDBRANCH  18  27
ENDBRANCH  15  17
ENDBRANCH  11  13
TORSDOF 4
ENDMDL
MODEL      128
REMARK 921   NORMALIZED FREE ENERGY PREDICTED BY IDOCK:   -4.99 KCAL/MOL
REMARK 922        TOTAL FREE ENERGY PREDICTED BY IDOCK:   -6.71 KCAL/MOL
REMARK 923 INTER-LIGAND FREE ENERGY PREDICTED BY IDOCK:   -5.95 KCAL/MOL
REMARK 924 INTRA-LIGAND FREE ENERGY PREDICTED BY IDOCK:   -0.76 KCAL/MOL
REMARK 927      BINDING AFFINITY PREDICTED BY RF-SCORE:    0.00 PKD
ROOT
HETATM    1  CE  UNL     1      -9.196   6.923  67.639  1.00  0.00    -0.119 C  
HETATM    2  SD  UNL     1     -10.954   6.533  67.448  1.00  0.00    -0.340 SA 
HETATM    3  CG  UNL     1     -10.656   4.997  66.530  1.00  0.00    -0.231 C  
HETATM    4  CB  UNL     1      -9.647   5.165  65.433  1.00  0.00    -0.016 C  
HETATM    5  CA  UNL     1      -8.724   6.143  65.324  1.00  0.00    -0.024 C  
HETATM    6  N   UNL     1      -8.603   7.064  66.318  1.00  0.00    -0.133 N  
HETATM    7  C   UNL     1      -7.927   6.157  64.052  1.00  0.00    -0.110 C  
HETATM    8  C   UNL     1      -8.037   8.266  66.527  1.00  0.00    -0.105 C  
HETATM    9  OXT UNL     1      -8.075   5.319  63.169  1.00  0.00    -0.092 OA 
HETATM   10  O   UNL     1      -6.997   7.123  63.927  1.00  0.00    -0.052 OA 
HETATM   11  CA  UNL     1      -8.804   8.416  67.898  1.00  0.00    -0.138 C  
HETATM   12  O   UNL     1      -7.313   8.911  65.802  1.00  0.00    -0.087 OA 
ENDROOT
BRANCH  11  13
HETATM   13  N   UNL     1      -9.877   9.446  67.888  1.00  0.00    -0.158 N  
HETATM   14  H   UNL     1     -10.796   9.175  67.540  1.00  0.00     0.000 HD 
HETATM   15  C   UNL     1      -9.710  10.738  68.318  1.00  0.00    -0.164 C  
HETATM   16  O   UNL     1      -8.603  11.169  68.644  1.00  0.00    -0.151 OA 
BRANCH  15  17
HETATM   17  C   UNL     1     -10.974  11.579  68.448  1.00  0.00    -0.267 C  
HETATM   18  C   UNL     1     -11.325  12.423  67.446  1.00  0.00    -0.381 C  
BRANCH  17  19
HETATM   19  C   UNL     1     -11.787  11.456  69.641  1.00  0.00    -0.362 A  
HETATM   20  C   UNL     1     -12.175  10.270  70.235  1.00  0.00    -0.221 A  
HETATM   21  H2  UNL     1     -13.837  12.878  73.084  1.00  0.00     0.000 HD 
HETATM   22  S   UNL     1     -13.070  10.599  71.661  1.00  0.00    -0.426 SA 
HETATM   23  H1  UNL     1     -13.213  14.191  72.094  1.00  0.00     0.000 HD 
HETATM   24  N   UNL     1     -12.201  12.599  70.310  1.00  0.00    -0.313 NA 
HETATM   25  N   UNL     1     -13.337  13.191  72.252  1.00  0.00    -0.531 NA 
HETATM   26  C   UNL     1     -12.861  12.279  71.396  1.00  0.00    -0.271 A  
ENDBRANCH  17  19
BRANCH  18  27
HETATM   27  C   UNL     1     -10.751  12.632  66.068  1.00  0.00    -0.295 C  
HETATM   28  O   UNL     1     -11.268  14.698  64.918  1.00  0.00    -0.360 OA 
HETATM   29  C   UNL     1     -10.513  14.072  65.651  1.00  0.00    -0.318 C  
HETATM   30  O   UNL     1      -9.374  14.610  66.134  1.00  0.00    -0.285 OA 
ENDBRANCH  18  27
ENDBRANCH  15  17
ENDBRANCH  11  13
TORSDOF 4
ENDMDL
MODEL      129
REMARK 921   NORMALIZED FREE ENERGY PREDICTED BY IDOCK:   -4.95 KCAL/MOL
REMARK 922        TOTAL FREE ENERGY PREDICTED BY IDOCK:   -6.66 KCAL/MOL
REMARK 923 INTER-LIGAND FREE ENERGY PREDICTED BY IDOCK:   -5.51 KCAL/MOL
REMARK 924 INTRA-LIGAND FREE ENERGY PREDICTED BY IDOCK:   -1.15 KCAL/MOL
REMARK 927      BINDING AFFINITY PREDICTED BY RF-SCORE:    0.00 PKD
ROOT
HETATM    1  CE  UNL     1      -8.627  11.270  66.079  1.00  0.00    -0.130 C  
HETATM    2  SD  UNL     1      -9.860  10.139  65.385  1.00  0.00    -0.309 SA 
HETATM    3  CG  UNL     1     -10.541  11.366  64.236  1.00  0.00    -0.355 C  
HETATM    4  CB  UNL     1     -10.801  12.690  64.890  1.00  0.00    -0.329 C  
HETATM    5  CA  UNL     1     -10.259  13.148  66.038  1.00  0.00    -0.286 C  
HETATM    6  N   UNL     1      -9.317  12.402  66.677  1.00  0.00    -0.223 N  
HETATM    7  C   UNL     1     -10.798  14.453  66.547  1.00  0.00    -0.310 C  
HETATM    8  C   UNL     1      -8.714  12.339  67.878  1.00  0.00    -0.177 C  
HETATM    9  OXT UNL     1     -11.660  15.090  65.952  1.00  0.00    -0.291 OA 
HETATM   10  O   UNL     1     -10.264  14.928  67.689  1.00  0.00    -0.234 OA 
HETATM   11  CA  UNL     1      -8.064  10.950  67.504  1.00  0.00    -0.116 C  
HETATM   12  O   UNL     1      -8.809  13.085  68.826  1.00  0.00     0.000 OA 
ENDROOT
BRANCH  11  13
HETATM   13  N   UNL     1      -8.627   9.791  68.248  1.00  0.00    -0.118 N  
HETATM   14  H   UNL     1      -9.288   9.187  67.762  1.00  0.00     0.000 HD 
HETATM   15  C   UNL     1      -8.314   9.484  69.549  1.00  0.00    -0.145 C  
HETATM   16  O   UNL     1      -7.615  10.230  70.235  1.00  0.00    -0.201 OA 
BRANCH  15  17
HETATM   17  C   UNL     1      -8.808   8.137  70.066  1.00  0.00    -0.139 C  
HETATM   18  C   UNL     1      -9.699   8.096  71.087  1.00  0.00    -0.200 C  
BRANCH  17  19
HETATM   19  C   UNL     1      -8.322   6.920  69.448  1.00  0.00    -0.132 A  
HETATM   20  C   UNL     1      -7.515   5.975  70.053  1.00  0.00    -0.083 A  
HETATM   21  H2  UNL     1      -8.078   3.962  66.404  1.00  0.00     0.000 HD 
HETATM   22  S   UNL     1      -7.242   4.668  68.975  1.00  0.00    -0.053 SA 
HETATM   23  H1  UNL     1      -9.062   5.336  65.917  1.00  0.00     0.000 HD 
HETATM   24  N   UNL     1      -8.707   6.607  68.153  1.00  0.00    -0.118 NA 
HETATM   25  N   UNL     1      -8.478   4.876  66.615  1.00  0.00    -0.107 NA 
HETATM   26  C   UNL     1      -8.223   5.441  67.802  1.00  0.00    -0.100 A  
ENDBRANCH  17  19
BRANCH  18  27
HETATM   27  C   UNL     1     -10.458   9.189  71.796  1.00  0.00    -0.361 C  
HETATM   28  O   UNL     1     -11.874  10.637  70.471  1.00  0.00    -0.301 OA 
HETATM   29  C   UNL     1     -11.762   9.627  71.153  1.00  0.00    -0.372 C  
HETATM   30  O   UNL     1     -12.810   8.819  71.415  1.00  0.00    -0.322 OA 
ENDBRANCH  18  27
ENDBRANCH  15  17
ENDBRANCH  11  13
TORSDOF 4
ENDMDL
MODEL      130
REMARK 921   NORMALIZED FREE ENERGY PREDICTED BY IDOCK:   -4.94 KCAL/MOL
REMARK 922        TOTAL FREE ENERGY PREDICTED BY IDOCK:   -6.65 KCAL/MOL
REMARK 923 INTER-LIGAND FREE ENERGY PREDICTED BY IDOCK:   -5.43 KCAL/MOL
REMARK 924 INTRA-LIGAND FREE ENERGY PREDICTED BY IDOCK:   -1.22 KCAL/MOL
REMARK 927      BINDING AFFINITY PREDICTED BY RF-SCORE:    0.00 PKD
ROOT
HETATM    1  CE  UNL     1     -10.728  14.354  67.487  1.00  0.00    -0.271 C  
HETATM    2  SD  UNL     1     -11.418  13.889  69.095  1.00  0.00    -0.318 SA 
HETATM    3  CG  UNL     1     -12.154  15.518  69.405  1.00  0.00    -0.277 C  
HETATM    4  CB  UNL     1     -11.205  16.645  69.124  1.00  0.00    -0.148 C  
HETATM    5  CA  UNL     1     -10.098  16.599  68.353  1.00  0.00    -0.268 C  
HETATM    6  N   UNL     1      -9.799  15.456  67.678  1.00  0.00    -0.220 N  
HETATM    7  C   UNL     1      -9.245  17.834  68.352  1.00  0.00    -0.285 C  
HETATM    8  C   UNL     1      -8.759  14.902  67.029  1.00  0.00    -0.238 C  
HETATM    9  OXT UNL     1      -9.538  18.841  68.987  1.00  0.00    -0.326 OA 
HETATM   10  O   UNL     1      -8.139  17.809  67.584  1.00  0.00    -0.217 OA 
HETATM   11  CA  UNL     1      -9.518  13.521  66.944  1.00  0.00    -0.258 C  
HETATM   12  O   UNL     1      -7.675  15.374  66.769  1.00  0.00    -0.177 OA 
ENDROOT
BRANCH  11  13
HETATM   13  N   UNL     1      -8.944  12.454  67.807  1.00  0.00    -0.174 N  
HETATM   14  H   UNL     1      -8.928  12.611  68.814  1.00  0.00     0.000 HD 
HETATM   15  C   UNL     1      -8.435  11.270  67.334  1.00  0.00    -0.137 C  
HETATM   16  O   UNL     1      -8.316  11.058  66.127  1.00  0.00    -0.166 OA 
BRANCH  15  17
HETATM   17  C   UNL     1      -8.104  10.209  68.377  1.00  0.00    -0.104 C  
HETATM   18  C   UNL     1      -6.928  10.271  69.049  1.00  0.00    -0.064 C  
BRANCH  17  19
HETATM   19  C   UNL     1      -9.060   9.152  68.640  1.00  0.00    -0.136 A  
HETATM   20  C   UNL     1      -9.303   8.063  67.825  1.00  0.00    -0.137 A  
HETATM   21  H2  UNL     1     -11.874   6.978  70.970  1.00  0.00     0.000 HD 
HETATM   22  S   UNL     1     -10.463   7.034  68.559  1.00  0.00    -0.198 SA 
HETATM   23  H1  UNL     1     -11.363   8.463  71.762  1.00  0.00     0.000 HD 
HETATM   24  N   UNL     1      -9.789   9.164  69.820  1.00  0.00    -0.173 NA 
HETATM   25  N   UNL     1     -11.316   7.832  70.963  1.00  0.00    -0.268 NA 
HETATM   26  C   UNL     1     -10.541   8.095  69.903  1.00  0.00    -0.239 A  
ENDBRANCH  17  19
BRANCH  18  27
HETATM   27  C   UNL     1      -5.846  11.320  69.074  1.00  0.00    -0.041 C  
HETATM   28  O   UNL     1      -6.493  13.618  69.469  1.00  0.00    -0.112 OA 
HETATM   29  C   UNL     1      -6.117  12.547  69.927  1.00  0.00    -0.130 C  
HETATM   30  O   UNL     1      -5.884  12.371  71.244  1.00  0.00    -0.349 OA 
ENDBRANCH  18  27
ENDBRANCH  15  17
ENDBRANCH  11  13
TORSDOF 4
ENDMDL
MODEL      131
REMARK 921   NORMALIZED FREE ENERGY PREDICTED BY IDOCK:   -4.94 KCAL/MOL
REMARK 922        TOTAL FREE ENERGY PREDICTED BY IDOCK:   -6.65 KCAL/MOL
REMARK 923 INTER-LIGAND FREE ENERGY PREDICTED BY IDOCK:   -5.47 KCAL/MOL
REMARK 924 INTRA-LIGAND FREE ENERGY PREDICTED BY IDOCK:   -1.18 KCAL/MOL
REMARK 927      BINDING AFFINITY PREDICTED BY RF-SCORE:    0.00 PKD
ROOT
HETATM    1  CE  UNL     1      -8.819  11.146  65.647  1.00  0.00    -0.157 C  
HETATM    2  SD  UNL     1      -8.660   9.997  64.256  1.00  0.00    -0.205 SA 
HETATM    3  CG  UNL     1      -9.116  11.230  63.006  1.00  0.00    -0.236 C  
HETATM    4  CB  UNL     1     -10.333  12.019  63.388  1.00  0.00    -0.468 C  
HETATM    5  CA  UNL     1     -10.843  12.173  64.628  1.00  0.00    -0.306 C  
HETATM    6  N   UNL     1     -10.187  11.637  65.693  1.00  0.00    -0.233 N  
HETATM    7  C   UNL     1     -12.154  12.899  64.715  1.00  0.00    -0.422 C  
HETATM    8  C   UNL     1     -10.416  11.349  66.986  1.00  0.00    -0.236 C  
HETATM    9  OXT UNL     1     -12.725  13.355  63.730  1.00  0.00    -0.685 OA 
HETATM   10  O   UNL     1     -12.676  13.068  65.945  1.00  0.00    -0.439 OA 
HETATM   11  CA  UNL     1      -9.063  10.540  67.070  1.00  0.00    -0.143 C  
HETATM   12  O   UNL     1     -11.385  11.594  67.670  1.00  0.00    -0.260 OA 
ENDROOT
BRANCH  11  13
HETATM   13  N   UNL     1      -9.238   9.068  67.196  1.00  0.00    -0.132 N  
HETATM   14  H   UNL     1     -10.163   8.680  67.015  1.00  0.00     0.000 HD 
HETATM   15  C   UNL     1      -8.233   8.198  67.540  1.00  0.00    -0.123 C  
HETATM   16  O   UNL     1      -7.123   8.604  67.884  1.00  0.00    -0.080 OA 
BRANCH  15  17
HETATM   17  C   UNL     1      -8.542   6.713  67.396  1.00  0.00    -0.119 C  
HETATM   18  C   UNL     1      -8.202   6.064  66.254  1.00  0.00    -0.118 C  
BRANCH  17  19
HETATM   19  C   UNL     1      -9.190   6.015  68.488  1.00  0.00    -0.114 A  
HETATM   20  C   UNL     1      -9.009   4.684  68.816  1.00  0.00    -0.108 A  
HETATM   21  H2  UNL     1     -11.563   5.691  72.000  1.00  0.00     0.000 HD 
HETATM   22  S   UNL     1      -9.920   4.302  70.218  1.00  0.00    -0.030 SA 
HETATM   23  H1  UNL     1     -11.597   7.314  71.323  1.00  0.00     0.000 HD 
HETATM   24  N   UNL     1     -10.041   6.707  69.336  1.00  0.00    -0.169 NA 
HETATM   25  N   UNL     1     -11.271   6.349  71.278  1.00  0.00    -0.280 NA 
HETATM   26  C   UNL     1     -10.469   5.924  70.295  1.00  0.00    -0.261 A  
ENDBRANCH  17  19
BRANCH  18  27
HETATM   27  C   UNL     1      -7.409   6.507  65.051  1.00  0.00    -0.078 C  
HETATM   28  O   UNL     1      -5.218   7.468  65.420  1.00  0.00    -0.028 OA 
HETATM   29  C   UNL     1      -5.897   6.475  65.193  1.00  0.00    -0.026 C  
HETATM   30  O   UNL     1      -5.349   5.255  65.022  1.00  0.00    -0.012 OA 
ENDBRANCH  18  27
ENDBRANCH  15  17
ENDBRANCH  11  13
TORSDOF 4
ENDMDL
MODEL      132
REMARK 921   NORMALIZED FREE ENERGY PREDICTED BY IDOCK:   -4.88 KCAL/MOL
REMARK 922        TOTAL FREE ENERGY PREDICTED BY IDOCK:   -6.58 KCAL/MOL
REMARK 923 INTER-LIGAND FREE ENERGY PREDICTED BY IDOCK:   -6.73 KCAL/MOL
REMARK 924 INTRA-LIGAND FREE ENERGY PREDICTED BY IDOCK:    0.15 KCAL/MOL
REMARK 927      BINDING AFFINITY PREDICTED BY RF-SCORE:    0.00 PKD
ROOT
HETATM    1  CE  UNL     1     -12.131  14.395  68.130  1.00  0.00    -0.223 C  
HETATM    2  SD  UNL     1     -12.115  14.089  69.915  1.00  0.00    -0.353 SA 
HETATM    3  CG  UNL     1     -11.712  15.805  70.345  1.00  0.00    -0.370 C  
HETATM    4  CB  UNL     1     -10.593  16.362  69.517  1.00  0.00    -0.320 C  
HETATM    5  CA  UNL     1     -10.162  15.903  68.323  1.00  0.00    -0.227 C  
HETATM    6  N   UNL     1     -10.818  14.871  67.726  1.00  0.00    -0.279 N  
HETATM    7  C   UNL     1      -8.930  16.559  67.772  1.00  0.00    -0.202 C  
HETATM    8  C   UNL     1     -10.628  13.987  66.730  1.00  0.00    -0.277 C  
HETATM    9  OXT UNL     1      -8.354  17.476  68.347  1.00  0.00    -0.261 OA 
HETATM   10  O   UNL     1      -8.487  16.117  66.578  1.00  0.00    -0.251 OA 
HETATM   11  CA  UNL     1     -11.904  13.173  67.179  1.00  0.00    -0.369 C  
HETATM   12  O   UNL     1      -9.721  13.911  65.932  1.00  0.00    -0.280 OA 
ENDROOT
BRANCH  11  13
HETATM   13  N   UNL     1     -11.601  11.847  67.782  1.00  0.00    -0.327 N  
HETATM   14  H   UNL     1     -12.352  11.159  67.822  1.00  0.00     0.000 HD 
HETATM   15  C   UNL     1     -10.376  11.491  68.288  1.00  0.00    -0.197 C  
HETATM   16  O   UNL     1      -9.457  12.305  68.378  1.00  0.00    -0.211 OA 
BRANCH  15  17
HETATM   17  C   UNL     1     -10.194  10.022  68.653  1.00  0.00    -0.198 C  
HETATM   18  C   UNL     1      -9.473   9.213  67.838  1.00  0.00    -0.158 C  
BRANCH  17  19
HETATM   19  C   UNL     1     -10.790   9.516  69.873  1.00  0.00    -0.246 A  
HETATM   20  C   UNL     1     -10.262   8.524  70.678  1.00  0.00    -0.197 A  
HETATM   21  H2  UNL     1     -13.591   9.460  73.070  1.00  0.00     0.000 HD 
HETATM   22  S   UNL     1     -11.266   8.294  72.050  1.00  0.00    -0.350 SA 
HETATM   23  H1  UNL     1     -14.006  10.652  71.845  1.00  0.00     0.000 HD 
HETATM   24  N   UNL     1     -11.970  10.073  70.341  1.00  0.00    -0.258 NA 
HETATM   25  N   UNL     1     -13.386   9.916  72.181  1.00  0.00    -0.442 NA 
HETATM   26  C   UNL     1     -12.308   9.532  71.485  1.00  0.00    -0.380 A  
ENDBRANCH  17  19
BRANCH  18  27
HETATM   27  C   UNL     1      -8.644   9.509  66.614  1.00  0.00    -0.141 C  
HETATM   28  O   UNL     1      -6.454  10.491  66.929  1.00  0.00    -0.071 OA 
HETATM   29  C   UNL     1      -7.137   9.483  66.800  1.00  0.00    -0.086 C  
HETATM   30  O   UNL     1      -6.596   8.247  66.786  1.00  0.00    -0.055 OA 
ENDBRANCH  18  27
ENDBRANCH  15  17
ENDBRANCH  11  13
TORSDOF 4
ENDMDL
MODEL      133
REMARK 921   NORMALIZED FREE ENERGY PREDICTED BY IDOCK:   -4.87 KCAL/MOL
REMARK 922        TOTAL FREE ENERGY PREDICTED BY IDOCK:   -6.57 KCAL/MOL
REMARK 923 INTER-LIGAND FREE ENERGY PREDICTED BY IDOCK:   -6.44 KCAL/MOL
REMARK 924 INTRA-LIGAND FREE ENERGY PREDICTED BY IDOCK:   -0.12 KCAL/MOL
REMARK 927      BINDING AFFINITY PREDICTED BY RF-SCORE:    0.00 PKD
ROOT
HETATM    1  CE  UNL     1      -8.247  11.116  66.336  1.00  0.00    -0.164 C  
HETATM    2  SD  UNL     1      -7.042  12.058  67.306  1.00  0.00    -0.139 SA 
HETATM    3  CG  UNL     1      -5.731  10.814  67.142  1.00  0.00    -0.046 C  
HETATM    4  CB  UNL     1      -6.217   9.422  67.416  1.00  0.00    -0.061 C  
HETATM    5  CA  UNL     1      -7.494   8.988  67.380  1.00  0.00    -0.085 C  
HETATM    6  N   UNL     1      -8.482   9.841  66.994  1.00  0.00    -0.117 N  
HETATM    7  C   UNL     1      -7.723   7.575  67.834  1.00  0.00    -0.116 C  
HETATM    8  C   UNL     1      -9.823   9.925  67.030  1.00  0.00    -0.191 C  
HETATM    9  OXT UNL     1      -6.809   6.839  68.192  1.00  0.00    -0.071 OA 
HETATM   10  O   UNL     1      -8.990   7.122  67.801  1.00  0.00    -0.123 OA 
HETATM   11  CA  UNL     1      -9.765  11.429  66.557  1.00  0.00    -0.200 C  
HETATM   12  O   UNL     1     -10.636   9.108  67.403  1.00  0.00    -0.272 OA 
ENDROOT
BRANCH  11  13
HETATM   13  N   UNL     1     -10.144  12.414  67.605  1.00  0.00    -0.196 N  
HETATM   14  H   UNL     1      -9.417  12.736  68.244  1.00  0.00     0.000 HD 
HETATM   15  C   UNL     1     -11.410  12.919  67.769  1.00  0.00    -0.299 C  
HETATM   16  O   UNL     1     -12.361  12.493  67.113  1.00  0.00    -0.376 OA 
BRANCH  15  17
HETATM   17  C   UNL     1     -11.556  14.083  68.742  1.00  0.00    -0.366 C  
HETATM   18  C   UNL     1     -12.090  13.868  69.971  1.00  0.00    -0.411 C  
BRANCH  17  19
HETATM   19  C   UNL     1     -11.113  15.402  68.340  1.00  0.00    -0.301 A  
HETATM   20  C   UNL     1     -10.862  16.464  69.188  1.00  0.00    -0.329 A  
HETATM   21  H2  UNL     1      -9.687  18.333  65.610  1.00  0.00     0.000 HD 
HETATM   22  S   UNL     1     -10.294  17.808  68.286  1.00  0.00    -0.375 SA 
HETATM   23  H1  UNL     1     -10.108  16.827  64.806  1.00  0.00     0.000 HD 
HETATM   24  N   UNL     1     -10.862  15.662  67.001  1.00  0.00    -0.315 NA 
HETATM   25  N   UNL     1     -10.042  17.378  65.661  1.00  0.00    -0.586 NA 
HETATM   26  C   UNL     1     -10.407  16.881  66.849  1.00  0.00    -0.304 A  
ENDBRANCH  17  19
BRANCH  18  27
HETATM   27  C   UNL     1     -12.487  12.599  70.680  1.00  0.00    -0.323 C  
HETATM   28  O   UNL     1     -12.874  10.619  69.344  1.00  0.00    -0.144 OA 
HETATM   29  C   UNL     1     -12.097  11.299  70.000  1.00  0.00    -0.348 C  
HETATM   30  O   UNL     1     -10.814  10.930  70.200  1.00  0.00    -0.186 OA 
ENDBRANCH  18  27
ENDBRANCH  15  17
ENDBRANCH  11  13
TORSDOF 4
ENDMDL
MODEL      134
REMARK 921   NORMALIZED FREE ENERGY PREDICTED BY IDOCK:   -4.85 KCAL/MOL
REMARK 922        TOTAL FREE ENERGY PREDICTED BY IDOCK:   -6.54 KCAL/MOL
REMARK 923 INTER-LIGAND FREE ENERGY PREDICTED BY IDOCK:   -5.28 KCAL/MOL
REMARK 924 INTRA-LIGAND FREE ENERGY PREDICTED BY IDOCK:   -1.26 KCAL/MOL
REMARK 927      BINDING AFFINITY PREDICTED BY RF-SCORE:    0.00 PKD
ROOT
HETATM    1  CE  UNL     1      -8.568   7.185  70.325  1.00  0.00    -0.143 C  
HETATM    2  SD  UNL     1      -7.482   8.257  71.300  1.00  0.00    -0.089 SA 
HETATM    3  CG  UNL     1      -7.136   6.996  72.557  1.00  0.00    -0.069 C  
HETATM    4  CB  UNL     1      -8.375   6.297  73.032  1.00  0.00    -0.117 C  
HETATM    5  CA  UNL     1      -9.563   6.230  72.395  1.00  0.00    -0.150 C  
HETATM    6  N   UNL     1      -9.690   6.777  71.155  1.00  0.00    -0.174 N  
HETATM    7  C   UNL     1     -10.684   5.586  73.158  1.00  0.00    -0.268 C  
HETATM    8  C   UNL     1     -10.662   7.138  70.299  1.00  0.00    -0.238 C  
HETATM    9  OXT UNL     1     -10.537   5.119  74.282  1.00  0.00    -0.284 OA 
HETATM   10  O   UNL     1     -11.876   5.505  72.536  1.00  0.00    -0.252 OA 
HETATM   11  CA  UNL     1      -9.610   7.870  69.378  1.00  0.00    -0.160 C  
HETATM   12  O   UNL     1     -11.859   6.981  70.384  1.00  0.00    -0.306 OA 
ENDROOT
BRANCH  11  13
HETATM   13  N   UNL     1      -9.715   9.354  69.389  1.00  0.00    -0.169 N  
HETATM   14  H   UNL     1      -9.238   9.860  70.134  1.00  0.00     0.000 HD 
HETATM   15  C   UNL     1     -10.415  10.085  68.462  1.00  0.00    -0.202 C  
HETATM   16  O   UNL     1     -11.108   9.539  67.604  1.00  0.00    -0.183 OA 
BRANCH  15  17
HETATM   17  C   UNL     1     -10.220  11.596  68.502  1.00  0.00    -0.216 C  
HETATM   18  C   UNL     1      -9.218  12.163  67.785  1.00  0.00    -0.189 C  
BRANCH  17  19
HETATM   19  C   UNL     1     -11.116  12.405  69.304  1.00  0.00    -0.147 A  
HETATM   20  C   UNL     1     -11.957  11.936  70.296  1.00  0.00    -0.330 A  
HETATM   21  H2  UNL     1     -12.782  16.032  70.767  1.00  0.00     0.000 HD 
HETATM   22  S   UNL     1     -12.784  13.250  71.026  1.00  0.00    -0.233 SA 
HETATM   23  H1  UNL     1     -11.644  16.306  69.455  1.00  0.00     0.000 HD 
HETATM   24  N   UNL     1     -11.139  13.780  69.130  1.00  0.00    -0.254 NA 
HETATM   25  N   UNL     1     -12.136  15.660  70.071  1.00  0.00    -0.370 NA 
HETATM   26  C   UNL     1     -11.956  14.336  69.990  1.00  0.00    -0.334 A  
ENDBRANCH  17  19
BRANCH  18  27
HETATM   27  C   UNL     1      -8.257  11.584  66.778  1.00  0.00    -0.164 C  
HETATM   28  O   UNL     1      -5.900  11.579  67.324  1.00  0.00    -0.068 OA 
HETATM   29  C   UNL     1      -6.975  10.993  67.336  1.00  0.00    -0.086 C  
HETATM   30  O   UNL     1      -7.106   9.745  67.830  1.00  0.00    -0.081 OA 
ENDBRANCH  18  27
ENDBRANCH  15  17
ENDBRANCH  11  13
TORSDOF 4
ENDMDL
MODEL      135
REMARK 921   NORMALIZED FREE ENERGY PREDICTED BY IDOCK:   -4.85 KCAL/MOL
REMARK 922        TOTAL FREE ENERGY PREDICTED BY IDOCK:   -6.53 KCAL/MOL
REMARK 923 INTER-LIGAND FREE ENERGY PREDICTED BY IDOCK:   -5.48 KCAL/MOL
REMARK 924 INTRA-LIGAND FREE ENERGY PREDICTED BY IDOCK:   -1.05 KCAL/MOL
REMARK 927      BINDING AFFINITY PREDICTED BY RF-SCORE:    0.00 PKD
ROOT
HETATM    1  CE  UNL     1      -8.842   9.848  67.656  1.00  0.00    -0.125 C  
HETATM    2  SD  UNL     1     -10.652   9.786  67.658  1.00  0.00    -0.273 SA 
HETATM    3  CG  UNL     1     -10.841  11.251  66.604  1.00  0.00    -0.273 C  
HETATM    4  CB  UNL     1      -9.978  12.396  67.044  1.00  0.00    -0.218 C  
HETATM    5  CA  UNL     1      -8.879  12.330  67.824  1.00  0.00    -0.174 C  
HETATM    6  N   UNL     1      -8.416  11.115  68.229  1.00  0.00    -0.138 N  
HETATM    7  C   UNL     1      -8.280  13.645  68.231  1.00  0.00    -0.156 C  
HETATM    8  C   UNL     1      -7.567  10.603  69.136  1.00  0.00    -0.131 C  
HETATM    9  OXT UNL     1      -8.735  14.722  67.860  1.00  0.00    -0.158 OA 
HETATM   10  O   UNL     1      -7.179  13.599  69.005  1.00  0.00    -0.107 OA 
HETATM   11  CA  UNL     1      -8.086   9.144  68.832  1.00  0.00    -0.100 C  
HETATM   12  O   UNL     1      -6.819  11.174  69.898  1.00  0.00    -0.137 OA 
ENDROOT
BRANCH  11  13
HETATM   13  N   UNL     1      -8.885   8.538  69.931  1.00  0.00    -0.135 N  
HETATM   14  H   UNL     1      -9.017   9.084  70.782  1.00  0.00     0.000 HD 
HETATM   15  C   UNL     1      -9.457   7.292  69.872  1.00  0.00    -0.157 C  
HETATM   16  O   UNL     1      -9.246   6.532  68.927  1.00  0.00    -0.130 OA 
BRANCH  15  17
HETATM   17  C   UNL     1     -10.426   6.937  70.994  1.00  0.00    -0.235 C  
HETATM   18  C   UNL     1     -10.182   5.854  71.774  1.00  0.00    -0.248 C  
BRANCH  17  19
HETATM   19  C   UNL     1     -11.590   7.770  71.215  1.00  0.00    -0.277 A  
HETATM   20  C   UNL     1     -12.837   7.326  71.612  1.00  0.00    -0.375 A  
HETATM   21  H2  UNL     1     -13.690  11.443  71.629  1.00  0.00     0.000 HD 
HETATM   22  S   UNL     1     -13.893   8.663  71.815  1.00  0.00    -0.427 SA 
HETATM   23  H1  UNL     1     -12.026  11.685  71.113  1.00  0.00     0.000 HD 
HETATM   24  N   UNL     1     -11.486   9.146  71.072  1.00  0.00    -0.286 NA 
HETATM   25  N   UNL     1     -12.784  11.053  71.371  1.00  0.00    -0.423 NA 
HETATM   26  C   UNL     1     -12.620   9.725  71.381  1.00  0.00    -0.386 A  
ENDBRANCH  17  19
BRANCH  18  27
HETATM   27  C   UNL     1      -8.998   4.924  71.851  1.00  0.00    -0.152 C  
HETATM   28  O   UNL     1      -6.789   5.862  71.548  1.00  0.00    -0.063 OA 
HETATM   29  C   UNL     1      -7.689   5.539  72.311  1.00  0.00    -0.102 C  
HETATM   30  O   UNL     1      -7.581   5.681  73.648  1.00  0.00    -0.093 OA 
ENDBRANCH  18  27
ENDBRANCH  15  17
ENDBRANCH  11  13
TORSDOF 4
ENDMDL
MODEL      136
REMARK 921   NORMALIZED FREE ENERGY PREDICTED BY IDOCK:   -4.82 KCAL/MOL
REMARK 922        TOTAL FREE ENERGY PREDICTED BY IDOCK:   -6.50 KCAL/MOL
REMARK 923 INTER-LIGAND FREE ENERGY PREDICTED BY IDOCK:   -5.86 KCAL/MOL
REMARK 924 INTRA-LIGAND FREE ENERGY PREDICTED BY IDOCK:   -0.63 KCAL/MOL
REMARK 927      BINDING AFFINITY PREDICTED BY RF-SCORE:    0.00 PKD
ROOT
HETATM    1  CE  UNL     1     -11.155   6.877  69.666  1.00  0.00    -0.258 C  
HETATM    2  SD  UNL     1      -9.704   6.225  68.799  1.00  0.00    -0.131 SA 
HETATM    3  CG  UNL     1      -9.614   4.714  69.799  1.00  0.00    -0.188 C  
HETATM    4  CB  UNL     1      -9.739   4.984  71.269  1.00  0.00    -0.235 C  
HETATM    5  CA  UNL     1     -10.265   6.083  71.849  1.00  0.00    -0.200 C  
HETATM    6  N   UNL     1     -10.820   7.051  71.071  1.00  0.00    -0.233 N  
HETATM    7  C   UNL     1     -10.140   6.162  73.343  1.00  0.00    -0.198 C  
HETATM    8  C   UNL     1     -11.221   8.330  71.173  1.00  0.00    -0.258 C  
HETATM    9  OXT UNL     1      -9.617   5.277  74.011  1.00  0.00    -0.132 OA 
HETATM   10  O   UNL     1     -10.664   7.249  73.941  1.00  0.00    -0.318 OA 
HETATM   11  CA  UNL     1     -11.407   8.421  69.608  1.00  0.00     0.223 C  
HETATM   12  O   UNL     1     -11.273   9.045  72.148  1.00  0.00    -0.351 OA 
ENDROOT
BRANCH  11  13
HETATM   13  N   UNL     1     -10.404   9.281  68.923  1.00  0.00    -0.210 N  
HETATM   14  H   UNL     1      -9.433   8.969  68.916  1.00  0.00     0.000 HD 
HETATM   15  C   UNL     1     -10.702  10.466  68.298  1.00  0.00    -0.235 C  
HETATM   16  O   UNL     1     -11.828  10.961  68.364  1.00  0.00    -0.498 OA 
BRANCH  15  17
HETATM   17  C   UNL     1      -9.593  11.088  67.458  1.00  0.00    -0.178 C  
HETATM   18  C   UNL     1      -9.761  11.224  66.119  1.00  0.00    -0.251 C  
BRANCH  17  19
HETATM   19  C   UNL     1      -8.377  11.533  68.108  1.00  0.00    -0.152 A  
HETATM   20  C   UNL     1      -7.387  10.714  68.615  1.00  0.00    -0.094 A  
HETATM   21  H2  UNL     1      -5.499  14.392  69.381  1.00  0.00     0.000 HD 
HETATM   22  S   UNL     1      -6.102  11.668  69.233  1.00  0.00    -0.088 SA 
HETATM   23  H1  UNL     1      -6.921  15.150  68.676  1.00  0.00     0.000 HD 
HETATM   24  N   UNL     1      -8.115  12.891  68.217  1.00  0.00    -0.149 NA 
HETATM   25  N   UNL     1      -6.421  14.306  68.952  1.00  0.00    -0.087 NA 
HETATM   26  C   UNL     1      -6.942  13.087  68.768  1.00  0.00    -0.103 A  
ENDBRANCH  17  19
BRANCH  18  27
HETATM   27  C   UNL     1     -10.956  10.984  65.232  1.00  0.00    -0.097 C  
HETATM   28  O   UNL     1     -12.717  12.644  65.217  1.00  0.00    -0.652 OA 
HETATM   29  C   UNL     1     -11.678  12.221  64.728  1.00  0.00    -0.358 C  
HETATM   30  O   UNL     1     -11.092  12.812  63.666  1.00  0.00    -0.432 OA 
ENDBRANCH  18  27
ENDBRANCH  15  17
ENDBRANCH  11  13
TORSDOF 4
ENDMDL
MODEL      137
REMARK 921   NORMALIZED FREE ENERGY PREDICTED BY IDOCK:   -4.80 KCAL/MOL
REMARK 922        TOTAL FREE ENERGY PREDICTED BY IDOCK:   -6.48 KCAL/MOL
REMARK 923 INTER-LIGAND FREE ENERGY PREDICTED BY IDOCK:   -5.93 KCAL/MOL
REMARK 924 INTRA-LIGAND FREE ENERGY PREDICTED BY IDOCK:   -0.55 KCAL/MOL
REMARK 927      BINDING AFFINITY PREDICTED BY RF-SCORE:    0.00 PKD
ROOT
HETATM    1  CE  UNL     1     -10.224   5.884  69.043  1.00  0.00    -0.203 C  
HETATM    2  SD  UNL     1      -8.474   6.348  69.024  1.00  0.00    -0.124 SA 
HETATM    3  CG  UNL     1      -7.930   4.868  69.922  1.00  0.00    -0.069 C  
HETATM    4  CB  UNL     1      -8.773   4.582  71.129  1.00  0.00    -0.141 C  
HETATM    5  CA  UNL     1     -10.022   5.031  71.371  1.00  0.00    -0.193 C  
HETATM    6  N   UNL     1     -10.663   5.771  70.424  1.00  0.00    -0.295 N  
HETATM    7  C   UNL     1     -10.587   4.710  72.724  1.00  0.00    -0.208 C  
HETATM    8  C   UNL     1     -11.735   6.574  70.318  1.00  0.00    -0.366 C  
HETATM    9  OXT UNL     1      -9.973   4.055  73.559  1.00  0.00    -0.119 OA 
HETATM   10  O   UNL     1     -11.835   5.146  72.982  1.00  0.00    -0.273 OA 
HETATM   11  CA  UNL     1     -11.283   7.025  68.875  1.00  0.00     0.031 C  
HETATM   12  O   UNL     1     -12.587   6.833  71.138  1.00  0.00    -0.353 OA 
ENDROOT
BRANCH  11  13
HETATM   13  N   UNL     1     -10.807   8.432  68.796  1.00  0.00    -0.432 N  
HETATM   14  H   UNL     1     -10.841   8.996  69.644  1.00  0.00     0.000 HD 
HETATM   15  C   UNL     1     -10.324   9.021  67.654  1.00  0.00    -0.257 C  
HETATM   16  O   UNL     1     -10.359   8.440  66.568  1.00  0.00    -0.285 OA 
BRANCH  15  17
HETATM   17  C   UNL     1      -9.672  10.389  67.818  1.00  0.00    -0.181 C  
HETATM   18  C   UNL     1      -8.551  10.512  68.572  1.00  0.00    -0.135 C  
BRANCH  17  19
HETATM   19  C   UNL     1     -10.259  11.537  67.157  1.00  0.00    -0.204 A  
HETATM   20  C   UNL     1     -11.610  11.755  66.967  1.00  0.00    -0.244 A  
HETATM   21  H2  UNL     1     -10.235  15.385  65.350  1.00  0.00     0.000 HD 
HETATM   22  S   UNL     1     -11.852  13.271  66.202  1.00  0.00    -0.410 SA 
HETATM   23  H1  UNL     1      -8.612  14.814  65.716  1.00  0.00     0.000 HD 
HETATM   24  N   UNL     1      -9.439  12.556  66.697  1.00  0.00    -0.237 NA 
HETATM   25  N   UNL     1      -9.620  14.660  65.719  1.00  0.00    -0.281 NA 
HETATM   26  C   UNL     1     -10.158  13.530  66.196  1.00  0.00    -0.304 A  
ENDBRANCH  17  19
BRANCH  18  27
HETATM   27  C   UNL     1      -7.673   9.481  69.233  1.00  0.00    -0.086 C  
HETATM   28  O   UNL     1      -6.678  10.031  71.369  1.00  0.00    -0.302 OA 
HETATM   29  C   UNL     1      -7.605   9.528  70.749  1.00  0.00    -0.071 C  
HETATM   30  O   UNL     1      -8.649   8.941  71.371  1.00  0.00    -0.188 OA 
ENDBRANCH  18  27
ENDBRANCH  15  17
ENDBRANCH  11  13
TORSDOF 4
ENDMDL
MODEL      138
REMARK 921   NORMALIZED FREE ENERGY PREDICTED BY IDOCK:   -4.80 KCAL/MOL
REMARK 922        TOTAL FREE ENERGY PREDICTED BY IDOCK:   -6.48 KCAL/MOL
REMARK 923 INTER-LIGAND FREE ENERGY PREDICTED BY IDOCK:   -5.45 KCAL/MOL
REMARK 924 INTRA-LIGAND FREE ENERGY PREDICTED BY IDOCK:   -1.03 KCAL/MOL
REMARK 927      BINDING AFFINITY PREDICTED BY RF-SCORE:    0.00 PKD
ROOT
HETATM    1  CE  UNL     1      -8.627  10.891  65.562  1.00  0.00    -0.145 C  
HETATM    2  SD  UNL     1      -9.372   9.728  64.390  1.00  0.00    -0.137 SA 
HETATM    3  CG  UNL     1      -9.896  11.020  63.229  1.00  0.00    -0.368 C  
HETATM    4  CB  UNL     1     -10.575  12.170  63.912  1.00  0.00    -0.457 C  
HETATM    5  CA  UNL     1     -10.488  12.505  65.216  1.00  0.00    -0.287 C  
HETATM    6  N   UNL     1      -9.657  11.803  66.034  1.00  0.00    -0.227 N  
HETATM    7  C   UNL     1     -11.382  13.622  65.671  1.00  0.00    -0.299 C  
HETATM    8  C   UNL     1      -9.434  11.629  67.348  1.00  0.00    -0.167 C  
HETATM    9  OXT UNL     1     -12.131  14.222  64.907  1.00  0.00    -0.395 OA 
HETATM   10  O   UNL     1     -11.305  13.974  66.968  1.00  0.00    -0.306 OA 
HETATM   11  CA  UNL     1      -8.461  10.423  67.047  1.00  0.00    -0.127 C  
HETATM   12  O   UNL     1      -9.938  12.190  68.295  1.00  0.00    -0.203 OA 
ENDROOT
BRANCH  11  13
HETATM   13  N   UNL     1      -8.997   9.092  67.439  1.00  0.00    -0.118 N  
HETATM   14  H   UNL     1      -9.968   8.882  67.208  1.00  0.00     0.000 HD 
HETATM   15  C   UNL     1      -8.270   8.129  68.092  1.00  0.00    -0.129 C  
HETATM   16  O   UNL     1      -7.131   8.353  68.504  1.00  0.00    -0.073 OA 
BRANCH  15  17
HETATM   17  C   UNL     1      -8.913   6.752  68.204  1.00  0.00    -0.118 C  
HETATM   18  C   UNL     1      -9.523   6.388  69.360  1.00  0.00    -0.146 C  
BRANCH  17  19
HETATM   19  C   UNL     1      -8.870   5.855  67.067  1.00  0.00    -0.112 A  
HETATM   20  C   UNL     1      -9.942   5.149  66.555  1.00  0.00    -0.212 A  
HETATM   21  H2  UNL     1      -7.099   3.990  63.682  1.00  0.00     0.000 HD 
HETATM   22  S   UNL     1      -9.449   4.268  65.168  1.00  0.00    -0.181 SA 
HETATM   23  H1  UNL     1      -5.950   4.982  64.570  1.00  0.00     0.000 HD 
HETATM   24  N   UNL     1      -7.684   5.690  66.368  1.00  0.00    -0.098 NA 
HETATM   25  N   UNL     1      -6.892   4.606  64.468  1.00  0.00    -0.044 NA 
HETATM   26  C   UNL     1      -7.865   4.900  65.339  1.00  0.00    -0.091 A  
ENDBRANCH  17  19
BRANCH  18  27
HETATM   27  C   UNL     1      -9.830   7.163  70.615  1.00  0.00    -0.184 C  
HETATM   28  O   UNL     1     -11.120   9.201  70.409  1.00  0.00    -0.241 OA 
HETATM   29  C   UNL     1     -11.103   7.991  70.599  1.00  0.00    -0.262 C  
HETATM   30  O   UNL     1     -12.228   7.287  70.838  1.00  0.00    -0.320 OA 
ENDBRANCH  18  27
ENDBRANCH  15  17
ENDBRANCH  11  13
TORSDOF 4
ENDMDL
MODEL      139
REMARK 921   NORMALIZED FREE ENERGY PREDICTED BY IDOCK:   -4.78 KCAL/MOL
REMARK 922        TOTAL FREE ENERGY PREDICTED BY IDOCK:   -6.46 KCAL/MOL
REMARK 923 INTER-LIGAND FREE ENERGY PREDICTED BY IDOCK:   -5.47 KCAL/MOL
REMARK 924 INTRA-LIGAND FREE ENERGY PREDICTED BY IDOCK:   -0.99 KCAL/MOL
REMARK 927      BINDING AFFINITY PREDICTED BY RF-SCORE:    0.00 PKD
ROOT
HETATM    1  CE  UNL     1     -10.863   8.014  70.096  1.00  0.00    -0.242 C  
HETATM    2  SD  UNL     1     -10.325   7.743  68.387  1.00  0.00    -0.175 SA 
HETATM    3  CG  UNL     1     -10.225   5.939  68.559  1.00  0.00    -0.192 C  
HETATM    4  CB  UNL     1      -9.509   5.516  69.807  1.00  0.00    -0.195 C  
HETATM    5  CA  UNL     1      -9.303   6.258  70.915  1.00  0.00    -0.161 C  
HETATM    6  N   UNL     1      -9.838   7.507  70.994  1.00  0.00    -0.179 N  
HETATM    7  C   UNL     1      -8.431   5.639  71.970  1.00  0.00    -0.126 C  
HETATM    8  C   UNL     1      -9.713   8.620  71.737  1.00  0.00    -0.291 C  
HETATM    9  OXT UNL     1      -7.952   4.516  71.856  1.00  0.00    -0.093 OA 
HETATM   10  O   UNL     1      -8.219   6.363  73.085  1.00  0.00    -0.115 OA 
HETATM   11  CA  UNL     1     -10.614   9.426  70.723  1.00  0.00    -0.303 C  
HETATM   12  O   UNL     1      -9.045   8.812  72.729  1.00  0.00    -0.338 OA 
ENDROOT
BRANCH  11  13
HETATM   13  N   UNL     1      -9.877  10.441  69.923  1.00  0.00    -0.417 N  
HETATM   14  H   UNL     1      -8.862  10.470  70.008  1.00  0.00     0.000 HD 
HETATM   15  C   UNL     1     -10.476  11.342  69.078  1.00  0.00    -0.194 C  
HETATM   16  O   UNL     1     -11.702  11.443  69.012  1.00  0.00    -0.286 OA 
BRANCH  15  17
HETATM   17  C   UNL     1      -9.549  12.145  68.174  1.00  0.00    -0.208 C  
HETATM   18  C   UNL     1      -9.510  13.496  68.283  1.00  0.00    -0.212 C  
BRANCH  17  19
HETATM   19  C   UNL     1      -8.716  11.448  67.216  1.00  0.00    -0.148 A  
HETATM   20  C   UNL     1      -7.337  11.365  67.255  1.00  0.00    -0.130 A  
HETATM   21  H2  UNL     1      -7.941   8.890  63.910  1.00  0.00     0.000 HD 
HETATM   22  S   UNL     1      -6.776  10.386  65.962  1.00  0.00    -0.131 SA 
HETATM   23  H1  UNL     1      -9.659   9.197  64.122  1.00  0.00     0.000 HD 
HETATM   24  N   UNL     1      -9.307  10.749  66.174  1.00  0.00    -0.177 NA 
HETATM   25  N   UNL     1      -8.696   9.348  64.419  1.00  0.00    -0.198 NA 
HETATM   26  C   UNL     1      -8.396  10.133  65.462  1.00  0.00    -0.158 A  
ENDBRANCH  17  19
BRANCH  18  27
HETATM   27  C   UNL     1     -10.149  14.438  69.272  1.00  0.00    -0.038 C  
HETATM   28  O   UNL     1     -11.333  16.365  68.410  1.00  0.00    -0.366 OA 
HETATM   29  C   UNL     1     -11.368  15.200  68.783  1.00  0.00    -0.300 C  
HETATM   30  O   UNL     1     -12.516  14.492  68.817  1.00  0.00    -0.099 OA 
ENDBRANCH  18  27
ENDBRANCH  15  17
ENDBRANCH  11  13
TORSDOF 4
ENDMDL
MODEL      140
REMARK 921   NORMALIZED FREE ENERGY PREDICTED BY IDOCK:   -4.76 KCAL/MOL
REMARK 922        TOTAL FREE ENERGY PREDICTED BY IDOCK:   -6.43 KCAL/MOL
REMARK 923 INTER-LIGAND FREE ENERGY PREDICTED BY IDOCK:   -6.21 KCAL/MOL
REMARK 924 INTRA-LIGAND FREE ENERGY PREDICTED BY IDOCK:   -0.22 KCAL/MOL
REMARK 927      BINDING AFFINITY PREDICTED BY RF-SCORE:    0.00 PKD
ROOT
HETATM    1  CE  UNL     1     -11.031   9.350  68.086  1.00  0.00    -0.045 C  
HETATM    2  SD  UNL     1      -9.676   9.481  66.892  1.00  0.00    -0.196 SA 
HETATM    3  CG  UNL     1      -9.338   7.699  66.872  1.00  0.00    -0.161 C  
HETATM    4  CB  UNL     1      -9.272   7.107  68.248  1.00  0.00    -0.132 C  
HETATM    5  CA  UNL     1      -9.788   7.628  69.381  1.00  0.00    -0.171 C  
HETATM    6  N   UNL     1     -10.515   8.777  69.319  1.00  0.00    -0.221 N  
HETATM    7  C   UNL     1      -9.458   6.900  70.652  1.00  0.00    -0.165 C  
HETATM    8  C   UNL     1     -10.988   9.726  70.146  1.00  0.00    -0.291 C  
HETATM    9  OXT UNL     1      -8.784   5.876  70.671  1.00  0.00    -0.134 OA 
HETATM   10  O   UNL     1      -9.968   7.403  71.792  1.00  0.00    -0.171 OA 
HETATM   11  CA  UNL     1     -11.399  10.626  68.916  1.00  0.00    -0.274 C  
HETATM   12  O   UNL     1     -10.951   9.781  71.354  1.00  0.00    -0.342 OA 
ENDROOT
BRANCH  11  13
HETATM   13  N   UNL     1     -10.567  11.848  68.748  1.00  0.00    -0.253 N  
HETATM   14  H   UNL     1      -9.795  11.994  69.398  1.00  0.00     0.000 HD 
HETATM   15  C   UNL     1     -10.772  12.793  67.774  1.00  0.00    -0.220 C  
HETATM   16  O   UNL     1     -11.750  12.744  67.027  1.00  0.00    -0.342 OA 
BRANCH  15  17
HETATM   17  C   UNL     1      -9.686  13.851  67.615  1.00  0.00    -0.226 C  
HETATM   18  C   UNL     1      -9.964  15.005  66.960  1.00  0.00    -0.242 C  
BRANCH  17  19
HETATM   19  C   UNL     1      -8.373  13.607  68.177  1.00  0.00    -0.166 A  
HETATM   20  C   UNL     1      -7.613  12.468  67.988  1.00  0.00    -0.127 A  
HETATM   21  H2  UNL     1      -4.803  14.636  70.243  1.00  0.00     0.000 HD 
HETATM   22  S   UNL     1      -6.101  12.640  68.781  1.00  0.00    -0.076 SA 
HETATM   23  H1  UNL     1      -6.002  15.921  70.310  1.00  0.00     0.000 HD 
HETATM   24  N   UNL     1      -7.761  14.590  68.941  1.00  0.00    -0.133 NA 
HETATM   25  N   UNL     1      -5.730  14.987  70.004  1.00  0.00    -0.121 NA 
HETATM   26  C   UNL     1      -6.558  14.210  69.296  1.00  0.00    -0.120 A  
ENDBRANCH  17  19
BRANCH  18  27
HETATM   27  C   UNL     1     -11.257  15.561  66.419  1.00  0.00    -0.098 C  
HETATM   28  O   UNL     1     -11.206  16.690  64.279  1.00  0.00    -1.098 OA 
HETATM   29  C   UNL     1     -11.369  15.653  64.907  1.00  0.00    -0.315 C  
HETATM   30  O   UNL     1     -11.693  14.491  64.303  1.00  0.00    -0.370 OA 
ENDBRANCH  18  27
ENDBRANCH  15  17
ENDBRANCH  11  13
TORSDOF 4
ENDMDL
MODEL      141
REMARK 921   NORMALIZED FREE ENERGY PREDICTED BY IDOCK:   -4.73 KCAL/MOL
REMARK 922        TOTAL FREE ENERGY PREDICTED BY IDOCK:   -6.39 KCAL/MOL
REMARK 923 INTER-LIGAND FREE ENERGY PREDICTED BY IDOCK:   -6.44 KCAL/MOL
REMARK 924 INTRA-LIGAND FREE ENERGY PREDICTED BY IDOCK:    0.05 KCAL/MOL
REMARK 927      BINDING AFFINITY PREDICTED BY RF-SCORE:    0.00 PKD
ROOT
HETATM    1  CE  UNL     1     -10.538  12.999  68.288  1.00  0.00    -0.247 C  
HETATM    2  SD  UNL     1      -8.807  12.475  68.189  1.00  0.00    -0.180 SA 
HETATM    3  CG  UNL     1      -8.175  14.147  67.878  1.00  0.00    -0.155 C  
HETATM    4  CB  UNL     1      -8.957  14.876  66.827  1.00  0.00    -0.295 C  
HETATM    5  CA  UNL     1     -10.211  14.599  66.412  1.00  0.00    -0.289 C  
HETATM    6  N   UNL     1     -10.916  13.608  67.023  1.00  0.00    -0.286 N  
HETATM    7  C   UNL     1     -10.709  15.399  65.243  1.00  0.00    -0.421 C  
HETATM    8  C   UNL     1     -12.020  12.870  66.815  1.00  0.00    -0.350 C  
HETATM    9  OXT UNL     1     -10.038  16.274  64.706  1.00  0.00    -0.282 OA 
HETATM   10  O   UNL     1     -11.961  15.140  64.817  1.00  0.00    -0.340 OA 
HETATM   11  CA  UNL     1     -11.643  11.924  68.019  1.00  0.00    -0.332 C  
HETATM   12  O   UNL     1     -12.847  12.954  65.934  1.00  0.00    -0.331 OA 
ENDROOT
BRANCH  11  13
HETATM   13  N   UNL     1     -11.221  10.556  67.613  1.00  0.00    -0.339 N  
HETATM   14  H   UNL     1     -11.325  10.296  66.633  1.00  0.00     0.000 HD 
HETATM   15  C   UNL     1     -10.702   9.621  68.474  1.00  0.00    -0.200 C  
HETATM   16  O   UNL     1     -10.655   9.822  69.687  1.00  0.00    -0.210 OA 
BRANCH  15  17
HETATM   17  C   UNL     1     -10.117   8.365  67.838  1.00  0.00    -0.254 C  
HETATM   18  C   UNL     1      -9.691   8.400  66.551  1.00  0.00    -0.330 C  
BRANCH  17  19
HETATM   19  C   UNL     1     -10.018   7.153  68.626  1.00  0.00    -0.159 A  
HETATM   20  C   UNL     1     -10.669   5.963  68.362  1.00  0.00    -0.250 A  
HETATM   21  H2  UNL     1      -8.445   4.647  71.679  1.00  0.00     0.000 HD 
HETATM   22  S   UNL     1     -10.207   4.779  69.515  1.00  0.00     0.024 SA 
HETATM   23  H1  UNL     1      -7.791   6.278  71.757  1.00  0.00     0.000 HD 
HETATM   24  N   UNL     1      -9.175   7.118  69.727  1.00  0.00    -0.144 NA 
HETATM   25  N   UNL     1      -8.408   5.598  71.313  1.00  0.00    -0.125 NA 
HETATM   26  C   UNL     1      -9.171   5.922  70.262  1.00  0.00    -0.154 A  
ENDBRANCH  17  19
BRANCH  18  27
HETATM   27  C   UNL     1      -9.548   9.540  65.576  1.00  0.00    -0.349 C  
HETATM   28  O   UNL     1      -7.338  10.455  65.206  1.00  0.00    -0.144 OA 
HETATM   29  C   UNL     1      -8.208   9.660  64.873  1.00  0.00    -0.143 C  
HETATM   30  O   UNL     1      -8.055   8.829  63.821  1.00  0.00    -0.151 OA 
ENDBRANCH  18  27
ENDBRANCH  15  17
ENDBRANCH  11  13
TORSDOF 4
ENDMDL
MODEL      142
REMARK 921   NORMALIZED FREE ENERGY PREDICTED BY IDOCK:   -4.69 KCAL/MOL
REMARK 922        TOTAL FREE ENERGY PREDICTED BY IDOCK:   -6.34 KCAL/MOL
REMARK 923 INTER-LIGAND FREE ENERGY PREDICTED BY IDOCK:   -5.52 KCAL/MOL
REMARK 924 INTRA-LIGAND FREE ENERGY PREDICTED BY IDOCK:   -0.82 KCAL/MOL
REMARK 927      BINDING AFFINITY PREDICTED BY RF-SCORE:    0.00 PKD
ROOT
HETATM    1  CE  UNL     1      -9.822   5.898  69.404  1.00  0.00    -0.161 C  
HETATM    2  SD  UNL     1      -8.106   6.388  69.707  1.00  0.00    -0.122 SA 
HETATM    3  CG  UNL     1      -7.774   5.023  70.855  1.00  0.00    -0.083 C  
HETATM    4  CB  UNL     1      -8.856   4.851  71.878  1.00  0.00    -0.140 C  
HETATM    5  CA  UNL     1     -10.125   5.301  71.799  1.00  0.00    -0.200 C  
HETATM    6  N   UNL     1     -10.546   5.924  70.665  1.00  0.00    -0.251 N  
HETATM    7  C   UNL     1     -10.968   5.115  73.028  1.00  0.00    -0.294 C  
HETATM    8  C   UNL     1     -11.567   6.692  70.247  1.00  0.00    -0.395 C  
HETATM    9  OXT UNL     1     -10.549   4.563  74.040  1.00  0.00    -0.228 OA 
HETATM   10  O   UNL     1     -12.240   5.553  72.966  1.00  0.00    -0.011 OA 
HETATM   11  CA  UNL     1     -10.815   6.996  68.893  1.00  0.00    -0.167 C  
HETATM   12  O   UNL     1     -12.573   7.022  70.835  1.00  0.00    -0.353 OA 
ENDROOT
BRANCH  11  13
HETATM   13  N   UNL     1     -10.326   8.395  68.766  1.00  0.00    -0.211 N  
HETATM   14  H   UNL     1     -10.162   8.923  69.623  1.00  0.00     0.000 HD 
HETATM   15  C   UNL     1     -10.081   9.021  67.570  1.00  0.00    -0.228 C  
HETATM   16  O   UNL     1     -10.364   8.489  66.496  1.00  0.00    -0.283 OA 
BRANCH  15  17
HETATM   17  C   UNL     1      -9.369  10.367  67.641  1.00  0.00    -0.161 C  
HETATM   18  C   UNL     1     -10.081  11.490  67.909  1.00  0.00    -0.202 C  
BRANCH  17  19
HETATM   19  C   UNL     1      -7.937  10.423  67.430  1.00  0.00    -0.107 A  
HETATM   20  C   UNL     1      -6.969  10.143  68.376  1.00  0.00    -0.066 A  
HETATM   21  H2  UNL     1      -4.383  10.803  65.128  1.00  0.00     0.000 HD 
HETATM   22  S   UNL     1      -5.411  10.270  67.670  1.00  0.00    -0.044 SA 
HETATM   23  H1  UNL     1      -5.827  11.115  64.174  1.00  0.00     0.000 HD 
HETATM   24  N   UNL     1      -7.441  10.736  66.173  1.00  0.00    -0.138 NA 
HETATM   25  N   UNL     1      -5.398  10.879  65.069  1.00  0.00    -0.174 NA 
HETATM   26  C   UNL     1      -6.133  10.667  66.167  1.00  0.00    -0.121 A  
ENDBRANCH  17  19
BRANCH  18  27
HETATM   27  C   UNL     1     -11.522  11.690  68.303  1.00  0.00    -0.369 C  
HETATM   28  O   UNL     1     -12.005  13.187  70.142  1.00  0.00    -0.334 OA 
HETATM   29  C   UNL     1     -11.867  13.025  68.937  1.00  0.00    -0.316 C  
HETATM   30  O   UNL     1     -12.039  14.031  68.055  1.00  0.00    -0.362 OA 
ENDBRANCH  18  27
ENDBRANCH  15  17
ENDBRANCH  11  13
TORSDOF 4
ENDMDL
MODEL      143
REMARK 921   NORMALIZED FREE ENERGY PREDICTED BY IDOCK:   -4.68 KCAL/MOL
REMARK 922        TOTAL FREE ENERGY PREDICTED BY IDOCK:   -6.33 KCAL/MOL
REMARK 923 INTER-LIGAND FREE ENERGY PREDICTED BY IDOCK:   -4.90 KCAL/MOL
REMARK 924 INTRA-LIGAND FREE ENERGY PREDICTED BY IDOCK:   -1.42 KCAL/MOL
REMARK 927      BINDING AFFINITY PREDICTED BY RF-SCORE:    0.00 PKD
ROOT
HETATM    1  CE  UNL     1      -9.252   5.521  67.592  1.00  0.00    -0.110 C  
HETATM    2  SD  UNL     1      -8.018   6.836  67.428  1.00  0.00    -0.115 SA 
HETATM    3  CG  UNL     1      -6.789   5.772  66.623  1.00  0.00    -0.059 C  
HETATM    4  CB  UNL     1      -6.616   4.456  67.322  1.00  0.00    -0.046 C  
HETATM    5  CA  UNL     1      -7.485   3.869  68.172  1.00  0.00    -0.062 C  
HETATM    6  N   UNL     1      -8.692   4.452  68.404  1.00  0.00    -0.098 N  
HETATM    7  C   UNL     1      -7.004   2.616  68.843  1.00  0.00    -0.044 C  
HETATM    8  C   UNL     1      -9.707   4.371  69.282  1.00  0.00    -0.182 C  
HETATM    9  OXT UNL     1      -5.901   2.128  68.622  1.00  0.00    -0.022 OA 
HETATM   10  O   UNL     1      -7.859   2.012  69.691  1.00  0.00    -0.042 OA 
HETATM   11  CA  UNL     1     -10.353   5.685  68.693  1.00  0.00    -0.208 C  
HETATM   12  O   UNL     1      -9.878   3.589  70.191  1.00  0.00    -0.148 OA 
ENDROOT
BRANCH  11  13
HETATM   13  N   UNL     1     -10.280   6.861  69.601  1.00  0.00    -0.188 N  
HETATM   14  H   UNL     1      -9.394   7.362  69.665  1.00  0.00     0.000 HD 
HETATM   15  C   UNL     1     -11.330   7.316  70.360  1.00  0.00    -0.271 C  
HETATM   16  O   UNL     1     -12.392   6.697  70.423  1.00  0.00    -0.274 OA 
BRANCH  15  17
HETATM   17  C   UNL     1     -11.136   8.662  71.049  1.00  0.00    -0.316 C  
HETATM   18  C   UNL     1     -10.622   8.707  72.303  1.00  0.00    -0.375 C  
BRANCH  17  19
HETATM   19  C   UNL     1     -11.499   9.876  70.345  1.00  0.00    -0.301 A  
HETATM   20  C   UNL     1     -11.963  11.040  70.930  1.00  0.00    -0.286 A  
HETATM   21  H2  UNL     1     -11.809  12.439  66.968  1.00  0.00     0.000 HD 
HETATM   22  S   UNL     1     -12.201  12.239  69.727  1.00  0.00    -0.064 SA 
HETATM   23  H1  UNL     1     -11.233  10.836  66.533  1.00  0.00     0.000 HD 
HETATM   24  N   UNL     1     -11.344   9.943  68.969  1.00  0.00    -0.091 NA 
HETATM   25  N   UNL     1     -11.556  11.491  67.244  1.00  0.00    -0.560 NA 
HETATM   26  C   UNL     1     -11.658  11.138  68.532  1.00  0.00    -0.314 A  
ENDBRANCH  17  19
BRANCH  18  27
HETATM   27  C   UNL     1     -10.039   7.631  73.183  1.00  0.00    -0.382 C  
HETATM   28  O   UNL     1      -8.417   6.119  72.215  1.00  0.00    -0.117 OA 
HETATM   29  C   UNL     1      -8.642   7.154  72.828  1.00  0.00    -0.114 C  
HETATM   30  O   UNL     1      -7.652   7.957  73.268  1.00  0.00    -0.112 OA 
ENDBRANCH  18  27
ENDBRANCH  15  17
ENDBRANCH  11  13
TORSDOF 4
ENDMDL
MODEL      144
REMARK 921   NORMALIZED FREE ENERGY PREDICTED BY IDOCK:   -4.67 KCAL/MOL
REMARK 922        TOTAL FREE ENERGY PREDICTED BY IDOCK:   -6.32 KCAL/MOL
REMARK 923 INTER-LIGAND FREE ENERGY PREDICTED BY IDOCK:   -5.33 KCAL/MOL
REMARK 924 INTRA-LIGAND FREE ENERGY PREDICTED BY IDOCK:   -0.98 KCAL/MOL
REMARK 927      BINDING AFFINITY PREDICTED BY RF-SCORE:    0.00 PKD
ROOT
HETATM    1  CE  UNL     1     -10.060   5.578  69.197  1.00  0.00    -0.216 C  
HETATM    2  SD  UNL     1      -8.277   5.893  69.246  1.00  0.00    -0.114 SA 
HETATM    3  CG  UNL     1      -7.897   4.389  70.186  1.00  0.00    -0.056 C  
HETATM    4  CB  UNL     1      -8.810   4.193  71.360  1.00  0.00    -0.147 C  
HETATM    5  CA  UNL     1     -10.026   4.749  71.543  1.00  0.00    -0.194 C  
HETATM    6  N   UNL     1     -10.563   5.524  70.560  1.00  0.00    -0.278 N  
HETATM    7  C   UNL     1     -10.672   4.498  72.874  1.00  0.00    -0.208 C  
HETATM    8  C   UNL     1     -11.559   6.412  70.398  1.00  0.00    -0.373 C  
HETATM    9  OXT UNL     1     -10.150   3.808  73.743  1.00  0.00    -0.116 OA 
HETATM   10  O   UNL     1     -11.889   5.041  73.073  1.00  0.00    -0.269 OA 
HETATM   11  CA  UNL     1     -11.012   6.800  68.970  1.00  0.00    -0.233 C  
HETATM   12  O   UNL     1     -12.419   6.754  71.178  1.00  0.00    -0.367 OA 
ENDROOT
BRANCH  11  13
HETATM   13  N   UNL     1     -10.416   8.161  68.893  1.00  0.00    -0.279 N  
HETATM   14  H   UNL     1     -10.101   8.594  69.760  1.00  0.00     0.000 HD 
HETATM   15  C   UNL     1     -10.264   8.872  67.728  1.00  0.00    -0.228 C  
HETATM   16  O   UNL     1     -10.724   8.463  66.662  1.00  0.00    -0.195 OA 
BRANCH  15  17
HETATM   17  C   UNL     1      -9.429  10.144  67.815  1.00  0.00    -0.160 C  
HETATM   18  C   UNL     1      -8.079  10.071  67.701  1.00  0.00    -0.110 C  
BRANCH  17  19
HETATM   19  C   UNL     1     -10.095  11.416  68.009  1.00  0.00    -0.180 A  
HETATM   20  C   UNL     1     -11.447  11.594  68.234  1.00  0.00    -0.303 A  
HETATM   21  H2  UNL     1     -10.297  15.621  68.605  1.00  0.00     0.000 HD 
HETATM   22  S   UNL     1     -11.783  13.258  68.474  1.00  0.00    -0.367 SA 
HETATM   23  H1  UNL     1      -8.657  15.075  68.281  1.00  0.00     0.000 HD 
HETATM   24  N   UNL     1      -9.349  12.585  68.023  1.00  0.00    -0.200 NA 
HETATM   25  N   UNL     1      -9.647  14.863  68.396  1.00  0.00    -0.203 NA 
HETATM   26  C   UNL     1     -10.118  13.615  68.281  1.00  0.00    -0.240 A  
ENDBRANCH  17  19
BRANCH  18  27
HETATM   27  C   UNL     1      -7.166   8.922  67.358  1.00  0.00    -0.080 C  
HETATM   28  O   UNL     1      -7.546   7.745  65.277  1.00  0.00    -0.081 OA 
HETATM   29  C   UNL     1      -6.967   8.640  65.879  1.00  0.00    -0.075 C  
HETATM   30  O   UNL     1      -6.070   9.446  65.275  1.00  0.00    -0.062 OA 
ENDBRANCH  18  27
ENDBRANCH  15  17
ENDBRANCH  11  13
TORSDOF 4
ENDMDL
MODEL      145
REMARK 921   NORMALIZED FREE ENERGY PREDICTED BY IDOCK:   -4.66 KCAL/MOL
REMARK 922        TOTAL FREE ENERGY PREDICTED BY IDOCK:   -6.31 KCAL/MOL
REMARK 923 INTER-LIGAND FREE ENERGY PREDICTED BY IDOCK:   -6.74 KCAL/MOL
REMARK 924 INTRA-LIGAND FREE ENERGY PREDICTED BY IDOCK:    0.44 KCAL/MOL
REMARK 927      BINDING AFFINITY PREDICTED BY RF-SCORE:    0.00 PKD
ROOT
HETATM    1  CE  UNL     1      -5.541  16.045  68.645  1.00  0.00    -0.101 C  
HETATM    2  SD  UNL     1      -6.348  17.610  69.070  1.00  0.00    -0.232 SA 
HETATM    3  CG  UNL     1      -5.334  17.891  70.548  1.00  0.00    -0.273 C  
HETATM    4  CB  UNL     1      -5.221  16.671  71.413  1.00  0.00     0.073 C  
HETATM    5  CA  UNL     1      -5.439  15.392  71.043  1.00  0.00    -0.030 C  
HETATM    6  N   UNL     1      -5.726  15.110  69.743  1.00  0.00    -0.108 N  
HETATM    7  C   UNL     1      -5.394  14.371  72.143  1.00  0.00    -0.158 C  
HETATM    8  C   UNL     1      -6.215  14.096  69.008  1.00  0.00    -0.094 C  
HETATM    9  OXT UNL     1      -5.148  14.665  73.309  1.00  0.00    -0.295 OA 
HETATM   10  O   UNL     1      -5.603  13.088  71.792  1.00  0.00    -0.402 OA 
HETATM   11  CA  UNL     1      -6.331  15.037  67.746  1.00  0.00    -0.156 C  
HETATM   12  O   UNL     1      -6.502  12.970  69.345  1.00  0.00    -0.109 OA 
ENDROOT
BRANCH  11  13
HETATM   13  N   UNL     1      -7.728  15.372  67.359  1.00  0.00    -0.178 N  
HETATM   14  H   UNL     1      -7.921  15.552  66.375  1.00  0.00     0.000 HD 
HETATM   15  C   UNL     1      -8.775  15.453  68.243  1.00  0.00    -0.164 C  
HETATM   16  O   UNL     1      -8.598  15.361  69.458  1.00  0.00    -0.257 OA 
BRANCH  15  17
HETATM   17  C   UNL     1     -10.167  15.580  67.637  1.00  0.00    -0.255 C  
HETATM   18  C   UNL     1     -10.756  16.799  67.556  1.00  0.00    -0.275 C  
BRANCH  17  19
HETATM   19  C   UNL     1     -10.837  14.392  67.147  1.00  0.00    -0.292 A  
HETATM   20  C   UNL     1     -10.786  13.139  67.728  1.00  0.00    -0.240 A  
HETATM   21  H2  UNL     1     -13.501  12.208  64.656  1.00  0.00     0.000 HD 
HETATM   22  S   UNL     1     -11.781  12.051  66.852  1.00  0.00    -0.177 SA 
HETATM   23  H1  UNL     1     -13.347  13.886  64.152  1.00  0.00     0.000 HD 
HETATM   24  N   UNL     1     -11.650  14.476  66.027  1.00  0.00    -0.360 NA 
HETATM   25  N   UNL     1     -13.087  13.131  64.786  1.00  0.00    -0.680 NA 
HETATM   26  C   UNL     1     -12.218  13.320  65.786  1.00  0.00    -0.456 A  
ENDBRANCH  17  19
BRANCH  18  27
HETATM   27  C   UNL     1     -10.235  18.182  67.849  1.00  0.00    -0.391 C  
HETATM   28  O   UNL     1      -8.431  19.036  66.480  1.00  0.00    -0.293 OA 
HETATM   29  C   UNL     1      -9.635  18.938  66.677  1.00  0.00    -0.336 C  
HETATM   30  O   UNL     1     -10.544  19.524  65.870  1.00  0.00    -0.504 OA 
ENDBRANCH  18  27
ENDBRANCH  15  17
ENDBRANCH  11  13
TORSDOF 4
ENDMDL
MODEL      146
REMARK 921   NORMALIZED FREE ENERGY PREDICTED BY IDOCK:   -4.66 KCAL/MOL
REMARK 922        TOTAL FREE ENERGY PREDICTED BY IDOCK:   -6.30 KCAL/MOL
REMARK 923 INTER-LIGAND FREE ENERGY PREDICTED BY IDOCK:   -5.60 KCAL/MOL
REMARK 924 INTRA-LIGAND FREE ENERGY PREDICTED BY IDOCK:   -0.70 KCAL/MOL
REMARK 927      BINDING AFFINITY PREDICTED BY RF-SCORE:    0.00 PKD
ROOT
HETATM    1  CE  UNL     1     -11.018   9.341  68.075  1.00  0.00    -0.015 C  
HETATM    2  SD  UNL     1      -9.658   9.249  66.882  1.00  0.00    -0.189 SA 
HETATM    3  CG  UNL     1      -9.628   7.435  66.848  1.00  0.00    -0.187 C  
HETATM    4  CB  UNL     1      -9.665   6.829  68.219  1.00  0.00    -0.126 C  
HETATM    5  CA  UNL     1     -10.086   7.422  69.356  1.00  0.00    -0.185 C  
HETATM    6  N   UNL     1     -10.608   8.678  69.303  1.00  0.00    -0.218 N  
HETATM    7  C   UNL     1      -9.887   6.638  70.621  1.00  0.00    -0.183 C  
HETATM    8  C   UNL     1     -10.913   9.687  70.138  1.00  0.00    -0.275 C  
HETATM    9  OXT UNL     1      -9.397   5.514  70.632  1.00  0.00    -0.152 OA 
HETATM   10  O   UNL     1     -10.306   7.212  71.765  1.00  0.00    -0.197 OA 
HETATM   11  CA  UNL     1     -11.164  10.654  68.916  1.00  0.00    -0.275 C  
HETATM   12  O   UNL     1     -10.869   9.725  71.347  1.00  0.00    -0.308 OA 
ENDROOT
BRANCH  11  13
HETATM   13  N   UNL     1     -10.136  11.718  68.758  1.00  0.00    -0.352 N  
HETATM   14  H   UNL     1      -9.350  11.723  69.407  1.00  0.00     0.000 HD 
HETATM   15  C   UNL     1     -10.178  12.694  67.794  1.00  0.00    -0.222 C  
HETATM   16  O   UNL     1     -11.151  12.820  67.050  1.00  0.00    -0.260 OA 
BRANCH  15  17
HETATM   17  C   UNL     1      -8.928  13.553  67.642  1.00  0.00    -0.200 C  
HETATM   18  C   UNL     1      -7.709  12.962  67.598  1.00  0.00    -0.162 C  
BRANCH  17  19
HETATM   19  C   UNL     1      -9.066  14.992  67.540  1.00  0.00    -0.185 A  
HETATM   20  C   UNL     1      -9.791  15.797  68.399  1.00  0.00    -0.206 A  
HETATM   21  H2  UNL     1      -8.205  18.855  65.988  1.00  0.00     0.000 HD 
HETATM   22  S   UNL     1      -9.620  17.440  67.938  1.00  0.00    -0.276 SA 
HETATM   23  H1  UNL     1      -7.407  17.581  65.076  1.00  0.00     0.000 HD 
HETATM   24  N   UNL     1      -8.396  15.675  66.536  1.00  0.00    -0.273 NA 
HETATM   25  N   UNL     1      -8.020  17.863  65.840  1.00  0.00    -0.546 NA 
HETATM   26  C   UNL     1      -8.589  16.965  66.654  1.00  0.00    -0.247 A  
ENDBRANCH  17  19
BRANCH  18  27
HETATM   27  C   UNL     1      -7.302  11.511  67.538  1.00  0.00    -0.112 C  
HETATM   28  O   UNL     1      -5.413  10.800  68.872  1.00  0.00    -0.041 OA 
HETATM   29  C   UNL     1      -6.623  10.952  68.776  1.00  0.00    -0.059 C  
HETATM   30  O   UNL     1      -7.471  10.604  69.766  1.00  0.00    -0.150 OA 
ENDBRANCH  18  27
ENDBRANCH  15  17
ENDBRANCH  11  13
TORSDOF 4
ENDMDL
MODEL      147
REMARK 921   NORMALIZED FREE ENERGY PREDICTED BY IDOCK:   -4.65 KCAL/MOL
REMARK 922        TOTAL FREE ENERGY PREDICTED BY IDOCK:   -6.30 KCAL/MOL
REMARK 923 INTER-LIGAND FREE ENERGY PREDICTED BY IDOCK:   -5.82 KCAL/MOL
REMARK 924 INTRA-LIGAND FREE ENERGY PREDICTED BY IDOCK:   -0.48 KCAL/MOL
REMARK 927      BINDING AFFINITY PREDICTED BY RF-SCORE:    0.00 PKD
ROOT
HETATM    1  CE  UNL     1     -10.886  12.005  67.537  1.00  0.00    -0.241 C  
HETATM    2  SD  UNL     1     -11.680  11.905  69.162  1.00  0.00    -0.324 SA 
HETATM    3  CG  UNL     1     -11.822  13.703  69.356  1.00  0.00    -0.339 C  
HETATM    4  CB  UNL     1     -10.551  14.424  69.018  1.00  0.00    -0.245 C  
HETATM    5  CA  UNL     1      -9.530  13.959  68.267  1.00  0.00    -0.217 C  
HETATM    6  N   UNL     1      -9.638  12.740  67.671  1.00  0.00    -0.186 N  
HETATM    7  C   UNL     1      -8.311  14.832  68.200  1.00  0.00    -0.144 C  
HETATM    8  C   UNL     1      -8.851  11.828  67.075  1.00  0.00    -0.182 C  
HETATM    9  OXT UNL     1      -8.243  15.918  68.765  1.00  0.00    -0.169 OA 
HETATM   10  O   UNL     1      -7.284  14.387  67.451  1.00  0.00    -0.185 OA 
HETATM   11  CA  UNL     1     -10.031  10.780  67.067  1.00  0.00    -0.197 C  
HETATM   12  O   UNL     1      -7.673  11.889  66.801  1.00  0.00    -0.135 OA 
ENDROOT
BRANCH  11  13
HETATM   13  N   UNL     1      -9.843   9.641  68.005  1.00  0.00    -0.146 N  
HETATM   14  H   UNL     1      -9.692   9.854  68.990  1.00  0.00     0.000 HD 
HETATM   15  C   UNL     1      -9.860   8.321  67.628  1.00  0.00    -0.169 C  
HETATM   16  O   UNL     1      -9.922   7.992  66.444  1.00  0.00    -0.229 OA 
BRANCH  15  17
HETATM   17  C   UNL     1      -9.881   7.294  68.755  1.00  0.00    -0.161 C  
HETATM   18  C   UNL     1      -9.513   6.013  68.503  1.00  0.00    -0.127 C  
BRANCH  17  19
HETATM   19  C   UNL     1     -10.286   7.708  70.083  1.00  0.00    -0.217 A  
HETATM   20  C   UNL     1      -9.732   7.269  71.270  1.00  0.00    -0.166 A  
HETATM   21  H2  UNL     1     -12.413  10.058  72.916  1.00  0.00     0.000 HD 
HETATM   22  S   UNL     1     -10.475   8.072  72.591  1.00  0.00    -0.346 SA 
HETATM   23  H1  UNL     1     -12.915  10.396  71.265  1.00  0.00     0.000 HD 
HETATM   24  N   UNL     1     -11.284   8.660  70.229  1.00  0.00    -0.226 NA 
HETATM   25  N   UNL     1     -12.331   9.873  71.917  1.00  0.00    -0.359 NA 
HETATM   26  C   UNL     1     -11.457   8.950  71.495  1.00  0.00    -0.321 A  
ENDBRANCH  17  19
BRANCH  18  27
HETATM   27  C   UNL     1      -8.923   5.366  67.276  1.00  0.00    -0.111 C  
HETATM   28  O   UNL     1      -9.476   3.052  66.830  1.00  0.00    -0.150 OA 
HETATM   29  C   UNL     1      -9.730   4.237  66.658  1.00  0.00    -0.219 C  
HETATM   30  O   UNL     1     -10.747   4.646  65.872  1.00  0.00    -0.307 OA 
ENDBRANCH  18  27
ENDBRANCH  15  17
ENDBRANCH  11  13
TORSDOF 4
ENDMDL
MODEL      148
REMARK 921   NORMALIZED FREE ENERGY PREDICTED BY IDOCK:   -4.65 KCAL/MOL
REMARK 922        TOTAL FREE ENERGY PREDICTED BY IDOCK:   -6.29 KCAL/MOL
REMARK 923 INTER-LIGAND FREE ENERGY PREDICTED BY IDOCK:   -5.07 KCAL/MOL
REMARK 924 INTRA-LIGAND FREE ENERGY PREDICTED BY IDOCK:   -1.22 KCAL/MOL
REMARK 927      BINDING AFFINITY PREDICTED BY RF-SCORE:    0.00 PKD
ROOT
HETATM    1  CE  UNL     1     -10.034   4.663  68.988  1.00  0.00    -0.116 C  
HETATM    2  SD  UNL     1     -10.727   6.164  68.247  1.00  0.00    -0.298 SA 
HETATM    3  CG  UNL     1     -10.525   5.582  66.541  1.00  0.00    -0.271 C  
HETATM    4  CB  UNL     1      -9.168   4.995  66.287  1.00  0.00    -0.144 C  
HETATM    5  CA  UNL     1      -8.300   4.529  67.209  1.00  0.00    -0.104 C  
HETATM    6  N   UNL     1      -8.668   4.499  68.520  1.00  0.00    -0.097 N  
HETATM    7  C   UNL     1      -6.949   4.124  66.697  1.00  0.00    -0.059 C  
HETATM    8  C   UNL     1      -8.101   4.356  69.730  1.00  0.00    -0.060 C  
HETATM    9  OXT UNL     1      -6.647   4.181  65.509  1.00  0.00    -0.041 OA 
HETATM   10  O   UNL     1      -6.071   3.651  67.602  1.00  0.00    -0.027 OA 
HETATM   11  CA  UNL     1      -9.451   4.767  70.437  1.00  0.00    -0.172 C  
HETATM   12  O   UNL     1      -6.952   4.103  70.017  1.00  0.00    -0.040 OA 
ENDROOT
BRANCH  11  13
HETATM   13  N   UNL     1      -9.414   6.100  71.096  1.00  0.00    -0.167 N  
HETATM   14  H   UNL     1      -8.734   6.781  70.758  1.00  0.00     0.000 HD 
HETATM   15  C   UNL     1     -10.236   6.473  72.130  1.00  0.00    -0.185 C  
HETATM   16  O   UNL     1     -11.000   5.669  72.664  1.00  0.00    -0.237 OA 
BRANCH  15  17
HETATM   17  C   UNL     1     -10.210   7.946  72.520  1.00  0.00    -0.342 C  
HETATM   18  C   UNL     1      -9.211   8.414  73.309  1.00  0.00    -0.170 C  
BRANCH  17  19
HETATM   19  C   UNL     1     -11.254   8.826  72.034  1.00  0.00    -0.373 A  
HETATM   20  C   UNL     1     -12.534   8.920  72.546  1.00  0.00    -0.274 A  
HETATM   21  H2  UNL     1     -12.863  11.981  69.682  1.00  0.00     0.000 HD 
HETATM   22  S   UNL     1     -13.407  10.136  71.709  1.00  0.00    -0.352 SA 
HETATM   23  H1  UNL     1     -11.198  11.613  69.249  1.00  0.00     0.000 HD 
HETATM   24  N   UNL     1     -10.982   9.703  70.994  1.00  0.00    -0.341 NA 
HETATM   25  N   UNL     1     -12.021  11.422  69.820  1.00  0.00    -0.334 NA 
HETATM   26  C   UNL     1     -12.024  10.457  70.748  1.00  0.00    -0.363 A  
ENDBRANCH  17  19
BRANCH  18  27
HETATM   27  C   UNL     1      -7.953   7.761  73.820  1.00  0.00    -0.218 C  
HETATM   28  O   UNL     1      -6.462   6.739  72.211  1.00  0.00    -0.056 OA 
HETATM   29  C   UNL     1      -6.776   7.727  72.862  1.00  0.00    -0.074 C  
HETATM   30  O   UNL     1      -6.074   8.877  72.801  1.00  0.00    -0.158 OA 
ENDBRANCH  18  27
ENDBRANCH  15  17
ENDBRANCH  11  13
TORSDOF 4
ENDMDL
MODEL      149
REMARK 921   NORMALIZED FREE ENERGY PREDICTED BY IDOCK:   -4.63 KCAL/MOL
REMARK 922        TOTAL FREE ENERGY PREDICTED BY IDOCK:   -6.26 KCAL/MOL
REMARK 923 INTER-LIGAND FREE ENERGY PREDICTED BY IDOCK:   -6.75 KCAL/MOL
REMARK 924 INTRA-LIGAND FREE ENERGY PREDICTED BY IDOCK:    0.49 KCAL/MOL
REMARK 927      BINDING AFFINITY PREDICTED BY RF-SCORE:    0.00 PKD
ROOT
HETATM    1  CE  UNL     1     -10.450   9.030  67.522  1.00  0.00    -0.272 C  
HETATM    2  SD  UNL     1      -9.835   9.896  66.055  1.00  0.00    -0.271 SA 
HETATM    3  CG  UNL     1      -8.362   8.850  65.886  1.00  0.00    -0.127 C  
HETATM    4  CB  UNL     1      -7.639   8.653  67.185  1.00  0.00    -0.092 C  
HETATM    5  CA  UNL     1      -8.142   8.823  68.426  1.00  0.00    -0.117 C  
HETATM    6  N   UNL     1      -9.457   9.137  68.579  1.00  0.00    -0.145 N  
HETATM    7  C   UNL     1      -7.162   8.696  69.556  1.00  0.00    -0.060 C  
HETATM    8  C   UNL     1     -10.286   9.601  69.530  1.00  0.00    -0.221 C  
HETATM    9  OXT UNL     1      -5.979   8.428  69.379  1.00  0.00    -0.036 OA 
HETATM   10  O   UNL     1      -7.646   8.857  70.803  1.00  0.00    -0.078 OA 
HETATM   11  CA  UNL     1     -11.434   9.801  68.465  1.00  0.00     0.213 C  
HETATM   12  O   UNL     1     -10.067   9.826  70.700  1.00  0.00    -0.272 OA 
ENDROOT
BRANCH  11  13
HETATM   13  N   UNL     1     -11.745  11.223  68.160  1.00  0.00    -0.283 N  
HETATM   14  H   UNL     1     -12.669  11.441  67.790  1.00  0.00     0.000 HD 
HETATM   15  C   UNL     1     -10.867  12.262  68.346  1.00  0.00    -0.230 C  
HETATM   16  O   UNL     1      -9.699  12.063  68.680  1.00  0.00    -0.183 OA 
BRANCH  15  17
HETATM   17  C   UNL     1     -11.437  13.668  68.197  1.00  0.00    -0.348 C  
HETATM   18  C   UNL     1     -12.053  14.258  69.251  1.00  0.00    -0.351 C  
BRANCH  17  19
HETATM   19  C   UNL     1     -11.304  14.355  66.928  1.00  0.00    -0.348 A  
HETATM   20  C   UNL     1     -11.729  13.877  65.702  1.00  0.00    -0.354 A  
HETATM   21  H2  UNL     1     -10.405  17.646  64.392  1.00  0.00     0.000 HD 
HETATM   22  S   UNL     1     -11.430  15.049  64.486  1.00  0.00    -0.262 SA 
HETATM   23  H1  UNL     1      -9.960  17.957  66.065  1.00  0.00     0.000 HD 
HETATM   24  N   UNL     1     -10.748  15.625  66.891  1.00  0.00    -0.313 NA 
HETATM   25  N   UNL     1     -10.346  17.330  65.360  1.00  0.00    -0.639 NA 
HETATM   26  C   UNL     1     -10.780  16.102  65.671  1.00  0.00    -0.310 A  
ENDBRANCH  17  19
BRANCH  18  27
HETATM   27  C   UNL     1     -12.196  13.834  70.690  1.00  0.00    -0.434 C  
HETATM   28  O   UNL     1     -11.323  15.303  72.404  1.00  0.00    -0.438 OA 
HETATM   29  C   UNL     1     -12.272  14.951  71.716  1.00  0.00    -0.348 C  
HETATM   30  O   UNL     1     -13.491  15.518  71.831  1.00  0.00    -0.434 OA 
ENDBRANCH  18  27
ENDBRANCH  15  17
ENDBRANCH  11  13
TORSDOF 4
ENDMDL
MODEL      150
REMARK 921   NORMALIZED FREE ENERGY PREDICTED BY IDOCK:   -4.63 KCAL/MOL
REMARK 922        TOTAL FREE ENERGY PREDICTED BY IDOCK:   -6.26 KCAL/MOL
REMARK 923 INTER-LIGAND FREE ENERGY PREDICTED BY IDOCK:   -5.39 KCAL/MOL
REMARK 924 INTRA-LIGAND FREE ENERGY PREDICTED BY IDOCK:   -0.87 KCAL/MOL
REMARK 927      BINDING AFFINITY PREDICTED BY RF-SCORE:    0.00 PKD
ROOT
HETATM    1  CE  UNL     1     -10.926   8.281  71.921  1.00  0.00    -0.287 C  
HETATM    2  SD  UNL     1     -11.976   7.085  71.056  1.00  0.00    -0.364 SA 
HETATM    3  CG  UNL     1     -11.897   5.849  72.381  1.00  0.00    -0.207 C  
HETATM    4  CB  UNL     1     -10.501   5.625  72.881  1.00  0.00    -0.246 C  
HETATM    5  CA  UNL     1      -9.447   6.457  72.745  1.00  0.00    -0.143 C  
HETATM    6  N   UNL     1      -9.626   7.674  72.161  1.00  0.00    -0.154 N  
HETATM    7  C   UNL     1      -8.124   5.928  73.216  1.00  0.00    -0.116 C  
HETATM    8  C   UNL     1      -8.887   8.665  71.633  1.00  0.00    -0.223 C  
HETATM    9  OXT UNL     1      -7.998   4.818  73.723  1.00  0.00    -0.103 OA 
HETATM   10  O   UNL     1      -7.062   6.747  73.093  1.00  0.00    -0.076 OA 
HETATM   11  CA  UNL     1     -10.184   9.358  71.060  1.00  0.00    -0.299 C  
HETATM   12  O   UNL     1      -7.684   8.793  71.598  1.00  0.00    -0.192 OA 
ENDROOT
BRANCH  11  13
HETATM   13  N   UNL     1     -10.309   9.295  69.579  1.00  0.00    -0.208 N  
HETATM   14  H   UNL     1     -11.025   8.685  69.186  1.00  0.00     0.000 HD 
HETATM   15  C   UNL     1      -9.521  10.004  68.708  1.00  0.00    -0.162 C  
HETATM   16  O   UNL     1      -8.563  10.669  69.104  1.00  0.00    -0.160 OA 
BRANCH  15  17
HETATM   17  C   UNL     1      -9.943   9.988  67.243  1.00  0.00    -0.245 C  
HETATM   18  C   UNL     1     -10.992  10.747  66.839  1.00  0.00    -0.255 C  
BRANCH  17  19
HETATM   19  C   UNL     1      -9.210   9.164  66.304  1.00  0.00    -0.194 A  
HETATM   20  C   UNL     1      -8.528   8.002  66.610  1.00  0.00    -0.133 A  
HETATM   21  H2  UNL     1      -7.903   7.924  62.453  1.00  0.00     0.000 HD 
HETATM   22  S   UNL     1      -7.866   7.322  65.181  1.00  0.00    -0.129 SA 
HETATM   23  H1  UNL     1      -8.822   9.423  62.391  1.00  0.00     0.000 HD 
HETATM   24  N   UNL     1      -9.198   9.503  64.959  1.00  0.00    -0.241 NA 
HETATM   25  N   UNL     1      -8.417   8.661  62.935  1.00  0.00    -0.167 NA 
HETATM   26  C   UNL     1      -8.545   8.602  64.266  1.00  0.00    -0.023 A  
ENDBRANCH  17  19
BRANCH  18  27
HETATM   27  C   UNL     1     -11.816  11.781  67.563  1.00  0.00    -0.227 C  
HETATM   28  O   UNL     1     -10.654  13.578  68.694  1.00  0.00    -0.244 OA 
HETATM   29  C   UNL     1     -11.204  13.166  67.682  1.00  0.00    -0.282 C  
HETATM   30  O   UNL     1     -11.339  13.929  66.578  1.00  0.00    -0.314 OA 
ENDBRANCH  18  27
ENDBRANCH  15  17
ENDBRANCH  11  13
TORSDOF 4
ENDMDL
MODEL      151
REMARK 921   NORMALIZED FREE ENERGY PREDICTED BY IDOCK:   -4.61 KCAL/MOL
REMARK 922        TOTAL FREE ENERGY PREDICTED BY IDOCK:   -6.25 KCAL/MOL
REMARK 923 INTER-LIGAND FREE ENERGY PREDICTED BY IDOCK:   -5.56 KCAL/MOL
REMARK 924 INTRA-LIGAND FREE ENERGY PREDICTED BY IDOCK:   -0.69 KCAL/MOL
REMARK 927      BINDING AFFINITY PREDICTED BY RF-SCORE:    0.00 PKD
ROOT
HETATM    1  CE  UNL     1      -7.880   9.540  68.120  1.00  0.00    -0.083 C  
HETATM    2  SD  UNL     1      -8.333   7.794  67.949  1.00  0.00    -0.123 SA 
HETATM    3  CG  UNL     1      -8.271   7.814  66.136  1.00  0.00    -0.123 C  
HETATM    4  CB  UNL     1      -8.986   8.992  65.545  1.00  0.00    -0.252 C  
HETATM    5  CA  UNL     1      -9.296  10.148  66.168  1.00  0.00    -0.172 C  
HETATM    6  N   UNL     1      -8.882  10.351  67.448  1.00  0.00    -0.132 N  
HETATM    7  C   UNL     1     -10.141  11.112  65.386  1.00  0.00    -0.264 C  
HETATM    8  C   UNL     1      -9.135  11.177  68.478  1.00  0.00    -0.175 C  
HETATM    9  OXT UNL     1     -10.510  10.887  64.238  1.00  0.00    -0.362 OA 
HETATM   10  O   UNL     1     -10.456  12.274  65.989  1.00  0.00    -0.243 OA 
HETATM   11  CA  UNL     1      -8.279  10.270  69.446  1.00  0.00    -0.165 C  
HETATM   12  O   UNL     1      -9.850  12.153  68.525  1.00  0.00    -0.209 OA 
ENDROOT
BRANCH  11  13
HETATM   13  N   UNL     1      -9.081   9.527  70.455  1.00  0.00    -0.262 N  
HETATM   14  H   UNL     1     -10.088   9.463  70.312  1.00  0.00     0.000 HD 
HETATM   15  C   UNL     1      -8.552   8.921  71.567  1.00  0.00    -0.135 C  
HETATM   16  O   UNL     1      -7.365   9.053  71.866  1.00  0.00    -0.317 OA 
BRANCH  15  17
HETATM   17  C   UNL     1      -9.489   8.017  72.359  1.00  0.00    -0.279 C  
HETATM   18  C   UNL     1      -8.983   7.189  73.305  1.00  0.00    -0.174 C  
BRANCH  17  19
HETATM   19  C   UNL     1     -10.912   8.064  72.090  1.00  0.00    -0.295 A  
HETATM   20  C   UNL     1     -11.741   6.970  71.935  1.00  0.00    -0.296 A  
HETATM   21  H2  UNL     1     -14.700   9.943  71.645  1.00  0.00     0.000 HD 
HETATM   22  S   UNL     1     -13.358   7.493  71.701  1.00  0.00    -0.319 SA 
HETATM   23  H1  UNL     1     -13.402  11.110  71.861  1.00  0.00     0.000 HD 
HETATM   24  N   UNL     1     -11.556   9.291  72.018  1.00  0.00    -0.321 NA 
HETATM   25  N   UNL     1     -13.708  10.141  71.778  1.00  0.00    -0.173 NA 
HETATM   26  C   UNL     1     -12.843   9.122  71.840  1.00  0.00    -0.393 A  
ENDBRANCH  17  19
BRANCH  18  27
HETATM   27  C   UNL     1      -7.593   7.050  73.872  1.00  0.00    -0.116 C  
HETATM   28  O   UNL     1      -6.632   4.833  74.008  1.00  0.00    -0.063 OA 
HETATM   29  C   UNL     1      -6.778   5.870  73.374  1.00  0.00    -0.075 C  
HETATM   30  O   UNL     1      -6.197   6.063  72.172  1.00  0.00    -0.040 OA 
ENDBRANCH  18  27
ENDBRANCH  15  17
ENDBRANCH  11  13
TORSDOF 4
ENDMDL
MODEL      152
REMARK 921   NORMALIZED FREE ENERGY PREDICTED BY IDOCK:   -4.57 KCAL/MOL
REMARK 922        TOTAL FREE ENERGY PREDICTED BY IDOCK:   -6.19 KCAL/MOL
REMARK 923 INTER-LIGAND FREE ENERGY PREDICTED BY IDOCK:   -5.28 KCAL/MOL
REMARK 924 INTRA-LIGAND FREE ENERGY PREDICTED BY IDOCK:   -0.91 KCAL/MOL
REMARK 927      BINDING AFFINITY PREDICTED BY RF-SCORE:    0.00 PKD
ROOT
HETATM    1  CE  UNL     1      -8.450   9.813  70.216  1.00  0.00    -0.126 C  
HETATM    2  SD  UNL     1      -7.224   9.288  68.991  1.00  0.00    -0.072 SA 
HETATM    3  CG  UNL     1      -7.235  10.868  68.099  1.00  0.00    -0.083 C  
HETATM    4  CB  UNL     1      -8.622  11.369  67.827  1.00  0.00    -0.129 C  
HETATM    5  CA  UNL     1      -9.754  11.009  68.467  1.00  0.00    -0.189 C  
HETATM    6  N   UNL     1      -9.683  10.156  69.525  1.00  0.00    -0.227 N  
HETATM    7  C   UNL     1     -11.033  11.557  67.903  1.00  0.00    -0.233 C  
HETATM    8  C   UNL     1     -10.500   9.386  70.266  1.00  0.00    -0.251 C  
HETATM    9  OXT UNL     1     -11.060  12.311  66.935  1.00  0.00    -0.260 OA 
HETATM   10  O   UNL     1     -12.173  11.213  68.531  1.00  0.00    -0.600 OA 
HETATM   11  CA  UNL     1      -9.260   8.700  70.961  1.00  0.00    -0.203 C  
HETATM   12  O   UNL     1     -11.706   9.289  70.232  1.00  0.00    -0.189 OA 
ENDROOT
BRANCH  11  13
HETATM   13  N   UNL     1      -9.047   7.281  70.568  1.00  0.00    -0.157 N  
HETATM   14  H   UNL     1      -8.191   7.048  70.066  1.00  0.00     0.000 HD 
HETATM   15  C   UNL     1      -9.929   6.265  70.839  1.00  0.00    -0.186 C  
HETATM   16  O   UNL     1     -11.032   6.487  71.338  1.00  0.00    -0.241 OA 
BRANCH  15  17
HETATM   17  C   UNL     1      -9.437   4.848  70.565  1.00  0.00    -0.232 C  
HETATM   18  C   UNL     1      -9.003   4.077  71.593  1.00  0.00    -0.162 C  
BRANCH  17  19
HETATM   19  C   UNL     1      -9.448   4.345  69.206  1.00  0.00    -0.179 A  
HETATM   20  C   UNL     1      -8.974   3.113  68.797  1.00  0.00    -0.133 A  
HETATM   21  H2  UNL     1     -10.472   4.385  65.080  1.00  0.00     0.000 HD 
HETATM   22  S   UNL     1      -9.252   2.912  67.116  1.00  0.00    -0.125 SA 
HETATM   23  H1  UNL     1     -10.955   5.865  65.898  1.00  0.00     0.000 HD 
HETATM   24  N   UNL     1     -10.015   5.110  68.197  1.00  0.00    -0.154 NA 
HETATM   25  N   UNL     1     -10.515   4.946  65.930  1.00  0.00    -0.262 NA 
HETATM   26  C   UNL     1      -9.992   4.457  67.061  1.00  0.00    -0.157 A  
ENDBRANCH  17  19
BRANCH  18  27
HETATM   27  C   UNL     1      -9.021   4.297  73.084  1.00  0.00    -0.116 C  
HETATM   28  O   UNL     1     -11.123   4.893  74.124  1.00  0.00    -0.297 OA 
HETATM   29  C   UNL     1     -10.336   4.018  73.789  1.00  0.00    -0.175 C  
HETATM   30  O   UNL     1     -10.563   2.713  74.046  1.00  0.00    -0.144 OA 
ENDBRANCH  18  27
ENDBRANCH  15  17
ENDBRANCH  11  13
TORSDOF 4
ENDMDL
MODEL      153
REMARK 921   NORMALIZED FREE ENERGY PREDICTED BY IDOCK:   -4.56 KCAL/MOL
REMARK 922        TOTAL FREE ENERGY PREDICTED BY IDOCK:   -6.18 KCAL/MOL
REMARK 923 INTER-LIGAND FREE ENERGY PREDICTED BY IDOCK:   -5.04 KCAL/MOL
REMARK 924 INTRA-LIGAND FREE ENERGY PREDICTED BY IDOCK:   -1.14 KCAL/MOL
REMARK 927      BINDING AFFINITY PREDICTED BY RF-SCORE:    0.00 PKD
ROOT
HETATM    1  CE  UNL     1     -10.607   8.618  69.756  1.00  0.00    -0.224 C  
HETATM    2  SD  UNL     1     -11.030   6.934  69.240  1.00  0.00    -0.193 SA 
HETATM    3  CG  UNL     1     -11.760   6.479  70.837  1.00  0.00    -0.356 C  
HETATM    4  CB  UNL     1     -10.900   6.875  72.000  1.00  0.00    -0.255 C  
HETATM    5  CA  UNL     1      -9.923   7.806  72.006  1.00  0.00    -0.179 C  
HETATM    6  N   UNL     1      -9.695   8.545  70.886  1.00  0.00    -0.177 N  
HETATM    7  C   UNL     1      -9.119   7.909  73.269  1.00  0.00    -0.278 C  
HETATM    8  C   UNL     1      -8.750   9.356  70.380  1.00  0.00    -0.240 C  
HETATM    9  OXT UNL     1      -9.343   7.214  74.255  1.00  0.00    -0.234 OA 
HETATM   10  O   UNL     1      -8.142   8.836  73.296  1.00  0.00    -0.407 OA 
HETATM   11  CA  UNL     1      -9.470   9.357  68.975  1.00  0.00    -0.160 C  
HETATM   12  O   UNL     1      -7.733   9.767  70.893  1.00  0.00    -0.312 OA 
ENDROOT
BRANCH  11  13
HETATM   13  N   UNL     1      -8.738   8.615  67.913  1.00  0.00    -0.137 N  
HETATM   14  H   UNL     1      -7.836   8.205  68.152  1.00  0.00     0.000 HD 
HETATM   15  C   UNL     1      -9.199   8.448  66.631  1.00  0.00    -0.180 C  
HETATM   16  O   UNL     1     -10.222   9.010  66.238  1.00  0.00    -0.284 OA 
BRANCH  15  17
HETATM   17  C   UNL     1      -8.426   7.471  65.754  1.00  0.00    -0.151 C  
HETATM   18  C   UNL     1      -7.515   7.941  64.866  1.00  0.00    -0.082 C  
BRANCH  17  19
HETATM   19  C   UNL     1      -8.673   6.049  65.890  1.00  0.00    -0.154 A  
HETATM   20  C   UNL     1      -9.065   5.197  64.875  1.00  0.00    -0.035 A  
HETATM   21  H2  UNL     1      -8.680   2.304  67.901  1.00  0.00     0.000 HD 
HETATM   22  S   UNL     1      -9.173   3.593  65.471  1.00  0.00    -0.161 SA 
HETATM   23  H1  UNL     1      -8.214   3.626  68.963  1.00  0.00     0.000 HD 
HETATM   24  N   UNL     1      -8.470   5.432  67.115  1.00  0.00    -0.107 NA 
HETATM   25  N   UNL     1      -8.509   3.299  68.043  1.00  0.00    -0.083 NA 
HETATM   26  C   UNL     1      -8.677   4.142  67.017  1.00  0.00    -0.110 A  
ENDBRANCH  17  19
BRANCH  18  27
HETATM   27  C   UNL     1      -6.972   9.327  64.630  1.00  0.00    -0.092 C  
HETATM   28  O   UNL     1      -7.089  10.232  62.389  1.00  0.00    -0.130 OA 
HETATM   29  C   UNL     1      -7.602  10.112  63.493  1.00  0.00    -0.138 C  
HETATM   30  O   UNL     1      -8.777  10.697  63.805  1.00  0.00    -0.180 OA 
ENDBRANCH  18  27
ENDBRANCH  15  17
ENDBRANCH  11  13
TORSDOF 4
ENDMDL
MODEL      154
REMARK 921   NORMALIZED FREE ENERGY PREDICTED BY IDOCK:   -4.56 KCAL/MOL
REMARK 922        TOTAL FREE ENERGY PREDICTED BY IDOCK:   -6.18 KCAL/MOL
REMARK 923 INTER-LIGAND FREE ENERGY PREDICTED BY IDOCK:   -6.66 KCAL/MOL
REMARK 924 INTRA-LIGAND FREE ENERGY PREDICTED BY IDOCK:    0.48 KCAL/MOL
REMARK 927      BINDING AFFINITY PREDICTED BY RF-SCORE:    0.00 PKD
ROOT
HETATM    1  CE  UNL     1     -10.787   7.341  69.870  1.00  0.00    -0.247 C  
HETATM    2  SD  UNL     1     -10.334   7.400  68.117  1.00  0.00    -0.187 SA 
HETATM    3  CG  UNL     1      -9.012   6.167  68.275  1.00  0.00    -0.114 C  
HETATM    4  CB  UNL     1      -8.114   6.428  69.447  1.00  0.00    -0.118 C  
HETATM    5  CA  UNL     1      -8.395   7.180  70.532  1.00  0.00    -0.131 C  
HETATM    6  N   UNL     1      -9.633   7.729  70.665  1.00  0.00    -0.167 N  
HETATM    7  C   UNL     1      -7.264   7.392  71.497  1.00  0.00    -0.071 C  
HETATM    8  C   UNL     1     -10.253   8.673  71.395  1.00  0.00    -0.254 C  
HETATM    9  OXT UNL     1      -6.155   6.895  71.336  1.00  0.00    -0.036 OA 
HETATM   10  O   UNL     1      -7.527   8.136  72.589  1.00  0.00    -0.109 OA 
HETATM   11  CA  UNL     1     -11.531   8.579  70.474  1.00  0.00    -0.182 C  
HETATM   12  O   UNL     1      -9.830   9.332  72.318  1.00  0.00    -0.030 OA 
ENDROOT
BRANCH  11  13
HETATM   13  N   UNL     1     -11.749   9.770  69.609  1.00  0.00    -0.451 N  
HETATM   14  H   UNL     1     -12.662   9.877  69.166  1.00  0.00     0.000 HD 
HETATM   15  C   UNL     1     -10.802  10.733  69.368  1.00  0.00    -0.244 C  
HETATM   16  O   UNL     1      -9.646  10.613  69.774  1.00  0.00    -0.052 OA 
BRANCH  15  17
HETATM   17  C   UNL     1     -11.279  11.989  68.648  1.00  0.00    -0.309 C  
HETATM   18  C   UNL     1     -11.838  13.000  69.358  1.00  0.00    -0.380 C  
BRANCH  17  19
HETATM   19  C   UNL     1     -11.119  12.085  67.211  1.00  0.00    -0.285 A  
HETATM   20  C   UNL     1     -10.054  11.590  66.482  1.00  0.00    -0.213 A  
HETATM   21  H2  UNL     1     -12.345  12.967  63.237  1.00  0.00     0.000 HD 
HETATM   22  S   UNL     1     -10.314  11.868  64.810  1.00  0.00    -0.293 SA 
HETATM   23  H1  UNL     1     -13.525  13.498  64.428  1.00  0.00     0.000 HD 
HETATM   24  N   UNL     1     -12.115  12.677  66.448  1.00  0.00    -0.565 NA 
HETATM   25  N   UNL     1     -12.630  13.060  64.212  1.00  0.00    -0.662 NA 
HETATM   26  C   UNL     1     -11.818  12.604  65.174  1.00  0.00    -0.396 A  
ENDBRANCH  17  19
BRANCH  18  27
HETATM   27  C   UNL     1     -11.988  13.214  70.843  1.00  0.00    -0.047 C  
HETATM   28  O   UNL     1     -11.558  15.426  71.725  1.00  0.00    -0.363 OA 
HETATM   29  C   UNL     1     -12.364  14.617  71.285  1.00  0.00    -0.341 C  
HETATM   30  O   UNL     1     -13.679  14.900  71.179  1.00  0.00    -0.407 OA 
ENDBRANCH  18  27
ENDBRANCH  15  17
ENDBRANCH  11  13
TORSDOF 4
ENDMDL
MODEL      155
REMARK 921   NORMALIZED FREE ENERGY PREDICTED BY IDOCK:   -4.53 KCAL/MOL
REMARK 922        TOTAL FREE ENERGY PREDICTED BY IDOCK:   -6.14 KCAL/MOL
REMARK 923 INTER-LIGAND FREE ENERGY PREDICTED BY IDOCK:   -5.04 KCAL/MOL
REMARK 924 INTRA-LIGAND FREE ENERGY PREDICTED BY IDOCK:   -1.10 KCAL/MOL
REMARK 927      BINDING AFFINITY PREDICTED BY RF-SCORE:    0.00 PKD
ROOT
HETATM    1  CE  UNL     1      -8.584   5.182  69.983  1.00  0.00    -0.100 C  
HETATM    2  SD  UNL     1      -7.060   6.135  70.206  1.00  0.00    -0.076 SA 
HETATM    3  CG  UNL     1      -6.872   5.687  71.954  1.00  0.00    -0.067 C  
HETATM    4  CB  UNL     1      -8.147   5.832  72.730  1.00  0.00    -0.108 C  
HETATM    5  CA  UNL     1      -9.400   5.871  72.230  1.00  0.00    -0.144 C  
HETATM    6  N   UNL     1      -9.594   5.695  70.894  1.00  0.00    -0.165 N  
HETATM    7  C   UNL     1     -10.494   6.165  73.216  1.00  0.00    -0.243 C  
HETATM    8  C   UNL     1     -10.560   5.875  69.976  1.00  0.00    -0.295 C  
HETATM    9  OXT UNL     1     -10.279   6.335  74.411  1.00  0.00    -0.319 OA 
HETATM   10  O   UNL     1     -11.752   6.203  72.736  1.00  0.00    -0.196 OA 
HETATM   11  CA  UNL     1      -9.536   5.591  68.810  1.00  0.00    -0.129 C  
HETATM   12  O   UNL     1     -11.710   6.223  70.127  1.00  0.00    -0.398 OA 
ENDROOT
BRANCH  11  13
HETATM   13  N   UNL     1      -9.189   6.787  67.996  1.00  0.00    -0.118 N  
HETATM   14  H   UNL     1      -8.512   7.446  68.380  1.00  0.00     0.000 HD 
HETATM   15  C   UNL     1      -9.721   7.061  66.761  1.00  0.00    -0.184 C  
HETATM   16  O   UNL     1     -10.626   6.375  66.285  1.00  0.00    -0.001 OA 
BRANCH  15  17
HETATM   17  C   UNL     1      -9.079   8.204  65.983  1.00  0.00    -0.218 C  
HETATM   18  C   UNL     1      -7.958   7.973  65.254  1.00  0.00    -0.124 C  
BRANCH  17  19
HETATM   19  C   UNL     1      -9.683   9.520  66.029  1.00  0.00    -0.272 A  
HETATM   20  C   UNL     1      -9.705  10.435  64.993  1.00  0.00    -0.300 A  
HETATM   21  H2  UNL     1     -12.014  12.644  67.725  1.00  0.00     0.000 HD 
HETATM   22  S   UNL     1     -10.584  11.829  65.468  1.00  0.00    -0.285 SA 
HETATM   23  H1  UNL     1     -11.797  11.299  68.838  1.00  0.00     0.000 HD 
HETATM   24  N   UNL     1     -10.348   9.929  67.175  1.00  0.00    -0.231 NA 
HETATM   25  N   UNL     1     -11.620  11.726  67.929  1.00  0.00    -0.426 NA 
HETATM   26  C   UNL     1     -10.882  11.112  66.995  1.00  0.00    -0.284 A  
ENDBRANCH  17  19
BRANCH  18  27
HETATM   27  C   UNL     1      -7.225   6.698  64.925  1.00  0.00    -0.074 C  
HETATM   28  O   UNL     1      -8.453   4.928  63.822  1.00  0.00    -0.125 OA 
HETATM   29  C   UNL     1      -7.738   5.917  63.728  1.00  0.00    -0.099 C  
HETATM   30  O   UNL     1      -7.318   6.388  62.536  1.00  0.00    -0.050 OA 
ENDBRANCH  18  27
ENDBRANCH  15  17
ENDBRANCH  11  13
TORSDOF 4
ENDMDL
MODEL      156
REMARK 921   NORMALIZED FREE ENERGY PREDICTED BY IDOCK:   -4.46 KCAL/MOL
REMARK 922        TOTAL FREE ENERGY PREDICTED BY IDOCK:   -6.05 KCAL/MOL
REMARK 923 INTER-LIGAND FREE ENERGY PREDICTED BY IDOCK:   -5.43 KCAL/MOL
REMARK 924 INTRA-LIGAND FREE ENERGY PREDICTED BY IDOCK:   -0.62 KCAL/MOL
REMARK 927      BINDING AFFINITY PREDICTED BY RF-SCORE:    0.00 PKD
ROOT
HETATM    1  CE  UNL     1     -10.305   8.682  71.507  1.00  0.00    -0.271 C  
HETATM    2  SD  UNL     1     -11.529   7.569  70.771  1.00  0.00    -0.268 SA 
HETATM    3  CG  UNL     1     -11.843   6.669  72.314  1.00  0.00    -0.252 C  
HETATM    4  CB  UNL     1     -10.581   6.278  73.023  1.00  0.00    -0.263 C  
HETATM    5  CA  UNL     1      -9.357   6.822  72.859  1.00  0.00    -0.135 C  
HETATM    6  N   UNL     1      -9.204   7.888  72.027  1.00  0.00    -0.143 N  
HETATM    7  C   UNL     1      -8.233   6.148  73.592  1.00  0.00    -0.114 C  
HETATM    8  C   UNL     1      -8.217   8.561  71.411  1.00  0.00    -0.147 C  
HETATM    9  OXT UNL     1      -8.407   5.177  74.321  1.00  0.00    -0.105 OA 
HETATM   10  O   UNL     1      -7.005   6.680  73.445  1.00  0.00    -0.076 OA 
HETATM   11  CA  UNL     1      -9.269   9.363  70.551  1.00  0.00    -0.259 C  
HETATM   12  O   UNL     1      -7.017   8.426  71.505  1.00  0.00    -0.062 OA 
ENDROOT
BRANCH  11  13
HETATM   13  N   UNL     1      -9.285   8.999  69.109  1.00  0.00    -0.143 N  
HETATM   14  H   UNL     1      -8.578   8.346  68.774  1.00  0.00     0.000 HD 
HETATM   15  C   UNL     1     -10.191   9.486  68.200  1.00  0.00    -0.193 C  
HETATM   16  O   UNL     1     -10.999  10.363  68.506  1.00  0.00    -0.223 OA 
BRANCH  15  17
HETATM   17  C   UNL     1     -10.195   8.827  66.826  1.00  0.00    -0.354 C  
HETATM   18  C   UNL     1     -10.413   7.492  66.722  1.00  0.00    -0.319 C  
BRANCH  17  19
HETATM   19  C   UNL     1      -9.972   9.642  65.649  1.00  0.00    -0.251 A  
HETATM   20  C   UNL     1     -10.743  10.720  65.256  1.00  0.00    -0.083 A  
HETATM   21  H2  UNL     1      -7.826  11.005  62.241  1.00  0.00     0.000 HD 
HETATM   22  S   UNL     1     -10.075  11.429  63.844  1.00  0.00    -0.384 SA 
HETATM   23  H1  UNL     1      -7.073   9.598  62.981  1.00  0.00     0.000 HD 
HETATM   24  N   UNL     1      -8.878   9.389  64.836  1.00  0.00    -0.193 NA 
HETATM   25  N   UNL     1      -7.825  10.286  62.965  1.00  0.00    -0.149 NA 
HETATM   26  C   UNL     1      -8.811  10.272  63.870  1.00  0.00    -0.220 A  
ENDBRANCH  17  19
BRANCH  18  27
HETATM   27  C   UNL     1     -10.806   6.461  67.748  1.00  0.00    -0.418 C  
HETATM   28  O   UNL     1      -9.599   4.364  67.778  1.00  0.00    -0.156 OA 
HETATM   29  C   UNL     1      -9.712   5.508  68.197  1.00  0.00    -0.132 C  
HETATM   30  O   UNL     1      -8.878   6.018  69.126  1.00  0.00    -0.118 OA 
ENDBRANCH  18  27
ENDBRANCH  15  17
ENDBRANCH  11  13
TORSDOF 4
ENDMDL
MODEL      157
REMARK 921   NORMALIZED FREE ENERGY PREDICTED BY IDOCK:   -4.45 KCAL/MOL
REMARK 922        TOTAL FREE ENERGY PREDICTED BY IDOCK:   -6.04 KCAL/MOL
REMARK 923 INTER-LIGAND FREE ENERGY PREDICTED BY IDOCK:   -5.12 KCAL/MOL
REMARK 924 INTRA-LIGAND FREE ENERGY PREDICTED BY IDOCK:   -0.92 KCAL/MOL
REMARK 927      BINDING AFFINITY PREDICTED BY RF-SCORE:    0.00 PKD
ROOT
HETATM    1  CE  UNL     1     -11.766  14.193  68.146  1.00  0.00    -0.355 C  
HETATM    2  SD  UNL     1     -12.003  13.588  69.837  1.00  0.00    -0.329 SA 
HETATM    3  CG  UNL     1     -12.517  15.201  70.489  1.00  0.00    -0.379 C  
HETATM    4  CB  UNL     1     -11.616  16.317  70.049  1.00  0.00    -0.143 C  
HETATM    5  CA  UNL     1     -10.777  16.313  68.992  1.00  0.00    -0.300 C  
HETATM    6  N   UNL     1     -10.753  15.236  68.160  1.00  0.00    -0.251 N  
HETATM    7  C   UNL     1      -9.883  17.510  68.857  1.00  0.00    -0.289 C  
HETATM    8  C   UNL     1      -9.977  14.716  67.194  1.00  0.00    -0.240 C  
HETATM    9  OXT UNL     1      -9.920  18.456  69.637  1.00  0.00     0.078 OA 
HETATM   10  O   UNL     1      -9.042  17.527  67.804  1.00  0.00    -0.243 OA 
HETATM   11  CA  UNL     1     -10.814  13.379  67.207  1.00  0.00    -0.269 C  
HETATM   12  O   UNL     1      -8.982  15.174  66.676  1.00  0.00    -0.251 OA 
ENDROOT
BRANCH  11  13
HETATM   13  N   UNL     1     -10.089  12.209  67.769  1.00  0.00    -0.195 N  
HETATM   14  H   UNL     1      -9.153  12.362  68.143  1.00  0.00     0.000 HD 
HETATM   15  C   UNL     1     -10.598  10.935  67.818  1.00  0.00    -0.217 C  
HETATM   16  O   UNL     1     -11.671  10.652  67.284  1.00  0.00    -0.317 OA 
BRANCH  15  17
HETATM   17  C   UNL     1      -9.808   9.918  68.633  1.00  0.00    -0.168 C  
HETATM   18  C   UNL     1     -10.104   9.733  69.944  1.00  0.00    -0.288 C  
BRANCH  17  19
HETATM   19  C   UNL     1      -8.755   9.159  67.990  1.00  0.00    -0.129 A  
HETATM   20  C   UNL     1      -8.886   8.421  66.828  1.00  0.00    -0.138 A  
HETATM   21  H2  UNL     1      -4.760   7.838  67.385  1.00  0.00     0.000 HD 
HETATM   22  S   UNL     1      -7.371   7.745  66.395  1.00  0.00    -0.080 SA 
HETATM   23  H1  UNL     1      -4.921   8.824  68.832  1.00  0.00     0.000 HD 
HETATM   24  N   UNL     1      -7.474   9.176  68.521  1.00  0.00    -0.081 NA 
HETATM   25  N   UNL     1      -5.346   8.380  68.019  1.00  0.00    -0.034 NA 
HETATM   26  C   UNL     1      -6.656   8.491  67.762  1.00  0.00    -0.062 A  
ENDBRANCH  17  19
BRANCH  18  27
HETATM   27  C   UNL     1     -11.219  10.273  70.803  1.00  0.00    -0.373 C  
HETATM   28  O   UNL     1     -13.496   9.967  70.042  1.00  0.00     0.238 OA 
HETATM   29  C   UNL     1     -12.553   9.554  70.703  1.00  0.00     0.001 C  
HETATM   30  O   UNL     1     -12.630   8.421  71.432  1.00  0.00    -0.307 OA 
ENDBRANCH  18  27
ENDBRANCH  15  17
ENDBRANCH  11  13
TORSDOF 4
ENDMDL
MODEL      158
REMARK 921   NORMALIZED FREE ENERGY PREDICTED BY IDOCK:   -4.41 KCAL/MOL
REMARK 922        TOTAL FREE ENERGY PREDICTED BY IDOCK:   -6.00 KCAL/MOL
REMARK 923 INTER-LIGAND FREE ENERGY PREDICTED BY IDOCK:   -4.88 KCAL/MOL
REMARK 924 INTRA-LIGAND FREE ENERGY PREDICTED BY IDOCK:   -1.12 KCAL/MOL
REMARK 927      BINDING AFFINITY PREDICTED BY RF-SCORE:    0.00 PKD
ROOT
HETATM    1  CE  UNL     1      -8.683   9.959  67.130  1.00  0.00    -0.131 C  
HETATM    2  SD  UNL     1     -10.384   9.739  66.547  1.00  0.00    -0.152 SA 
HETATM    3  CG  UNL     1     -10.248  10.996  65.246  1.00  0.00    -0.284 C  
HETATM    4  CB  UNL     1      -9.621  12.268  65.734  1.00  0.00    -0.185 C  
HETATM    5  CA  UNL     1      -8.851  12.423  66.831  1.00  0.00    -0.205 C  
HETATM    6  N   UNL     1      -8.516  11.333  67.575  1.00  0.00    -0.129 N  
HETATM    7  C   UNL     1      -8.465  13.834  67.171  1.00  0.00    -0.175 C  
HETATM    8  C   UNL     1      -8.010  11.048  68.787  1.00  0.00    -0.144 C  
HETATM    9  OXT UNL     1      -8.799  14.794  66.486  1.00  0.00    -0.253 OA 
HETATM   10  O   UNL     1      -7.692  14.008  68.260  1.00  0.00    -0.121 OA 
HETATM   11  CA  UNL     1      -8.351   9.519  68.595  1.00  0.00    -0.117 C  
HETATM   12  O   UNL     1      -7.584  11.795  69.639  1.00  0.00     0.276 OA 
ENDROOT
BRANCH  11  13
HETATM   13  N   UNL     1      -9.458   9.026  69.458  1.00  0.00    -0.161 N  
HETATM   14  H   UNL     1     -10.326   8.743  69.006  1.00  0.00     0.000 HD 
HETATM   15  C   UNL     1      -9.385   8.927  70.825  1.00  0.00    -0.230 C  
HETATM   16  O   UNL     1      -8.414   9.355  71.449  1.00  0.00    -0.293 OA 
BRANCH  15  17
HETATM   17  C   UNL     1     -10.526   8.188  71.514  1.00  0.00    -0.276 C  
HETATM   18  C   UNL     1     -11.624   8.875  71.917  1.00  0.00    -0.442 C  
BRANCH  17  19
HETATM   19  C   UNL     1     -10.421   6.758  71.721  1.00  0.00    -0.207 A  
HETATM   20  C   UNL     1     -10.861   6.069  72.835  1.00  0.00    -0.258 A  
HETATM   21  H2  UNL     1      -9.601   2.741  70.596  1.00  0.00     0.000 HD 
HETATM   22  S   UNL     1     -10.595   4.388  72.622  1.00  0.00    -0.124 SA 
HETATM   23  H1  UNL     1      -9.132   3.888  69.348  1.00  0.00     0.000 HD 
HETATM   24  N   UNL     1      -9.881   5.959  70.725  1.00  0.00    -0.179 NA 
HETATM   25  N   UNL     1      -9.523   3.705  70.272  1.00  0.00    -0.176 NA 
HETATM   26  C   UNL     1      -9.938   4.696  71.070  1.00  0.00    -0.200 A  
ENDBRANCH  17  19
BRANCH  18  27
HETATM   27  C   UNL     1     -12.043  10.307  71.700  1.00  0.00    -0.318 C  
HETATM   28  O   UNL     1     -11.349  11.401  69.655  1.00  0.00    -0.265 OA 
HETATM   29  C   UNL     1     -12.195  10.751  70.256  1.00  0.00    -0.348 C  
HETATM   30  O   UNL     1     -13.363  10.393  69.684  1.00  0.00     0.215 OA 
ENDBRANCH  18  27
ENDBRANCH  15  17
ENDBRANCH  11  13
TORSDOF 4
ENDMDL
MODEL      159
REMARK 921   NORMALIZED FREE ENERGY PREDICTED BY IDOCK:   -4.38 KCAL/MOL
REMARK 922        TOTAL FREE ENERGY PREDICTED BY IDOCK:   -5.96 KCAL/MOL
REMARK 923 INTER-LIGAND FREE ENERGY PREDICTED BY IDOCK:   -5.13 KCAL/MOL
REMARK 924 INTRA-LIGAND FREE ENERGY PREDICTED BY IDOCK:   -0.83 KCAL/MOL
REMARK 927      BINDING AFFINITY PREDICTED BY RF-SCORE:    0.00 PKD
ROOT
HETATM    1  CE  UNL     1     -10.155  10.645  65.033  1.00  0.00    -0.321 C  
HETATM    2  SD  UNL     1     -10.208  11.975  63.805  1.00  0.00    -0.432 SA 
HETATM    3  CG  UNL     1      -9.510  10.961  62.473  1.00  0.00    -0.241 C  
HETATM    4  CB  UNL     1      -8.304  10.183  62.908  1.00  0.00    -0.169 C  
HETATM    5  CA  UNL     1      -7.952   9.874  64.173  1.00  0.00    -0.150 C  
HETATM    6  N   UNL     1      -8.775  10.218  65.201  1.00  0.00    -0.166 N  
HETATM    7  C   UNL     1      -6.618   9.206  64.341  1.00  0.00    -0.080 C  
HETATM    8  C   UNL     1      -8.738  10.325  66.540  1.00  0.00    -0.131 C  
HETATM    9  OXT UNL     1      -5.893   8.927  63.392  1.00  0.00    -0.076 OA 
HETATM   10  O   UNL     1      -6.251   8.885  65.597  1.00  0.00    -0.052 OA 
HETATM   11  CA  UNL     1     -10.140  11.047  66.545  1.00  0.00    -0.226 C  
HETATM   12  O   UNL     1      -7.852  10.029  67.311  1.00  0.00    -0.101 OA 
ENDROOT
BRANCH  11  13
HETATM   13  N   UNL     1     -10.083  12.492  66.897  1.00  0.00    -0.222 N  
HETATM   14  H   UNL     1     -10.197  13.171  66.145  1.00  0.00     0.000 HD 
HETATM   15  C   UNL     1      -9.886  12.970  68.168  1.00  0.00    -0.228 C  
HETATM   16  O   UNL     1      -9.626  12.214  69.105  1.00  0.00     0.202 OA 
BRANCH  15  17
HETATM   17  C   UNL     1     -10.086  14.467  68.370  1.00  0.00    -0.241 C  
HETATM   18  C   UNL     1     -11.276  14.931  68.825  1.00  0.00    -0.288 C  
BRANCH  17  19
HETATM   19  C   UNL     1      -8.993  15.373  68.077  1.00  0.00    -0.171 A  
HETATM   20  C   UNL     1      -8.923  16.232  66.997  1.00  0.00    -0.206 A  
HETATM   21  H2  UNL     1      -5.356  17.424  68.876  1.00  0.00     0.000 HD 
HETATM   22  S   UNL     1      -7.485  17.163  67.087  1.00  0.00    -0.183 SA 
HETATM   23  H1  UNL     1      -5.725  16.225  70.108  1.00  0.00     0.000 HD 
HETATM   24  N   UNL     1      -7.919  15.456  68.951  1.00  0.00    -0.161 NA 
HETATM   25  N   UNL     1      -5.969  16.693  69.237  1.00  0.00    -0.161 NA 
HETATM   26  C   UNL     1      -7.075  16.375  68.552  1.00  0.00    -0.157 A  
ENDBRANCH  17  19
BRANCH  18  27
HETATM   27  C   UNL     1     -12.501  14.212  69.331  1.00  0.00    -0.114 C  
HETATM   28  O   UNL     1     -12.187  12.362  70.860  1.00  0.00    -0.355 OA 
HETATM   29  C   UNL     1     -12.380  13.560  70.697  1.00  0.00    -0.358 C  
HETATM   30  O   UNL     1     -12.531  14.409  71.734  1.00  0.00    -0.338 OA 
ENDBRANCH  18  27
ENDBRANCH  15  17
ENDBRANCH  11  13
TORSDOF 4
ENDMDL
MODEL      160
REMARK 921   NORMALIZED FREE ENERGY PREDICTED BY IDOCK:   -4.37 KCAL/MOL
REMARK 922        TOTAL FREE ENERGY PREDICTED BY IDOCK:   -5.95 KCAL/MOL
REMARK 923 INTER-LIGAND FREE ENERGY PREDICTED BY IDOCK:   -4.99 KCAL/MOL
REMARK 924 INTRA-LIGAND FREE ENERGY PREDICTED BY IDOCK:   -0.96 KCAL/MOL
REMARK 927      BINDING AFFINITY PREDICTED BY RF-SCORE:    0.00 PKD
ROOT
HETATM    1  CE  UNL     1      -8.733   5.481  69.981  1.00  0.00    -0.128 C  
HETATM    2  SD  UNL     1      -7.204   6.422  70.222  1.00  0.00    -0.082 SA 
HETATM    3  CG  UNL     1      -7.025   5.949  71.964  1.00  0.00    -0.078 C  
HETATM    4  CB  UNL     1      -8.302   6.092  72.737  1.00  0.00    -0.118 C  
HETATM    5  CA  UNL     1      -9.552   6.145  72.234  1.00  0.00    -0.152 C  
HETATM    6  N   UNL     1      -9.743   5.989  70.895  1.00  0.00    -0.172 N  
HETATM    7  C   UNL     1     -10.648   6.434  73.219  1.00  0.00    -0.268 C  
HETATM    8  C   UNL     1     -10.704   6.187  69.976  1.00  0.00    -0.305 C  
HETATM    9  OXT UNL     1     -10.436   6.586  74.418  1.00  0.00    -0.313 OA 
HETATM   10  O   UNL     1     -11.904   6.486  72.736  1.00  0.00    -0.093 OA 
HETATM   11  CA  UNL     1      -9.678   5.912  68.810  1.00  0.00    -0.131 C  
HETATM   12  O   UNL     1     -11.852   6.541  70.128  1.00  0.00    -0.416 OA 
ENDROOT
BRANCH  11  13
HETATM   13  N   UNL     1      -9.320   7.117  68.013  1.00  0.00    -0.130 N  
HETATM   14  H   UNL     1      -8.443   7.589  68.230  1.00  0.00     0.000 HD 
HETATM   15  C   UNL     1     -10.095   7.633  67.004  1.00  0.00    -0.268 C  
HETATM   16  O   UNL     1     -11.216   7.185  66.764  1.00  0.00    -0.158 OA 
BRANCH  15  17
HETATM   17  C   UNL     1      -9.461   8.727  66.153  1.00  0.00    -0.315 C  
HETATM   18  C   UNL     1      -9.893  10.006  66.273  1.00  0.00    -0.297 C  
BRANCH  17  19
HETATM   19  C   UNL     1      -8.397   8.380  65.233  1.00  0.00    -0.160 A  
HETATM   20  C   UNL     1      -8.064   7.101  64.828  1.00  0.00    -0.092 A  
HETATM   21  H2  UNL     1      -5.324   9.173  62.404  1.00  0.00     0.000 HD 
HETATM   22  S   UNL     1      -6.789   7.167  63.682  1.00  0.00    -0.054 SA 
HETATM   23  H1  UNL     1      -5.964  10.647  63.119  1.00  0.00     0.000 HD 
HETATM   24  N   UNL     1      -7.646   9.386  64.643  1.00  0.00    -0.105 NA 
HETATM   25  N   UNL     1      -5.965   9.630  63.053  1.00  0.00    -0.099 NA 
HETATM   26  C   UNL     1      -6.787   8.877  63.794  1.00  0.00    -0.088 A  
ENDBRANCH  17  19
BRANCH  18  27
HETATM   27  C   UNL     1     -10.860  10.649  67.235  1.00  0.00    -0.345 C  
HETATM   28  O   UNL     1     -10.383  10.498  69.603  1.00  0.00    -0.231 OA 
HETATM   29  C   UNL     1     -10.280  11.123  68.556  1.00  0.00    -0.198 C  
HETATM   30  O   UNL     1      -9.654  12.316  68.491  1.00  0.00    -0.197 OA 
ENDBRANCH  18  27
ENDBRANCH  15  17
ENDBRANCH  11  13
TORSDOF 4
ENDMDL
MODEL      161
REMARK 921   NORMALIZED FREE ENERGY PREDICTED BY IDOCK:   -4.35 KCAL/MOL
REMARK 922        TOTAL FREE ENERGY PREDICTED BY IDOCK:   -5.92 KCAL/MOL
REMARK 923 INTER-LIGAND FREE ENERGY PREDICTED BY IDOCK:   -5.45 KCAL/MOL
REMARK 924 INTRA-LIGAND FREE ENERGY PREDICTED BY IDOCK:   -0.47 KCAL/MOL
REMARK 927      BINDING AFFINITY PREDICTED BY RF-SCORE:    0.00 PKD
ROOT
HETATM    1  CE  UNL     1      -8.315   6.759  69.486  1.00  0.00    -0.132 C  
HETATM    2  SD  UNL     1      -7.051   7.855  70.180  1.00  0.00    -0.050 SA 
HETATM    3  CG  UNL     1      -6.667   6.757  71.573  1.00  0.00    -0.061 C  
HETATM    4  CB  UNL     1      -7.896   6.248  72.265  1.00  0.00    -0.104 C  
HETATM    5  CA  UNL     1      -9.148   6.200  71.763  1.00  0.00    -0.144 C  
HETATM    6  N   UNL     1      -9.367   6.575  70.473  1.00  0.00    -0.162 N  
HETATM    7  C   UNL     1     -10.225   5.774  72.718  1.00  0.00    -0.185 C  
HETATM    8  C   UNL     1     -10.396   6.898  69.671  1.00  0.00    -0.206 C  
HETATM    9  OXT UNL     1      -9.991   5.459  73.880  1.00  0.00    -0.164 OA 
HETATM   10  O   UNL     1     -11.480   5.715  72.234  1.00  0.00    -0.274 OA 
HETATM   11  CA  UNL     1      -9.399   7.395  68.553  1.00  0.00    -0.141 C  
HETATM   12  O   UNL     1     -11.586   6.864  69.893  1.00  0.00    -0.272 OA 
ENDROOT
BRANCH  11  13
HETATM   13  N   UNL     1      -9.390   8.869  68.352  1.00  0.00    -0.136 N  
HETATM   14  H   UNL     1      -9.122   9.456  69.142  1.00  0.00     0.000 HD 
HETATM   15  C   UNL     1      -9.719   9.489  67.173  1.00  0.00    -0.171 C  
HETATM   16  O   UNL     1     -10.160   8.855  66.215  1.00  0.00    -0.293 OA 
BRANCH  15  17
HETATM   17  C   UNL     1      -9.431  10.984  67.089  1.00  0.00    -0.181 C  
HETATM   18  C   UNL     1      -8.194  11.448  67.396  1.00  0.00    -0.145 C  
BRANCH  17  19
HETATM   19  C   UNL     1     -10.486  11.886  66.674  1.00  0.00    -0.216 A  
HETATM   20  C   UNL     1     -10.702  13.158  67.169  1.00  0.00    -0.255 A  
HETATM   21  H2  UNL     1     -13.720  13.189  64.242  1.00  0.00     0.000 HD 
HETATM   22  S   UNL     1     -12.016  13.888  66.343  1.00  0.00    -0.454 SA 
HETATM   23  H1  UNL     1     -13.208  11.554  63.844  1.00  0.00     0.000 HD 
HETATM   24  N   UNL     1     -11.354  11.505  65.662  1.00  0.00    -0.159 NA 
HETATM   25  N   UNL     1     -13.106  12.393  64.414  1.00  0.00    -0.811 NA 
HETATM   26  C   UNL     1     -12.187  12.478  65.384  1.00  0.00    -0.412 A  
ENDBRANCH  17  19
BRANCH  18  27
HETATM   27  C   UNL     1      -6.906  10.729  67.709  1.00  0.00    -0.073 C  
HETATM   28  O   UNL     1      -6.362   8.753  66.423  1.00  0.00    -0.059 OA 
HETATM   29  C   UNL     1      -6.267   9.965  66.563  1.00  0.00    -0.069 C  
HETATM   30  O   UNL     1      -5.555  10.732  65.712  1.00  0.00    -0.118 OA 
ENDBRANCH  18  27
ENDBRANCH  15  17
ENDBRANCH  11  13
TORSDOF 4
ENDMDL
MODEL      162
REMARK 921   NORMALIZED FREE ENERGY PREDICTED BY IDOCK:   -4.30 KCAL/MOL
REMARK 922        TOTAL FREE ENERGY PREDICTED BY IDOCK:   -5.86 KCAL/MOL
REMARK 923 INTER-LIGAND FREE ENERGY PREDICTED BY IDOCK:   -4.54 KCAL/MOL
REMARK 924 INTRA-LIGAND FREE ENERGY PREDICTED BY IDOCK:   -1.32 KCAL/MOL
REMARK 927      BINDING AFFINITY PREDICTED BY RF-SCORE:    0.00 PKD
ROOT
HETATM    1  CE  UNL     1     -10.680   6.189  68.921  1.00  0.00    -0.312 C  
HETATM    2  SD  UNL     1      -9.203   5.142  68.882  1.00  0.00    -0.125 SA 
HETATM    3  CG  UNL     1      -9.731   4.108  70.275  1.00  0.00    -0.207 C  
HETATM    4  CB  UNL     1     -10.234   4.913  71.436  1.00  0.00    -0.257 C  
HETATM    5  CA  UNL     1     -10.672   6.189  71.408  1.00  0.00    -0.255 C  
HETATM    6  N   UNL     1     -10.756   6.843  70.218  1.00  0.00    -0.231 N  
HETATM    7  C   UNL     1     -10.989   6.806  72.740  1.00  0.00    -0.270 C  
HETATM    8  C   UNL     1     -10.896   8.097  69.756  1.00  0.00    -0.190 C  
HETATM    9  OXT UNL     1     -10.886   6.190  73.796  1.00  0.00    -0.220 OA 
HETATM   10  O   UNL     1     -11.434   8.077  72.732  1.00  0.00    -0.402 OA 
HETATM   11  CA  UNL     1     -10.579   7.617  68.286  1.00  0.00    -0.124 C  
HETATM   12  O   UNL     1     -11.091   9.125  70.366  1.00  0.00    -0.241 OA 
ENDROOT
BRANCH  11  13
HETATM   13  N   UNL     1      -9.262   8.073  67.765  1.00  0.00    -0.134 N  
HETATM   14  H   UNL     1      -8.423   7.767  68.256  1.00  0.00     0.000 HD 
HETATM   15  C   UNL     1      -9.105   8.880  66.666  1.00  0.00    -0.156 C  
HETATM   16  O   UNL     1     -10.073   9.380  66.093  1.00  0.00    -0.292 OA 
BRANCH  15  17
HETATM   17  C   UNL     1      -7.681   9.052  66.149  1.00  0.00    -0.099 C  
HETATM   18  C   UNL     1      -7.258   8.319  65.089  1.00  0.00    -0.079 C  
BRANCH  17  19
HETATM   19  C   UNL     1      -6.804  10.007  66.796  1.00  0.00    -0.081 A  
HETATM   20  C   UNL     1      -5.903  10.838  66.157  1.00  0.00    -0.133 A  
HETATM   21  H2  UNL     1      -5.295  12.270  70.063  1.00  0.00     0.000 HD 
HETATM   22  S   UNL     1      -5.127  11.846  67.307  1.00  0.00    -0.101 SA 
HETATM   23  H1  UNL     1      -6.493  11.087  70.573  1.00  0.00     0.000 HD 
HETATM   24  N   UNL     1      -6.866  10.171  68.172  1.00  0.00    -0.066 NA 
HETATM   25  N   UNL     1      -5.943  11.518  69.830  1.00  0.00    -0.101 NA 
HETATM   26  C   UNL     1      -6.050  11.122  68.555  1.00  0.00    -0.042 A  
ENDBRANCH  17  19
BRANCH  18  27
HETATM   27  C   UNL     1      -7.994   7.385  64.163  1.00  0.00    -0.092 C  
HETATM   28  O   UNL     1      -7.366   5.048  64.165  1.00  0.00    -0.053 OA 
HETATM   29  C   UNL     1      -8.086   5.935  64.604  1.00  0.00    -0.132 C  
HETATM   30  O   UNL     1      -9.054   5.690  65.511  1.00  0.00    -0.144 OA 
ENDBRANCH  18  27
ENDBRANCH  15  17
ENDBRANCH  11  13
TORSDOF 4
ENDMDL
MODEL      163
REMARK 921   NORMALIZED FREE ENERGY PREDICTED BY IDOCK:   -4.30 KCAL/MOL
REMARK 922        TOTAL FREE ENERGY PREDICTED BY IDOCK:   -5.86 KCAL/MOL
REMARK 923 INTER-LIGAND FREE ENERGY PREDICTED BY IDOCK:   -5.36 KCAL/MOL
REMARK 924 INTRA-LIGAND FREE ENERGY PREDICTED BY IDOCK:   -0.50 KCAL/MOL
REMARK 927      BINDING AFFINITY PREDICTED BY RF-SCORE:    0.00 PKD
ROOT
HETATM    1  CE  UNL     1      -9.878   9.054  65.994  1.00  0.00    -0.242 C  
HETATM    2  SD  UNL     1      -8.162   8.656  65.571  1.00  0.00    -0.143 SA 
HETATM    3  CG  UNL     1      -8.421   6.861  65.620  1.00  0.00    -0.136 C  
HETATM    4  CB  UNL     1      -9.174   6.417  66.838  1.00  0.00    -0.144 C  
HETATM    5  CA  UNL     1      -9.958   7.180  67.629  1.00  0.00    -0.158 C  
HETATM    6  N   UNL     1     -10.183   8.480  67.295  1.00  0.00    -0.250 N  
HETATM    7  C   UNL     1     -10.485   6.518  68.869  1.00  0.00    -0.215 C  
HETATM    8  C   UNL     1     -10.660   9.604  67.857  1.00  0.00    -0.255 C  
HETATM    9  OXT UNL     1     -10.247   5.347  69.146  1.00  0.00    -0.202 OA 
HETATM   10  O   UNL     1     -11.274   7.262  69.668  1.00  0.00    -0.193 OA 
HETATM   11  CA  UNL     1     -10.167  10.457  66.624  1.00  0.00    -0.234 C  
HETATM   12  O   UNL     1     -11.162   9.767  68.947  1.00  0.00    -0.151 OA 
ENDROOT
BRANCH  11  13
HETATM   13  N   UNL     1      -9.019  11.355  66.922  1.00  0.00    -0.165 N  
HETATM   14  H   UNL     1      -8.113  11.123  66.514  1.00  0.00     0.000 HD 
HETATM   15  C   UNL     1      -9.099  12.475  67.711  1.00  0.00    -0.191 C  
HETATM   16  O   UNL     1     -10.127  12.753  68.328  1.00  0.00    -0.229 OA 
BRANCH  15  17
HETATM   17  C   UNL     1      -7.881  13.391  67.714  1.00  0.00    -0.158 C  
HETATM   18  C   UNL     1      -6.694  12.929  68.180  1.00  0.00    -0.096 C  
BRANCH  17  19
HETATM   19  C   UNL     1      -8.010  14.743  67.210  1.00  0.00    -0.205 A  
HETATM   20  C   UNL     1      -6.987  15.666  67.102  1.00  0.00    -0.134 A  
HETATM   21  H2  UNL     1     -10.016  17.997  65.348  1.00  0.00     0.000 HD 
HETATM   22  S   UNL     1      -7.580  17.111  66.391  1.00  0.00    -0.324 SA 
HETATM   23  H1  UNL     1     -11.087  16.632  65.631  1.00  0.00     0.000 HD 
HETATM   24  N   UNL     1      -9.238  15.185  66.740  1.00  0.00    -0.237 NA 
HETATM   25  N   UNL     1     -10.162  17.054  65.707  1.00  0.00    -0.564 NA 
HETATM   26  C   UNL     1      -9.135  16.402  66.264  1.00  0.00    -0.327 A  
ENDBRANCH  17  19
BRANCH  18  27
HETATM   27  C   UNL     1      -6.259  11.553  68.616  1.00  0.00    -0.052 C  
HETATM   28  O   UNL     1      -6.021  11.130  70.987  1.00  0.00    -0.360 OA 
HETATM   29  C   UNL     1      -6.728  11.103  69.988  1.00  0.00    -0.055 C  
HETATM   30  O   UNL     1      -7.995  10.639  70.019  1.00  0.00     0.063 OA 
ENDBRANCH  18  27
ENDBRANCH  15  17
ENDBRANCH  11  13
TORSDOF 4
ENDMDL
MODEL      164
REMARK 921   NORMALIZED FREE ENERGY PREDICTED BY IDOCK:   -4.26 KCAL/MOL
REMARK 922        TOTAL FREE ENERGY PREDICTED BY IDOCK:   -5.81 KCAL/MOL
REMARK 923 INTER-LIGAND FREE ENERGY PREDICTED BY IDOCK:   -5.88 KCAL/MOL
REMARK 924 INTRA-LIGAND FREE ENERGY PREDICTED BY IDOCK:    0.07 KCAL/MOL
REMARK 927      BINDING AFFINITY PREDICTED BY RF-SCORE:    0.00 PKD
ROOT
HETATM    1  CE  UNL     1      -8.946  15.860  69.348  1.00  0.00    -0.209 C  
HETATM    2  SD  UNL     1      -7.276  15.195  69.564  1.00  0.00    -0.201 SA 
HETATM    3  CG  UNL     1      -6.455  16.788  69.281  1.00  0.00    -0.219 C  
HETATM    4  CB  UNL     1      -6.989  17.508  68.079  1.00  0.00    -0.195 C  
HETATM    5  CA  UNL     1      -8.179  17.306  67.475  1.00  0.00    -0.195 C  
HETATM    6  N   UNL     1      -9.059  16.415  68.009  1.00  0.00    -0.198 N  
HETATM    7  C   UNL     1      -8.409  18.067  66.201  1.00  0.00    -0.123 C  
HETATM    8  C   UNL     1     -10.176  15.756  67.656  1.00  0.00    -0.266 C  
HETATM    9  OXT UNL     1      -7.585  18.850  65.740  1.00  0.00    -0.456 OA 
HETATM   10  O   UNL     1      -9.593  17.882  65.587  1.00  0.00    -0.457 OA 
HETATM   11  CA  UNL     1     -10.084  14.861  68.953  1.00  0.00    -0.236 C  
HETATM   12  O   UNL     1     -10.838  15.849  66.647  1.00  0.00    -0.301 OA 
ENDROOT
BRANCH  11  13
HETATM   13  N   UNL     1      -9.726  13.441  68.691  1.00  0.00    -0.390 N  
HETATM   14  H   UNL     1      -9.181  12.948  69.398  1.00  0.00     0.000 HD 
HETATM   15  C   UNL     1     -10.081  12.751  67.559  1.00  0.00    -0.213 C  
HETATM   16  O   UNL     1     -10.637  13.311  66.614  1.00  0.00    -0.277 OA 
BRANCH  15  17
HETATM   17  C   UNL     1      -9.824  11.249  67.570  1.00  0.00    -0.195 C  
HETATM   18  C   UNL     1     -10.743  10.415  68.116  1.00  0.00    -0.277 C  
BRANCH  17  19
HETATM   19  C   UNL     1      -8.600  10.735  66.987  1.00  0.00    -0.130 A  
HETATM   20  C   UNL     1      -8.362  10.558  65.638  1.00  0.00    -0.167 A  
HETATM   21  H2  UNL     1      -4.550   9.444  67.020  1.00  0.00     0.000 HD 
HETATM   22  S   UNL     1      -6.760   9.993  65.400  1.00  0.00    -0.120 SA 
HETATM   23  H1  UNL     1      -5.160   9.754  68.640  1.00  0.00     0.000 HD 
HETATM   24  N   UNL     1      -7.528  10.422  67.809  1.00  0.00    -0.088 NA 
HETATM   25  N   UNL     1      -5.316   9.724  67.633  1.00  0.00    -0.036 NA 
HETATM   26  C   UNL     1      -6.499  10.043  67.093  1.00  0.00    -0.069 A  
ENDBRANCH  17  19
BRANCH  18  27
HETATM   27  C   UNL     1     -12.131  10.667  68.647  1.00  0.00     0.129 C  
HETATM   28  O   UNL     1     -12.634   9.965  70.908  1.00  0.00    -0.318 OA 
HETATM   29  C   UNL     1     -12.255  10.848  70.149  1.00  0.00    -0.343 C  
HETATM   30  O   UNL     1     -11.935  12.083  70.588  1.00  0.00    -0.331 OA 
ENDBRANCH  18  27
ENDBRANCH  15  17
ENDBRANCH  11  13
TORSDOF 4
ENDMDL
MODEL      165
REMARK 921   NORMALIZED FREE ENERGY PREDICTED BY IDOCK:   -4.24 KCAL/MOL
REMARK 922        TOTAL FREE ENERGY PREDICTED BY IDOCK:   -5.78 KCAL/MOL
REMARK 923 INTER-LIGAND FREE ENERGY PREDICTED BY IDOCK:   -4.91 KCAL/MOL
REMARK 924 INTRA-LIGAND FREE ENERGY PREDICTED BY IDOCK:   -0.87 KCAL/MOL
REMARK 927      BINDING AFFINITY PREDICTED BY RF-SCORE:    0.00 PKD
ROOT
HETATM    1  CE  UNL     1      -8.701  10.017  68.239  1.00  0.00    -0.119 C  
HETATM    2  SD  UNL     1      -8.610   8.770  66.928  1.00  0.00    -0.116 SA 
HETATM    3  CG  UNL     1      -8.816   9.969  65.583  1.00  0.00    -0.160 C  
HETATM    4  CB  UNL     1      -9.937  10.933  65.833  1.00  0.00    -0.294 C  
HETATM    5  CA  UNL     1     -10.499  11.232  67.023  1.00  0.00    -0.234 C  
HETATM    6  N   UNL     1      -9.990  10.684  68.161  1.00  0.00    -0.155 N  
HETATM    7  C   UNL     1     -11.703  12.128  66.977  1.00  0.00    -0.303 C  
HETATM    8  C   UNL     1     -10.337  10.513  69.448  1.00  0.00    -0.234 C  
HETATM    9  OXT UNL     1     -12.144  12.590  65.930  1.00  0.00    -0.537 OA 
HETATM   10  O   UNL     1     -12.274  12.442  68.156  1.00  0.00    -0.314 OA 
HETATM   11  CA  UNL     1      -9.114   9.541  69.672  1.00  0.00    -0.196 C  
HETATM   12  O   UNL     1     -11.305  10.926  70.046  1.00  0.00    -0.288 OA 
ENDROOT
BRANCH  11  13
HETATM   13  N   UNL     1      -9.493   8.116  69.867  1.00  0.00    -0.160 N  
HETATM   14  H   UNL     1     -10.391   7.806  69.497  1.00  0.00     0.000 HD 
HETATM   15  C   UNL     1      -8.711   7.191  70.513  1.00  0.00    -0.149 C  
HETATM   16  O   UNL     1      -7.670   7.517  71.084  1.00  0.00    -0.087 OA 
BRANCH  15  17
HETATM   17  C   UNL     1      -9.158   5.737  70.414  1.00  0.00    -0.160 C  
HETATM   18  C   UNL     1      -8.996   5.062  69.249  1.00  0.00    -0.127 C  
BRANCH  17  19
HETATM   19  C   UNL     1      -9.743   5.096  71.574  1.00  0.00    -0.166 A  
HETATM   20  C   UNL     1     -10.308   5.745  72.656  1.00  0.00    -0.198 A  
HETATM   21  H2  UNL     1     -11.168   1.811  73.866  1.00  0.00     0.000 HD 
HETATM   22  S   UNL     1     -10.936   4.593  73.762  1.00  0.00    -0.256 SA 
HETATM   23  H1  UNL     1     -10.371   1.292  72.387  1.00  0.00     0.000 HD 
HETATM   24  N   UNL     1      -9.808   3.712  71.633  1.00  0.00    -0.172 NA 
HETATM   25  N   UNL     1     -10.671   2.044  73.006  1.00  0.00    -0.147 NA 
HETATM   26  C   UNL     1     -10.431   3.329  72.721  1.00  0.00    -0.127 A  
ENDBRANCH  17  19
BRANCH  18  27
HETATM   27  C   UNL     1      -8.299   5.437  67.966  1.00  0.00    -0.098 C  
HETATM   28  O   UNL     1      -6.047   6.311  68.104  1.00  0.00    -0.024 OA 
HETATM   29  C   UNL     1      -6.784   5.343  67.971  1.00  0.00    -0.055 C  
HETATM   30  O   UNL     1      -6.303   4.095  67.790  1.00  0.00    -0.035 OA 
ENDBRANCH  18  27
ENDBRANCH  15  17
ENDBRANCH  11  13
TORSDOF 4
ENDMDL
MODEL      166
REMARK 921   NORMALIZED FREE ENERGY PREDICTED BY IDOCK:   -4.22 KCAL/MOL
REMARK 922        TOTAL FREE ENERGY PREDICTED BY IDOCK:   -5.76 KCAL/MOL
REMARK 923 INTER-LIGAND FREE ENERGY PREDICTED BY IDOCK:   -4.53 KCAL/MOL
REMARK 924 INTRA-LIGAND FREE ENERGY PREDICTED BY IDOCK:   -1.23 KCAL/MOL
REMARK 927      BINDING AFFINITY PREDICTED BY RF-SCORE:    0.00 PKD
ROOT
HETATM    1  CE  UNL     1      -9.157  11.783  66.150  1.00  0.00    -0.185 C  
HETATM    2  SD  UNL     1     -10.622  10.762  66.451  1.00  0.00    -0.162 SA 
HETATM    3  CG  UNL     1     -11.794  12.125  66.200  1.00  0.00    -0.254 C  
HETATM    4  CB  UNL     1     -11.398  13.371  66.934  1.00  0.00    -0.351 C  
HETATM    5  CA  UNL     1     -10.169  13.685  67.394  1.00  0.00    -0.241 C  
HETATM    6  N   UNL     1      -9.123  12.854  67.133  1.00  0.00    -0.213 N  
HETATM    7  C   UNL     1     -10.074  14.935  68.220  1.00  0.00    -0.221 C  
HETATM    8  C   UNL     1      -7.864  12.644  67.553  1.00  0.00    -0.175 C  
HETATM    9  OXT UNL     1     -11.043  15.652  68.449  1.00  0.00    -0.292 OA 
HETATM   10  O   UNL     1      -8.854  15.268  68.683  1.00  0.00    -0.169 OA 
HETATM   11  CA  UNL     1      -7.792  11.294  66.739  1.00  0.00    -0.155 C  
HETATM   12  O   UNL     1      -7.199  13.280  68.340  1.00  0.00    -0.093 OA 
ENDROOT
BRANCH  11  13
HETATM   13  N   UNL     1      -7.780  10.070  67.585  1.00  0.00    -0.091 N  
HETATM   14  H   UNL     1      -8.225  10.119  68.501  1.00  0.00     0.000 HD 
HETATM   15  C   UNL     1      -7.210   8.879  67.211  1.00  0.00    -0.083 C  
HETATM   16  O   UNL     1      -6.557   8.778  66.172  1.00  0.00    -0.063 OA 
BRANCH  15  17
HETATM   17  C   UNL     1      -7.496   7.679  68.106  1.00  0.00    -0.108 C  
HETATM   18  C   UNL     1      -6.786   7.509  69.249  1.00  0.00    -0.041 C  
BRANCH  17  19
HETATM   19  C   UNL     1      -8.530   6.740  67.722  1.00  0.00    -0.122 A  
HETATM   20  C   UNL     1      -9.562   6.993  66.838  1.00  0.00    -0.168 A  
HETATM   21  H2  UNL     1     -10.428   2.939  67.546  1.00  0.00     0.000 HD 
HETATM   22  S   UNL     1     -10.509   5.578  66.630  1.00  0.00    -0.282 SA 
HETATM   23  H1  UNL     1      -9.041   2.939  68.627  1.00  0.00     0.000 HD 
HETATM   24  N   UNL     1      -8.504   5.447  68.223  1.00  0.00    -0.097 NA 
HETATM   25  N   UNL     1      -9.656   3.440  67.986  1.00  0.00    -0.152 NA 
HETATM   26  C   UNL     1      -9.476   4.736  67.707  1.00  0.00    -0.146 A  
ENDBRANCH  17  19
BRANCH  18  27
HETATM   27  C   UNL     1      -5.779   8.392  69.941  1.00  0.00    -0.025 C  
HETATM   28  O   UNL     1      -6.421  10.668  70.456  1.00  0.00    -0.260 OA 
HETATM   29  C   UNL     1      -6.343   9.500  70.813  1.00  0.00    -0.091 C  
HETATM   30  O   UNL     1      -6.733   9.097  72.040  1.00  0.00    -0.284 OA 
ENDBRANCH  18  27
ENDBRANCH  15  17
ENDBRANCH  11  13
TORSDOF 4
ENDMDL
MODEL      167
REMARK 921   NORMALIZED FREE ENERGY PREDICTED BY IDOCK:   -4.21 KCAL/MOL
REMARK 922        TOTAL FREE ENERGY PREDICTED BY IDOCK:   -5.75 KCAL/MOL
REMARK 923 INTER-LIGAND FREE ENERGY PREDICTED BY IDOCK:   -5.93 KCAL/MOL
REMARK 924 INTRA-LIGAND FREE ENERGY PREDICTED BY IDOCK:    0.18 KCAL/MOL
REMARK 927      BINDING AFFINITY PREDICTED BY RF-SCORE:    0.00 PKD
ROOT
HETATM    1  CE  UNL     1     -12.116  13.301  68.274  1.00  0.00    -0.211 C  
HETATM    2  SD  UNL     1     -11.667  13.051  70.011  1.00  0.00    -0.148 SA 
HETATM    3  CG  UNL     1     -12.024  14.762  70.494  1.00  0.00    -0.312 C  
HETATM    4  CB  UNL     1     -11.435  15.766  69.547  1.00  0.00    -0.356 C  
HETATM    5  CA  UNL     1     -11.047  15.548  68.273  1.00  0.00    -0.322 C  
HETATM    6  N   UNL     1     -11.250  14.325  67.711  1.00  0.00    -0.280 N  
HETATM    7  C   UNL     1     -10.358  16.693  67.590  1.00  0.00    -0.305 C  
HETATM    8  C   UNL     1     -10.847  13.621  66.639  1.00  0.00    -0.283 C  
HETATM    9  OXT UNL     1     -10.177  17.777  68.135  1.00  0.00    -0.340 OA 
HETATM   10  O   UNL     1      -9.968  16.496  66.316  1.00  0.00    -0.292 OA 
HETATM   11  CA  UNL     1     -11.518  12.314  67.216  1.00  0.00    -0.357 C  
HETATM   12  O   UNL     1     -10.151  13.965  65.710  1.00  0.00    -0.307 OA 
ENDROOT
BRANCH  11  13
HETATM   13  N   UNL     1     -10.551  11.281  67.673  1.00  0.00    -0.202 N  
HETATM   14  H   UNL     1     -10.851  10.307  67.660  1.00  0.00     0.000 HD 
HETATM   15  C   UNL     1      -9.279  11.555  68.111  1.00  0.00    -0.181 C  
HETATM   16  O   UNL     1      -8.887  12.712  68.263  1.00  0.00    -0.189 OA 
BRANCH  15  17
HETATM   17  C   UNL     1      -8.360  10.356  68.319  1.00  0.00    -0.119 C  
HETATM   18  C   UNL     1      -7.485  10.004  67.345  1.00  0.00    -0.091 C  
BRANCH  17  19
HETATM   19  C   UNL     1      -8.432   9.616  69.562  1.00  0.00    -0.159 A  
HETATM   20  C   UNL     1      -9.338   8.614  69.854  1.00  0.00    -0.159 A  
HETATM   21  H2  UNL     1      -7.103   8.382  73.407  1.00  0.00     0.000 HD 
HETATM   22  S   UNL     1      -9.014   7.971  71.411  1.00  0.00    -0.150 SA 
HETATM   23  H1  UNL     1      -6.123   9.688  72.754  1.00  0.00     0.000 HD 
HETATM   24  N   UNL     1      -7.505   9.865  70.563  1.00  0.00    -0.285 NA 
HETATM   25  N   UNL     1      -6.909   9.046  72.658  1.00  0.00    -0.314 NA 
HETATM   26  C   UNL     1      -7.693   9.051  71.573  1.00  0.00     0.015 A  
ENDBRANCH  17  19
BRANCH  18  27
HETATM   27  C   UNL     1      -7.112  10.674  66.047  1.00  0.00    -0.127 C  
HETATM   28  O   UNL     1      -7.535   9.481  63.984  1.00  0.00    -0.112 OA 
HETATM   29  C   UNL     1      -7.925  10.278  64.827  1.00  0.00    -0.141 C  
HETATM   30  O   UNL     1      -9.118  10.900  64.729  1.00  0.00    -0.200 OA 
ENDBRANCH  18  27
ENDBRANCH  15  17
ENDBRANCH  11  13
TORSDOF 4
ENDMDL
MODEL      168
REMARK 921   NORMALIZED FREE ENERGY PREDICTED BY IDOCK:   -4.13 KCAL/MOL
REMARK 922        TOTAL FREE ENERGY PREDICTED BY IDOCK:   -5.64 KCAL/MOL
REMARK 923 INTER-LIGAND FREE ENERGY PREDICTED BY IDOCK:   -5.99 KCAL/MOL
REMARK 924 INTRA-LIGAND FREE ENERGY PREDICTED BY IDOCK:    0.35 KCAL/MOL
REMARK 927      BINDING AFFINITY PREDICTED BY RF-SCORE:    0.00 PKD
ROOT
HETATM    1  CE  UNL     1      -8.547  10.197  66.502  1.00  0.00    -0.126 C  
HETATM    2  SD  UNL     1      -8.761   8.980  65.178  1.00  0.00    -0.175 SA 
HETATM    3  CG  UNL     1      -9.277  10.207  63.945  1.00  0.00    -0.280 C  
HETATM    4  CB  UNL     1     -10.312  11.156  64.472  1.00  0.00    -0.400 C  
HETATM    5  CA  UNL     1     -10.582  11.424  65.766  1.00  0.00    -0.260 C  
HETATM    6  N   UNL     1      -9.821  10.856  66.741  1.00  0.00    -0.190 N  
HETATM    7  C   UNL     1     -11.767  12.311  66.022  1.00  0.00    -0.388 C  
HETATM    8  C   UNL     1      -9.859  10.653  68.070  1.00  0.00    -0.160 C  
HETATM    9  OXT UNL     1     -12.441  12.792  65.118  1.00  0.00    -0.491 OA 
HETATM   10  O   UNL     1     -12.049  12.594  67.309  1.00  0.00    -0.448 OA 
HETATM   11  CA  UNL     1      -8.614   9.687  67.980  1.00  0.00    -0.119 C  
HETATM   12  O   UNL     1     -10.662  11.045  68.886  1.00  0.00    -0.188 OA 
ENDROOT
BRANCH  11  13
HETATM   13  N   UNL     1      -8.933   8.254  68.225  1.00  0.00    -0.136 N  
HETATM   14  H   UNL     1      -8.187   7.651  68.570  1.00  0.00     0.000 HD 
HETATM   15  C   UNL     1     -10.168   7.692  68.017  1.00  0.00    -0.202 C  
HETATM   16  O   UNL     1     -11.083   8.329  67.496  1.00  0.00     0.027 OA 
BRANCH  15  17
HETATM   17  C   UNL     1     -10.364   6.273  68.539  1.00  0.00    -0.238 C  
HETATM   18  C   UNL     1     -10.295   5.227  67.679  1.00  0.00    -0.208 C  
BRANCH  17  19
HETATM   19  C   UNL     1     -10.615   6.066  69.951  1.00  0.00    -0.279 A  
HETATM   20  C   UNL     1     -11.546   6.746  70.714  1.00  0.00    -0.366 A  
HETATM   21  H2  UNL     1     -10.228   4.089  73.694  1.00  0.00     0.000 HD 
HETATM   22  S   UNL     1     -11.547   6.129  72.314  1.00  0.00    -0.284 SA 
HETATM   23  H1  UNL     1      -9.136   3.433  72.482  1.00  0.00     0.000 HD 
HETATM   24  N   UNL     1      -9.917   5.081  70.633  1.00  0.00    -0.213 NA 
HETATM   25  N   UNL     1      -9.858   4.104  72.744  1.00  0.00    -0.139 NA 
HETATM   26  C   UNL     1     -10.333   5.003  71.873  1.00  0.00    -0.204 A  
ENDBRANCH  17  19
BRANCH  18  27
HETATM   27  C   UNL     1      -9.912   5.152  66.223  1.00  0.00    -0.232 C  
HETATM   28  O   UNL     1      -7.606   5.576  65.627  1.00  0.00    -0.080 OA 
HETATM   29  C   UNL     1      -8.475   4.767  65.925  1.00  0.00    -0.117 C  
HETATM   30  O   UNL     1      -8.230   3.442  65.988  1.00  0.00    -0.092 OA 
ENDBRANCH  18  27
ENDBRANCH  15  17
ENDBRANCH  11  13
TORSDOF 4
ENDMDL
MODEL      169
REMARK 921   NORMALIZED FREE ENERGY PREDICTED BY IDOCK:   -4.06 KCAL/MOL
REMARK 922        TOTAL FREE ENERGY PREDICTED BY IDOCK:   -5.57 KCAL/MOL
REMARK 923 INTER-LIGAND FREE ENERGY PREDICTED BY IDOCK:   -4.16 KCAL/MOL
REMARK 924 INTRA-LIGAND FREE ENERGY PREDICTED BY IDOCK:   -1.40 KCAL/MOL
REMARK 927      BINDING AFFINITY PREDICTED BY RF-SCORE:    0.00 PKD
ROOT
HETATM    1  CE  UNL     1      -8.515   9.231  69.991  1.00  0.00    -0.176 C  
HETATM    2  SD  UNL     1      -6.849   8.558  70.215  1.00  0.00    -0.041 SA 
HETATM    3  CG  UNL     1      -6.019   9.994  69.480  1.00  0.00    -0.041 C  
HETATM    4  CB  UNL     1      -6.649  10.428  68.190  1.00  0.00    -0.060 C  
HETATM    5  CA  UNL     1      -7.896  10.144  67.761  1.00  0.00    -0.098 C  
HETATM    6  N   UNL     1      -8.743   9.452  68.571  1.00  0.00    -0.127 N  
HETATM    7  C   UNL     1      -8.229  10.585  66.365  1.00  0.00    -0.140 C  
HETATM    8  C   UNL     1      -9.905   8.782  68.491  1.00  0.00    -0.168 C  
HETATM    9  OXT UNL     1      -7.434  11.193  65.656  1.00  0.00     0.051 OA 
HETATM   10  O   UNL     1      -9.472  10.315  65.920  1.00  0.00    -0.170 OA 
HETATM   11  CA  UNL     1      -9.711   8.222  69.953  1.00  0.00    -0.180 C  
HETATM   12  O   UNL     1     -10.660   8.660  67.552  1.00  0.00    -0.263 OA 
ENDROOT
BRANCH  11  13
HETATM   13  N   UNL     1      -9.416   6.765  70.017  1.00  0.00    -0.158 N  
HETATM   14  H   UNL     1      -8.438   6.476  70.010  1.00  0.00     0.000 HD 
HETATM   15  C   UNL     1     -10.375   5.786  70.084  1.00  0.00    -0.256 C  
HETATM   16  O   UNL     1     -11.572   6.052  69.981  1.00  0.00    -0.317 OA 
BRANCH  15  17
HETATM   17  C   UNL     1      -9.882   4.372  70.373  1.00  0.00    -0.286 C  
HETATM   18  C   UNL     1      -9.829   3.929  71.653  1.00  0.00    -0.247 C  
BRANCH  17  19
HETATM   19  C   UNL     1      -9.485   3.521  69.269  1.00  0.00    -0.163 A  
HETATM   20  C   UNL     1      -9.275   2.157  69.337  1.00  0.00    -0.118 A  
HETATM   21  H2  UNL     1      -8.666   2.601  65.200  1.00  0.00     0.000 HD 
HETATM   22  S   UNL     1      -8.886   1.551  67.780  1.00  0.00    -0.124 SA 
HETATM   23  H1  UNL     1      -8.978   4.315  65.443  1.00  0.00     0.000 HD 
HETATM   24  N   UNL     1      -9.333   4.067  68.003  1.00  0.00    -0.157 NA 
HETATM   25  N   UNL     1      -8.885   3.375  65.827  1.00  0.00    -0.127 NA 
HETATM   26  C   UNL     1      -9.042   3.130  67.134  1.00  0.00    -0.178 A  
ENDBRANCH  17  19
BRANCH  18  27
HETATM   27  C   UNL     1     -10.307   4.542  72.944  1.00  0.00    -0.243 C  
HETATM   28  O   UNL     1      -8.647   5.247  74.557  1.00  0.00    -0.109 OA 
HETATM   29  C   UNL     1      -9.366   5.531  73.608  1.00  0.00    -0.137 C  
HETATM   30  O   UNL     1      -9.403   6.772  73.083  1.00  0.00    -0.131 OA 
ENDBRANCH  18  27
ENDBRANCH  15  17
ENDBRANCH  11  13
TORSDOF 4
ENDMDL
MODEL      170
REMARK 921   NORMALIZED FREE ENERGY PREDICTED BY IDOCK:   -4.04 KCAL/MOL
REMARK 922        TOTAL FREE ENERGY PREDICTED BY IDOCK:   -5.54 KCAL/MOL
REMARK 923 INTER-LIGAND FREE ENERGY PREDICTED BY IDOCK:   -4.92 KCAL/MOL
REMARK 924 INTRA-LIGAND FREE ENERGY PREDICTED BY IDOCK:   -0.62 KCAL/MOL
REMARK 927      BINDING AFFINITY PREDICTED BY RF-SCORE:    0.00 PKD
ROOT
HETATM    1  CE  UNL     1      -7.809   9.484  67.762  1.00  0.00    -0.095 C  
HETATM    2  SD  UNL     1      -6.549  10.579  67.058  1.00  0.00    -0.082 SA 
HETATM    3  CG  UNL     1      -5.155   9.644  67.746  1.00  0.00    -0.036 C  
HETATM    4  CB  UNL     1      -5.345   9.303  69.194  1.00  0.00    -0.036 C  
HETATM    5  CA  UNL     1      -6.510   9.269  69.873  1.00  0.00    -0.044 C  
HETATM    6  N   UNL     1      -7.678   9.492  69.210  1.00  0.00    -0.081 N  
HETATM    7  C   UNL     1      -6.405   9.034  71.352  1.00  0.00    -0.080 C  
HETATM    8  C   UNL     1      -8.964   9.774  69.485  1.00  0.00    -0.204 C  
HETATM    9  OXT UNL     1      -5.332   8.855  71.919  1.00  0.00    -0.040 OA 
HETATM   10  O   UNL     1      -7.559   8.992  72.046  1.00  0.00    -0.343 OA 
HETATM   11  CA  UNL     1      -9.250  10.063  67.960  1.00  0.00    -0.134 C  
HETATM   12  O   UNL     1      -9.525   9.841  70.555  1.00  0.00    -0.229 OA 
ENDROOT
BRANCH  11  13
HETATM   13  N   UNL     1      -9.491  11.496  67.644  1.00  0.00    -0.165 N  
HETATM   14  H   UNL     1      -8.882  11.944  66.960  1.00  0.00     0.000 HD 
HETATM   15  C   UNL     1     -10.481  12.256  68.215  1.00  0.00    -0.226 C  
HETATM   16  O   UNL     1     -11.180  11.819  69.130  1.00  0.00    -0.236 OA 
BRANCH  15  17
HETATM   17  C   UNL     1     -10.720  13.631  67.602  1.00  0.00    -0.253 C  
HETATM   18  C   UNL     1     -10.188  14.731  68.191  1.00  0.00    -0.228 C  
BRANCH  17  19
HETATM   19  C   UNL     1     -11.509  13.740  66.392  1.00  0.00    -0.336 A  
HETATM   20  C   UNL     1     -11.627  14.869  65.603  1.00  0.00    -0.245 A  
HETATM   21  H2  UNL     1     -13.904  12.280  63.197  1.00  0.00     0.000 HD 
HETATM   22  S   UNL     1     -12.604  14.524  64.236  1.00  0.00     0.134 SA 
HETATM   23  H1  UNL     1     -13.578  11.040  64.402  1.00  0.00     0.000 HD 
HETATM   24  N   UNL     1     -12.188  12.629  65.914  1.00  0.00    -0.597 NA 
HETATM   25  N   UNL     1     -13.472  12.001  64.078  1.00  0.00    -0.432 NA 
HETATM   26  C   UNL     1     -12.781  12.908  64.780  1.00  0.00    -0.370 A  
ENDBRANCH  17  19
BRANCH  18  27
HETATM   27  C   UNL     1      -9.231  14.882  69.346  1.00  0.00    -0.046 C  
HETATM   28  O   UNL     1      -6.893  15.260  68.849  1.00  0.00    -0.111 OA 
HETATM   29  C   UNL     1      -7.997  15.729  69.091  1.00  0.00    -0.231 C  
HETATM   30  O   UNL     1      -8.208  17.059  69.179  1.00  0.00    -0.174 OA 
ENDBRANCH  18  27
ENDBRANCH  15  17
ENDBRANCH  11  13
TORSDOF 4
ENDMDL
MODEL      171
REMARK 921   NORMALIZED FREE ENERGY PREDICTED BY IDOCK:   -4.04 KCAL/MOL
REMARK 922        TOTAL FREE ENERGY PREDICTED BY IDOCK:   -5.54 KCAL/MOL
REMARK 923 INTER-LIGAND FREE ENERGY PREDICTED BY IDOCK:   -5.67 KCAL/MOL
REMARK 924 INTRA-LIGAND FREE ENERGY PREDICTED BY IDOCK:    0.13 KCAL/MOL
REMARK 927      BINDING AFFINITY PREDICTED BY RF-SCORE:    0.00 PKD
ROOT
HETATM    1  CE  UNL     1     -10.388  12.927  66.534  1.00  0.00    -0.264 C  
HETATM    2  SD  UNL     1     -11.467  13.380  67.917  1.00  0.00    -0.337 SA 
HETATM    3  CG  UNL     1     -10.856  15.086  68.015  1.00  0.00    -0.270 C  
HETATM    4  CB  UNL     1      -9.359  15.167  67.976  1.00  0.00    -0.187 C  
HETATM    5  CA  UNL     1      -8.507  14.228  67.513  1.00  0.00    -0.187 C  
HETATM    6  N   UNL     1      -9.004  13.094  66.947  1.00  0.00    -0.226 N  
HETATM    7  C   UNL     1      -7.046  14.504  67.720  1.00  0.00    -0.175 C  
HETATM    8  C   UNL     1      -8.582  11.868  66.590  1.00  0.00    -0.163 C  
HETATM    9  OXT UNL     1      -6.635  15.531  68.250  1.00  0.00    -0.111 OA 
HETATM   10  O   UNL     1      -6.181  13.580  67.260  1.00  0.00    -0.313 OA 
HETATM   11  CA  UNL     1     -10.068  11.409  66.325  1.00  0.00    -0.224 C  
HETATM   12  O   UNL     1      -7.465  11.403  66.611  1.00  0.00    -0.145 OA 
ENDROOT
BRANCH  11  13
HETATM   13  N   UNL     1     -10.591  10.429  67.315  1.00  0.00    -0.252 N  
HETATM   14  H   UNL     1     -11.498  10.002  67.132  1.00  0.00     0.000 HD 
HETATM   15  C   UNL     1      -9.929  10.061  68.461  1.00  0.00    -0.162 C  
HETATM   16  O   UNL     1      -8.886  10.617  68.806  1.00  0.00    -0.146 OA 
BRANCH  15  17
HETATM   17  C   UNL     1     -10.509   8.881  69.231  1.00  0.00    -0.234 C  
HETATM   18  C   UNL     1     -10.062   7.627  68.974  1.00  0.00    -0.199 C  
BRANCH  17  19
HETATM   19  C   UNL     1     -11.527   9.121  70.234  1.00  0.00    -0.146 A  
HETATM   20  C   UNL     1     -11.842  10.348  70.786  1.00  0.00    -0.368 A  
HETATM   21  H2  UNL     1     -14.814   8.094  72.727  1.00  0.00     0.000 HD 
HETATM   22  S   UNL     1     -13.152  10.174  71.880  1.00  0.00    -0.440 SA 
HETATM   23  H1  UNL     1     -14.170   6.700  71.870  1.00  0.00     0.000 HD 
HETATM   24  N   UNL     1     -12.312   8.069  70.680  1.00  0.00     0.055 NA 
HETATM   25  N   UNL     1     -14.133   7.697  72.080  1.00  0.00    -0.284 NA 
HETATM   26  C   UNL     1     -13.214   8.499  71.527  1.00  0.00    -0.297 A  
ENDBRANCH  17  19
BRANCH  18  27
HETATM   27  C   UNL     1      -8.936   7.125  68.107  1.00  0.00    -0.128 C  
HETATM   28  O   UNL     1      -9.497   5.794  66.166  1.00  0.00    -0.159 OA 
HETATM   29  C   UNL     1      -9.265   6.897  66.643  1.00  0.00    -0.157 C  
HETATM   30  O   UNL     1      -9.257   8.016  65.890  1.00  0.00    -0.156 OA 
ENDBRANCH  18  27
ENDBRANCH  15  17
ENDBRANCH  11  13
TORSDOF 4
ENDMDL
MODEL      172
REMARK 921   NORMALIZED FREE ENERGY PREDICTED BY IDOCK:   -4.04 KCAL/MOL
REMARK 922        TOTAL FREE ENERGY PREDICTED BY IDOCK:   -5.54 KCAL/MOL
REMARK 923 INTER-LIGAND FREE ENERGY PREDICTED BY IDOCK:   -4.55 KCAL/MOL
REMARK 924 INTRA-LIGAND FREE ENERGY PREDICTED BY IDOCK:   -0.99 KCAL/MOL
REMARK 927      BINDING AFFINITY PREDICTED BY RF-SCORE:    0.00 PKD
ROOT
HETATM    1  CE  UNL     1     -11.724  13.787  70.950  1.00  0.00     0.099 C  
HETATM    2  SD  UNL     1     -13.251  14.686  70.576  1.00  0.00     0.012 SA 
HETATM    3  CG  UNL     1     -14.169  13.988  71.977  1.00  0.00    -0.495 C  
HETATM    4  CB  UNL     1     -14.004  12.503  72.094  1.00  0.00    -0.016 C  
HETATM    5  CA  UNL     1     -13.017  11.752  71.562  1.00  0.00    -0.341 C  
HETATM    6  N   UNL     1     -11.997  12.360  70.897  1.00  0.00    -0.040 N  
HETATM    7  C   UNL     1     -13.165  10.265  71.713  1.00  0.00    -0.430 C  
HETATM    8  C   UNL     1     -10.996  12.038  70.059  1.00  0.00     0.523 C  
HETATM    9  OXT UNL     1     -14.108   9.752  72.305  1.00  0.00    -0.191 OA 
HETATM   10  O   UNL     1     -12.187   9.500  71.193  1.00  0.00    -0.308 OA 
HETATM   11  CA  UNL     1     -10.704  13.564  69.784  1.00  0.00     0.445 C  
HETATM   12  O   UNL     1     -10.635  10.948  69.675  1.00  0.00    -0.214 OA 
ENDROOT
BRANCH  11  13
HETATM   13  N   UNL     1     -11.074  14.020  68.418  1.00  0.00    -0.243 N  
HETATM   14  H   UNL     1     -11.975  13.726  68.044  1.00  0.00     0.000 HD 
HETATM   15  C   UNL     1     -10.279  14.813  67.627  1.00  0.00    -0.232 C  
HETATM   16  O   UNL     1      -9.133  15.111  67.964  1.00  0.00    -0.176 OA 
BRANCH  15  17
HETATM   17  C   UNL     1     -10.919  15.365  66.359  1.00  0.00    -0.277 C  
HETATM   18  C   UNL     1     -11.139  16.698  66.244  1.00  0.00     0.279 C  
BRANCH  17  19
HETATM   19  C   UNL     1     -11.275  14.453  65.290  1.00  0.00    -0.345 A  
HETATM   20  C   UNL     1     -12.239  14.677  64.325  1.00  0.00    -0.408 A  
HETATM   21  H2  UNL     1     -10.845  10.989  62.863  1.00  0.00     0.000 HD 
HETATM   22  S   UNL     1     -12.275  13.363  63.224  1.00  0.00     0.051 SA 
HETATM   23  H1  UNL     1      -9.726  10.992  64.219  1.00  0.00     0.000 HD 
HETATM   24  N   UNL     1     -10.588  13.256  65.153  1.00  0.00    -0.316 NA 
HETATM   25  N   UNL     1     -10.481  11.441  63.702  1.00  0.00    -0.379 NA 
HETATM   26  C   UNL     1     -11.006  12.608  64.094  1.00  0.00    -0.387 A  
ENDBRANCH  17  19
BRANCH  18  27
HETATM   27  C   UNL     1     -10.742  17.857  67.122  1.00  0.00    -0.241 C  
HETATM   28  O   UNL     1      -8.382  18.261  67.479  1.00  0.00    -0.241 OA 
HETATM   29  C   UNL     1      -9.394  18.491  66.829  1.00  0.00    -0.297 C  
HETATM   30  O   UNL     1      -9.401  19.362  65.799  1.00  0.00    -0.381 OA 
ENDBRANCH  18  27
ENDBRANCH  15  17
ENDBRANCH  11  13
TORSDOF 4
ENDMDL
MODEL      173
REMARK 921   NORMALIZED FREE ENERGY PREDICTED BY IDOCK:   -4.00 KCAL/MOL
REMARK 922        TOTAL FREE ENERGY PREDICTED BY IDOCK:   -5.49 KCAL/MOL
REMARK 923 INTER-LIGAND FREE ENERGY PREDICTED BY IDOCK:   -5.82 KCAL/MOL
REMARK 924 INTRA-LIGAND FREE ENERGY PREDICTED BY IDOCK:    0.33 KCAL/MOL
REMARK 927      BINDING AFFINITY PREDICTED BY RF-SCORE:    0.00 PKD
ROOT
HETATM    1  CE  UNL     1     -10.511  11.750  66.304  1.00  0.00    -0.244 C  
HETATM    2  SD  UNL     1     -11.605  12.017  67.722  1.00  0.00    -0.312 SA 
HETATM    3  CG  UNL     1     -11.178  13.772  67.897  1.00  0.00    -0.274 C  
HETATM    4  CB  UNL     1      -9.700  14.017  67.841  1.00  0.00    -0.229 C  
HETATM    5  CA  UNL     1      -8.762  13.198  67.321  1.00  0.00    -0.210 C  
HETATM    6  N   UNL     1      -9.145  12.046  66.705  1.00  0.00    -0.193 N  
HETATM    7  C   UNL     1      -7.335  13.620  67.520  1.00  0.00    -0.166 C  
HETATM    8  C   UNL     1      -8.601  10.892  66.281  1.00  0.00    -0.164 C  
HETATM    9  OXT UNL     1      -7.027  14.659  68.095  1.00  0.00    -0.097 OA 
HETATM   10  O   UNL     1      -6.385  12.819  67.002  1.00  0.00    -0.219 OA 
HETATM   11  CA  UNL     1     -10.034  10.288  66.015  1.00  0.00    -0.245 C  
HETATM   12  O   UNL     1      -7.440  10.549  66.264  1.00  0.00    -0.120 OA 
ENDROOT
BRANCH  11  13
HETATM   13  N   UNL     1     -10.429   9.210  66.962  1.00  0.00    -0.258 N  
HETATM   14  H   UNL     1     -11.158   8.560  66.668  1.00  0.00     0.000 HD 
HETATM   15  C   UNL     1      -9.875   9.034  68.205  1.00  0.00    -0.166 C  
HETATM   16  O   UNL     1      -9.074   9.845  68.672  1.00  0.00    -0.126 OA 
BRANCH  15  17
HETATM   17  C   UNL     1     -10.241   7.747  68.935  1.00  0.00    -0.220 C  
HETATM   18  C   UNL     1     -10.719   7.807  70.203  1.00  0.00    -0.242 C  
BRANCH  17  19
HETATM   19  C   UNL     1     -10.077   6.477  68.257  1.00  0.00    -0.159 A  
HETATM   20  C   UNL     1      -9.432   5.366  68.766  1.00  0.00    -0.130 A  
HETATM   21  H2  UNL     1     -10.738   3.636  65.164  1.00  0.00     0.000 HD 
HETATM   22  S   UNL     1      -9.538   4.069  67.650  1.00  0.00    -0.120 SA 
HETATM   23  H1  UNL     1     -11.457   5.198  64.794  1.00  0.00     0.000 HD 
HETATM   24  N   UNL     1     -10.638   6.294  67.002  1.00  0.00    -0.277 NA 
HETATM   25  N   UNL     1     -10.919   4.605  65.425  1.00  0.00    -0.134 NA 
HETATM   26  C   UNL     1     -10.443   5.065  66.589  1.00  0.00    -0.250 A  
ENDBRANCH  17  19
BRANCH  18  27
HETATM   27  C   UNL     1     -11.114   8.976  71.068  1.00  0.00    -0.356 C  
HETATM   28  O   UNL     1     -13.269  10.006  70.680  1.00  0.00    -0.298 OA 
HETATM   29  C   UNL     1     -12.603   9.178  71.287  1.00  0.00    -0.288 C  
HETATM   30  O   UNL     1     -13.139   8.382  72.235  1.00  0.00    -0.327 OA 
ENDBRANCH  18  27
ENDBRANCH  15  17
ENDBRANCH  11  13
TORSDOF 4
ENDMDL
MODEL      174
REMARK 921   NORMALIZED FREE ENERGY PREDICTED BY IDOCK:   -4.00 KCAL/MOL
REMARK 922        TOTAL FREE ENERGY PREDICTED BY IDOCK:   -5.49 KCAL/MOL
REMARK 923 INTER-LIGAND FREE ENERGY PREDICTED BY IDOCK:   -4.27 KCAL/MOL
REMARK 924 INTRA-LIGAND FREE ENERGY PREDICTED BY IDOCK:   -1.22 KCAL/MOL
REMARK 927      BINDING AFFINITY PREDICTED BY RF-SCORE:    0.00 PKD
ROOT
HETATM    1  CE  UNL     1     -10.634   5.387  68.608  1.00  0.00    -0.097 C  
HETATM    2  SD  UNL     1      -9.823   4.941  67.051  1.00  0.00    -0.206 SA 
HETATM    3  CG  UNL     1      -9.604   3.198  67.504  1.00  0.00    -0.041 C  
HETATM    4  CB  UNL     1      -9.054   3.025  68.888  1.00  0.00    -0.210 C  
HETATM    5  CA  UNL     1      -9.079   3.929  69.890  1.00  0.00    -0.122 C  
HETATM    6  N   UNL     1      -9.720   5.115  69.706  1.00  0.00    -0.173 N  
HETATM    7  C   UNL     1      -8.331   3.552  71.136  1.00  0.00    -0.067 C  
HETATM    8  C   UNL     1      -9.800   6.327  70.283  1.00  0.00    -0.168 C  
HETATM    9  OXT UNL     1      -7.750   2.480  71.260  1.00  0.00    -0.039 OA 
HETATM   10  O   UNL     1      -8.349   4.440  72.149  1.00  0.00    -0.104 OA 
HETATM   11  CA  UNL     1     -10.599   6.890  69.045  1.00  0.00    -0.217 C  
HETATM   12  O   UNL     1      -9.308   6.720  71.317  1.00  0.00    -0.164 OA 
ENDROOT
BRANCH  11  13
HETATM   13  N   UNL     1      -9.834   7.856  68.211  1.00  0.00    -0.164 N  
HETATM   14  H   UNL     1      -9.345   7.497  67.392  1.00  0.00     0.000 HD 
HETATM   15  C   UNL     1      -9.745   9.200  68.473  1.00  0.00    -0.155 C  
HETATM   16  O   UNL     1     -10.213   9.686  69.504  1.00  0.00    -0.193 OA 
BRANCH  15  17
HETATM   17  C   UNL     1      -9.113  10.063  67.388  1.00  0.00    -0.146 C  
HETATM   18  C   UNL     1      -7.763  10.092  67.254  1.00  0.00    -0.095 C  
BRANCH  17  19
HETATM   19  C   UNL     1      -9.968  10.834  66.508  1.00  0.00    -0.213 A  
HETATM   20  C   UNL     1     -10.277  10.515  65.200  1.00  0.00    -0.288 A  
HETATM   21  H2  UNL     1     -12.720  13.922  65.526  1.00  0.00     0.000 HD 
HETATM   22  S   UNL     1     -11.375  11.670  64.564  1.00  0.00    -0.185 SA 
HETATM   23  H1  UNL     1     -12.125  14.063  67.175  1.00  0.00     0.000 HD 
HETATM   24  N   UNL     1     -10.591  11.977  66.987  1.00  0.00    -0.221 NA 
HETATM   25  N   UNL     1     -12.127  13.575  66.280  1.00  0.00    -0.419 NA 
HETATM   26  C   UNL     1     -11.372  12.490  66.068  1.00  0.00    -0.344 A  
ENDBRANCH  17  19
BRANCH  18  27
HETATM   27  C   UNL     1      -6.675   9.294  67.925  1.00  0.00    -0.071 C  
HETATM   28  O   UNL     1      -6.954   6.895  68.087  1.00  0.00    -0.074 OA 
HETATM   29  C   UNL     1      -6.516   7.855  67.466  1.00  0.00    -0.056 C  
HETATM   30  O   UNL     1      -5.822   7.711  66.319  1.00  0.00    -0.035 OA 
ENDBRANCH  18  27
ENDBRANCH  15  17
ENDBRANCH  11  13
TORSDOF 4
ENDMDL
MODEL      175
REMARK 921   NORMALIZED FREE ENERGY PREDICTED BY IDOCK:   -3.98 KCAL/MOL
REMARK 922        TOTAL FREE ENERGY PREDICTED BY IDOCK:   -5.46 KCAL/MOL
REMARK 923 INTER-LIGAND FREE ENERGY PREDICTED BY IDOCK:   -4.31 KCAL/MOL
REMARK 924 INTRA-LIGAND FREE ENERGY PREDICTED BY IDOCK:   -1.16 KCAL/MOL
REMARK 927      BINDING AFFINITY PREDICTED BY RF-SCORE:    0.00 PKD
ROOT
HETATM    1  CE  UNL     1      -8.356   7.062  65.585  1.00  0.00    -0.136 C  
HETATM    2  SD  UNL     1      -6.972   8.081  66.157  1.00  0.00    -0.059 SA 
HETATM    3  CG  UNL     1      -5.796   7.404  64.952  1.00  0.00    -0.037 C  
HETATM    4  CB  UNL     1      -5.841   5.907  64.877  1.00  0.00    -0.025 C  
HETATM    5  CA  UNL     1      -6.850   5.106  65.278  1.00  0.00    -0.060 C  
HETATM    6  N   UNL     1      -8.002   5.661  65.745  1.00  0.00    -0.105 N  
HETATM    7  C   UNL     1      -6.582   3.630  65.221  1.00  0.00    -0.040 C  
HETATM    8  C   UNL     1      -9.102   5.296  66.427  1.00  0.00    -0.137 C  
HETATM    9  OXT UNL     1      -5.524   3.165  64.810  1.00  0.00    -0.009 OA 
HETATM   10  O   UNL     1      -7.580   2.814  65.612  1.00  0.00    -0.074 OA 
HETATM   11  CA  UNL     1      -9.534   6.806  66.583  1.00  0.00    -0.165 C  
HETATM   12  O   UNL     1      -9.448   4.197  66.797  1.00  0.00    -0.166 OA 
ENDROOT
BRANCH  11  13
HETATM   13  N   UNL     1      -9.421   7.334  67.969  1.00  0.00    -0.136 N  
HETATM   14  H   UNL     1      -8.650   7.968  68.177  1.00  0.00     0.000 HD 
HETATM   15  C   UNL     1     -10.288   7.023  68.986  1.00  0.00    -0.200 C  
HETATM   16  O   UNL     1     -11.172   6.179  68.841  1.00  0.00    -0.372 OA 
BRANCH  15  17
HETATM   17  C   UNL     1     -10.148   7.835  70.269  1.00  0.00    -0.195 C  
HETATM   18  C   UNL     1      -9.343   7.385  71.264  1.00  0.00    -0.158 C  
BRANCH  17  19
HETATM   19  C   UNL     1     -10.875   9.082  70.401  1.00  0.00    -0.246 A  
HETATM   20  C   UNL     1     -10.772  10.169  69.554  1.00  0.00    -0.249 A  
HETATM   21  H2  UNL     1     -13.801  11.694  72.040  1.00  0.00     0.000 HD 
HETATM   22  S   UNL     1     -11.862  11.397  70.050  1.00  0.00    -0.370 SA 
HETATM   23  H1  UNL     1     -13.687  10.182  72.931  1.00  0.00     0.000 HD 
HETATM   24  N   UNL     1     -11.799   9.231  71.423  1.00  0.00    -0.331 NA 
HETATM   25  N   UNL     1     -13.369  10.779  72.169  1.00  0.00    -0.356 NA 
HETATM   26  C   UNL     1     -12.398  10.393  71.332  1.00  0.00    -0.397 A  
ENDBRANCH  17  19
BRANCH  18  27
HETATM   27  C   UNL     1      -8.385   6.223  71.326  1.00  0.00    -0.123 C  
HETATM   28  O   UNL     1      -6.914   5.856  69.440  1.00  0.00    -0.059 OA 
HETATM   29  C   UNL     1      -7.097   6.371  70.535  1.00  0.00    -0.065 C  
HETATM   30  O   UNL     1      -6.146   7.102  71.152  1.00  0.00    -0.036 OA 
ENDBRANCH  18  27
ENDBRANCH  15  17
ENDBRANCH  11  13
TORSDOF 4
ENDMDL
MODEL      176
REMARK 921   NORMALIZED FREE ENERGY PREDICTED BY IDOCK:   -3.94 KCAL/MOL
REMARK 922        TOTAL FREE ENERGY PREDICTED BY IDOCK:   -5.41 KCAL/MOL
REMARK 923 INTER-LIGAND FREE ENERGY PREDICTED BY IDOCK:   -4.62 KCAL/MOL
REMARK 924 INTRA-LIGAND FREE ENERGY PREDICTED BY IDOCK:   -0.79 KCAL/MOL
REMARK 927      BINDING AFFINITY PREDICTED BY RF-SCORE:    0.00 PKD
ROOT
HETATM    1  CE  UNL     1     -10.651   7.862  69.782  1.00  0.00    -0.242 C  
HETATM    2  SD  UNL     1     -11.760   6.676  70.583  1.00  0.00    -0.366 SA 
HETATM    3  CG  UNL     1     -11.893   7.629  72.122  1.00  0.00    -0.309 C  
HETATM    4  CB  UNL     1     -10.562   8.101  72.627  1.00  0.00    -0.414 C  
HETATM    5  CA  UNL     1      -9.422   8.226  71.914  1.00  0.00    -0.220 C  
HETATM    6  N   UNL     1      -9.438   7.978  70.576  1.00  0.00    -0.165 N  
HETATM    7  C   UNL     1      -8.193   8.587  72.696  1.00  0.00    -0.061 C  
HETATM    8  C   UNL     1      -8.570   7.757  69.574  1.00  0.00    -0.135 C  
HETATM    9  OXT UNL     1      -8.213   8.786  73.906  1.00  0.00    -0.346 OA 
HETATM   10  O   UNL     1      -7.047   8.722  72.002  1.00  0.00    -0.216 OA 
HETATM   11  CA  UNL     1      -9.751   7.344  68.611  1.00  0.00    -0.152 C  
HETATM   12  O   UNL     1      -7.360   7.799  69.580  1.00  0.00    -0.083 OA 
ENDROOT
BRANCH  11  13
HETATM   13  N   UNL     1      -9.785   5.895  68.274  1.00  0.00    -0.123 N  
HETATM   14  H   UNL     1     -10.438   5.301  68.786  1.00  0.00     0.000 HD 
HETATM   15  C   UNL     1      -8.996   5.305  67.319  1.00  0.00    -0.111 C  
HETATM   16  O   UNL     1      -8.108   5.934  66.743  1.00  0.00    -0.101 OA 
BRANCH  15  17
HETATM   17  C   UNL     1      -9.333   3.864  66.955  1.00  0.00    -0.208 C  
HETATM   18  C   UNL     1      -9.408   2.925  67.931  1.00  0.00    -0.256 C  
BRANCH  17  19
HETATM   19  C   UNL     1      -9.575   3.522  65.568  1.00  0.00    -0.125 A  
HETATM   20  C   UNL     1     -10.491   4.134  64.733  1.00  0.00    -0.174 A  
HETATM   21  H2  UNL     1      -8.814   1.530  61.890  1.00  0.00     0.000 HD 
HETATM   22  S   UNL     1     -10.391   3.454  63.162  1.00  0.00    -0.213 SA 
HETATM   23  H1  UNL     1      -7.777   0.948  63.186  1.00  0.00     0.000 HD 
HETATM   24  N   UNL     1      -8.816   2.531  64.964  1.00  0.00    -0.116 NA 
HETATM   25  N   UNL     1      -8.524   1.565  62.867  1.00  0.00    -0.061 NA 
HETATM   26  C   UNL     1      -9.135   2.418  63.698  1.00  0.00    -0.095 A  
ENDBRANCH  17  19
BRANCH  18  27
HETATM   27  C   UNL     1      -9.347   3.038  69.433  1.00  0.00    -0.207 C  
HETATM   28  O   UNL     1      -7.401   2.148  70.564  1.00  0.00    -0.033 OA 
HETATM   29  C   UNL     1      -7.959   3.106  70.045  1.00  0.00    -0.045 C  
HETATM   30  O   UNL     1      -7.390   4.328  69.997  1.00  0.00    -0.045 OA 
ENDBRANCH  18  27
ENDBRANCH  15  17
ENDBRANCH  11  13
TORSDOF 4
ENDMDL
MODEL      177
REMARK 921   NORMALIZED FREE ENERGY PREDICTED BY IDOCK:   -3.92 KCAL/MOL
REMARK 922        TOTAL FREE ENERGY PREDICTED BY IDOCK:   -5.39 KCAL/MOL
REMARK 923 INTER-LIGAND FREE ENERGY PREDICTED BY IDOCK:   -4.43 KCAL/MOL
REMARK 924 INTRA-LIGAND FREE ENERGY PREDICTED BY IDOCK:   -0.96 KCAL/MOL
REMARK 927      BINDING AFFINITY PREDICTED BY RF-SCORE:    0.00 PKD
ROOT
HETATM    1  CE  UNL     1     -10.122   6.909  67.493  1.00  0.00    -0.174 C  
HETATM    2  SD  UNL     1      -9.387   6.881  65.837  1.00  0.00     0.212 SA 
HETATM    3  CG  UNL     1      -8.902   5.136  65.931  1.00  0.00    -0.142 C  
HETATM    4  CB  UNL     1      -8.224   4.792  67.224  1.00  0.00    -0.106 C  
HETATM    5  CA  UNL     1      -8.288   5.482  68.382  1.00  0.00    -0.098 C  
HETATM    6  N   UNL     1      -9.094   6.575  68.466  1.00  0.00    -0.128 N  
HETATM    7  C   UNL     1      -7.399   4.995  69.489  1.00  0.00    -0.057 C  
HETATM    8  C   UNL     1      -9.288   7.634  69.271  1.00  0.00    -0.148 C  
HETATM    9  OXT UNL     1      -6.672   4.015  69.371  1.00  0.00    -0.039 OA 
HETATM   10  O   UNL     1      -7.454   5.668  70.654  1.00  0.00    -0.080 OA 
HETATM   11  CA  UNL     1     -10.253   8.294  68.210  1.00  0.00    -0.208 C  
HETATM   12  O   UNL     1      -8.771   7.898  70.334  1.00  0.00    -0.135 OA 
ENDROOT
BRANCH  11  13
HETATM   13  N   UNL     1      -9.693   9.498  67.540  1.00  0.00    -0.150 N  
HETATM   14  H   UNL     1      -9.274   9.380  66.618  1.00  0.00     0.000 HD 
HETATM   15  C   UNL     1      -9.703  10.759  68.084  1.00  0.00    -0.159 C  
HETATM   16  O   UNL     1     -10.085  10.957  69.237  1.00  0.00    -0.208 OA 
BRANCH  15  17
HETATM   17  C   UNL     1      -9.294  11.900  67.159  1.00  0.00    -0.180 C  
HETATM   18  C   UNL     1      -7.980  12.173  66.969  1.00  0.00    -0.138 C  
BRANCH  17  19
HETATM   19  C   UNL     1     -10.322  12.671  66.490  1.00  0.00    -0.242 A  
HETATM   20  C   UNL     1     -11.633  12.276  66.299  1.00  0.00    -0.385 A  
HETATM   21  H2  UNL     1     -11.978  16.130  64.655  1.00  0.00     0.000 HD 
HETATM   22  S   UNL     1     -12.511  13.528  65.522  1.00  0.00    -0.482 SA 
HETATM   23  H1  UNL     1     -10.271  16.329  65.026  1.00  0.00     0.000 HD 
HETATM   24  N   UNL     1     -10.029  13.944  66.022  1.00  0.00    -0.307 NA 
HETATM   25  N   UNL     1     -11.109  15.750  65.030  1.00  0.00    -0.390 NA 
HETATM   26  C   UNL     1     -11.101  14.502  65.515  1.00  0.00    -0.339 A  
ENDBRANCH  17  19
BRANCH  18  27
HETATM   27  C   UNL     1      -6.734  11.451  67.418  1.00  0.00    -0.094 C  
HETATM   28  O   UNL     1      -5.276  12.564  68.996  1.00  0.00    -0.065 OA 
HETATM   29  C   UNL     1      -6.214  11.803  68.800  1.00  0.00    -0.057 C  
HETATM   30  O   UNL     1      -6.857  11.182  69.810  1.00  0.00    -0.134 OA 
ENDBRANCH  18  27
ENDBRANCH  15  17
ENDBRANCH  11  13
TORSDOF 4
ENDMDL
MODEL      178
REMARK 921   NORMALIZED FREE ENERGY PREDICTED BY IDOCK:   -3.91 KCAL/MOL
REMARK 922        TOTAL FREE ENERGY PREDICTED BY IDOCK:   -5.37 KCAL/MOL
REMARK 923 INTER-LIGAND FREE ENERGY PREDICTED BY IDOCK:   -4.51 KCAL/MOL
REMARK 924 INTRA-LIGAND FREE ENERGY PREDICTED BY IDOCK:   -0.86 KCAL/MOL
REMARK 927      BINDING AFFINITY PREDICTED BY RF-SCORE:    0.00 PKD
ROOT
HETATM    1  CE  UNL     1     -10.593   6.606  68.482  1.00  0.00    -0.233 C  
HETATM    2  SD  UNL     1      -9.031   5.717  68.264  1.00  0.00    -0.114 SA 
HETATM    3  CG  UNL     1      -9.569   4.261  69.204  1.00  0.00    -0.179 C  
HETATM    4  CB  UNL     1     -10.227   4.621  70.502  1.00  0.00    -0.211 C  
HETATM    5  CA  UNL     1     -10.774   5.810  70.832  1.00  0.00    -0.264 C  
HETATM    6  N   UNL     1     -10.824   6.805  69.904  1.00  0.00    -0.248 N  
HETATM    7  C   UNL     1     -11.243   5.949  72.251  1.00  0.00    -0.291 C  
HETATM    8  C   UNL     1     -11.040   8.131  69.847  1.00  0.00    -0.102 C  
HETATM    9  OXT UNL     1     -11.166   5.036  73.066  1.00  0.00    -0.283 OA 
HETATM   10  O   UNL     1     -11.796   7.127  72.597  1.00  0.00    -0.191 OA 
HETATM   11  CA  UNL     1     -10.572   8.165  68.340  1.00  0.00    -0.099 C  
HETATM   12  O   UNL     1     -11.370   8.895  70.725  1.00  0.00    -0.267 OA 
ENDROOT
BRANCH  11  13
HETATM   13  N   UNL     1      -9.265   8.842  68.122  1.00  0.00    -0.139 N  
HETATM   14  H   UNL     1      -8.506   8.636  68.771  1.00  0.00     0.000 HD 
HETATM   15  C   UNL     1      -9.015   9.727  67.102  1.00  0.00    -0.135 C  
HETATM   16  O   UNL     1      -9.912  10.111  66.351  1.00  0.00    -0.212 OA 
BRANCH  15  17
HETATM   17  C   UNL     1      -7.561  10.140  66.903  1.00  0.00    -0.100 C  
HETATM   18  C   UNL     1      -6.783   9.456  66.027  1.00  0.00    -0.081 C  
BRANCH  17  19
HETATM   19  C   UNL     1      -7.036  11.265  67.650  1.00  0.00    -0.090 A  
HETATM   20  C   UNL     1      -6.942  11.347  69.027  1.00  0.00    -0.106 A  
HETATM   21  H2  UNL     1      -5.083  15.010  68.131  1.00  0.00     0.000 HD 
HETATM   22  S   UNL     1      -6.198  12.827  69.471  1.00  0.00    -0.108 SA 
HETATM   23  H1  UNL     1      -5.356  14.617  66.439  1.00  0.00     0.000 HD 
HETATM   24  N   UNL     1      -6.530  12.362  66.971  1.00  0.00    -0.137 NA 
HETATM   25  N   UNL     1      -5.450  14.373  67.424  1.00  0.00    -0.301 NA 
HETATM   26  C   UNL     1      -6.041  13.237  67.815  1.00  0.00    -0.153 A  
ENDBRANCH  17  19
BRANCH  18  27
HETATM   27  C   UNL     1      -7.110   8.366  65.039  1.00  0.00    -0.079 C  
HETATM   28  O   UNL     1      -8.616   8.891  63.219  1.00  0.00    -0.183 OA 
HETATM   29  C   UNL     1      -7.467   8.817  63.634  1.00  0.00    -0.108 C  
HETATM   30  O   UNL     1      -6.403   9.110  62.858  1.00  0.00    -0.094 OA 
ENDBRANCH  18  27
ENDBRANCH  15  17
ENDBRANCH  11  13
TORSDOF 4
ENDMDL
MODEL      179
REMARK 921   NORMALIZED FREE ENERGY PREDICTED BY IDOCK:   -3.87 KCAL/MOL
REMARK 922        TOTAL FREE ENERGY PREDICTED BY IDOCK:   -5.32 KCAL/MOL
REMARK 923 INTER-LIGAND FREE ENERGY PREDICTED BY IDOCK:   -5.01 KCAL/MOL
REMARK 924 INTRA-LIGAND FREE ENERGY PREDICTED BY IDOCK:   -0.31 KCAL/MOL
REMARK 927      BINDING AFFINITY PREDICTED BY RF-SCORE:    0.00 PKD
ROOT
HETATM    1  CE  UNL     1      -8.361  11.687  67.766  1.00  0.00    -0.143 C  
HETATM    2  SD  UNL     1     -10.161  11.542  67.900  1.00  0.00    -0.189 SA 
HETATM    3  CG  UNL     1     -10.490  13.102  67.034  1.00  0.00    -0.248 C  
HETATM    4  CB  UNL     1      -9.638  14.231  67.532  1.00  0.00    -0.216 C  
HETATM    5  CA  UNL     1      -8.477  14.132  68.214  1.00  0.00    -0.169 C  
HETATM    6  N   UNL     1      -7.938  12.903  68.443  1.00  0.00    -0.149 N  
HETATM    7  C   UNL     1      -7.897  15.421  68.718  1.00  0.00    -0.155 C  
HETATM    8  C   UNL     1      -7.000  12.335  69.220  1.00  0.00     0.004 C  
HETATM    9  OXT UNL     1      -8.420  16.510  68.506  1.00  0.00    -0.205 OA 
HETATM   10  O   UNL     1      -6.736  15.342  69.397  1.00  0.00    -0.141 OA 
HETATM   11  CA  UNL     1      -7.487  10.895  68.795  1.00  0.00    -0.112 C  
HETATM   12  O   UNL     1      -6.215  12.853  69.982  1.00  0.00    -0.127 OA 
ENDROOT
BRANCH  11  13
HETATM   13  N   UNL     1      -8.172  10.137  69.877  1.00  0.00    -0.322 N  
HETATM   14  H   UNL     1      -8.210  10.559  70.804  1.00  0.00     0.000 HD 
HETATM   15  C   UNL     1      -8.756   8.907  69.706  1.00  0.00    -0.139 C  
HETATM   16  O   UNL     1      -8.650   8.287  68.648  1.00  0.00    -0.131 OA 
BRANCH  15  17
HETATM   17  C   UNL     1      -9.605   8.393  70.863  1.00  0.00    -0.212 C  
HETATM   18  C   UNL     1     -10.638   9.142  71.323  1.00  0.00    -0.399 C  
BRANCH  17  19
HETATM   19  C   UNL     1      -9.297   7.104  71.449  1.00  0.00    -0.154 A  
HETATM   20  C   UNL     1      -8.038   6.659  71.807  1.00  0.00    -0.103 A  
HETATM   21  H2  UNL     1     -10.208   3.341  73.205  1.00  0.00     0.000 HD 
HETATM   22  S   UNL     1      -8.152   5.105  72.523  1.00  0.00    -0.110 SA 
HETATM   23  H1  UNL     1     -11.648   4.171  72.631  1.00  0.00     0.000 HD 
HETATM   24  N   UNL     1     -10.325   6.219  71.738  1.00  0.00    -0.203 NA 
HETATM   25  N   UNL     1     -10.636   4.147  72.749  1.00  0.00    -0.171 NA 
HETATM   26  C   UNL     1      -9.853   5.146  72.323  1.00  0.00    -0.171 A  
ENDBRANCH  17  19
BRANCH  18  27
HETATM   27  C   UNL     1     -11.250  10.421  70.812  1.00  0.00    -0.293 C  
HETATM   28  O   UNL     1     -13.517  10.342  69.968  1.00  0.00     0.124 OA 
HETATM   29  C   UNL     1     -12.761  10.529  70.912  1.00  0.00    -0.402 C  
HETATM   30  O   UNL     1     -13.213  10.880  72.134  1.00  0.00    -0.474 OA 
ENDBRANCH  18  27
ENDBRANCH  15  17
ENDBRANCH  11  13
TORSDOF 4
ENDMDL
MODEL      180
REMARK 921   NORMALIZED FREE ENERGY PREDICTED BY IDOCK:   -3.86 KCAL/MOL
REMARK 922        TOTAL FREE ENERGY PREDICTED BY IDOCK:   -5.32 KCAL/MOL
REMARK 923 INTER-LIGAND FREE ENERGY PREDICTED BY IDOCK:   -4.41 KCAL/MOL
REMARK 924 INTRA-LIGAND FREE ENERGY PREDICTED BY IDOCK:   -0.91 KCAL/MOL
REMARK 927      BINDING AFFINITY PREDICTED BY RF-SCORE:    0.00 PKD
ROOT
HETATM    1  CE  UNL     1      -9.499   9.945  66.558  1.00  0.00    -0.181 C  
HETATM    2  SD  UNL     1     -10.874  10.011  67.735  1.00  0.00    -0.246 SA 
HETATM    3  CG  UNL     1     -10.691  11.787  68.059  1.00  0.00    -0.208 C  
HETATM    4  CB  UNL     1      -9.268  12.186  68.313  1.00  0.00    -0.192 C  
HETATM    5  CA  UNL     1      -8.159  11.501  67.962  1.00  0.00    -0.136 C  
HETATM    6  N   UNL     1      -8.281  10.355  67.238  1.00  0.00    -0.121 N  
HETATM    7  C   UNL     1      -6.857  12.056  68.462  1.00  0.00    -0.078 C  
HETATM    8  C   UNL     1      -7.537   9.291  66.889  1.00  0.00    -0.091 C  
HETATM    9  OXT UNL     1      -6.787  13.084  69.127  1.00  0.00    -0.104 OA 
HETATM   10  O   UNL     1      -5.738  11.389  68.117  1.00  0.00    -0.046 OA 
HETATM   11  CA  UNL     1      -8.812   8.559  66.315  1.00  0.00    -0.156 C  
HETATM   12  O   UNL     1      -6.364   9.071  67.094  1.00  0.00    -0.058 OA 
ENDROOT
BRANCH  11  13
HETATM   13  N   UNL     1      -9.261   7.391  67.121  1.00  0.00    -0.131 N  
HETATM   14  H   UNL     1     -10.104   7.496  67.685  1.00  0.00     0.000 HD 
HETATM   15  C   UNL     1      -8.613   6.182  67.154  1.00  0.00    -0.103 C  
HETATM   16  O   UNL     1      -7.530   6.018  66.592  1.00  0.00    -0.087 OA 
BRANCH  15  17
HETATM   17  C   UNL     1      -9.344   5.040  67.851  1.00  0.00    -0.147 C  
HETATM   18  C   UNL     1      -9.428   3.829  67.246  1.00  0.00    -0.238 C  
BRANCH  17  19
HETATM   19  C   UNL     1      -9.931   5.266  69.156  1.00  0.00    -0.205 A  
HETATM   20  C   UNL     1      -9.414   4.831  70.361  1.00  0.00    -0.172 A  
HETATM   21  H2  UNL     1     -12.682   6.975  71.911  1.00  0.00     0.000 HD 
HETATM   22  S   UNL     1     -10.400   5.383  71.651  1.00  0.00    -0.220 SA 
HETATM   23  H1  UNL     1     -13.089   7.358  70.243  1.00  0.00     0.000 HD 
HETATM   24  N   UNL     1     -11.091   6.018  69.264  1.00  0.00    -0.380 NA 
HETATM   25  N   UNL     1     -12.480   6.890  70.914  1.00  0.00    -0.337 NA 
HETATM   26  C   UNL     1     -11.423   6.168  70.522  1.00  0.00    -0.260 A  
ENDBRANCH  17  19
BRANCH  18  27
HETATM   27  C   UNL     1      -8.795   3.295  65.986  1.00  0.00    -0.138 C  
HETATM   28  O   UNL     1     -10.254   2.600  64.184  1.00  0.00    -0.118 OA 
HETATM   29  C   UNL     1      -9.587   3.484  64.704  1.00  0.00    -0.168 C  
HETATM   30  O   UNL     1      -9.476   4.713  64.159  1.00  0.00    -0.091 OA 
ENDBRANCH  18  27
ENDBRANCH  15  17
ENDBRANCH  11  13
TORSDOF 4
ENDMDL
MODEL      181
REMARK 921   NORMALIZED FREE ENERGY PREDICTED BY IDOCK:   -3.81 KCAL/MOL
REMARK 922        TOTAL FREE ENERGY PREDICTED BY IDOCK:   -5.25 KCAL/MOL
REMARK 923 INTER-LIGAND FREE ENERGY PREDICTED BY IDOCK:   -4.14 KCAL/MOL
REMARK 924 INTRA-LIGAND FREE ENERGY PREDICTED BY IDOCK:   -1.11 KCAL/MOL
REMARK 927      BINDING AFFINITY PREDICTED BY RF-SCORE:    0.00 PKD
ROOT
HETATM    1  CE  UNL     1      -8.508   7.543  65.823  1.00  0.00    -0.144 C  
HETATM    2  SD  UNL     1      -7.282   8.867  65.979  1.00  0.00    -0.090 SA 
HETATM    3  CG  UNL     1      -6.056   8.043  64.925  1.00  0.00    -0.045 C  
HETATM    4  CB  UNL     1      -5.870   6.597  65.275  1.00  0.00    -0.030 C  
HETATM    5  CA  UNL     1      -6.727   5.812  65.961  1.00  0.00    -0.056 C  
HETATM    6  N   UNL     1      -7.935   6.311  66.341  1.00  0.00    -0.107 N  
HETATM    7  C   UNL     1      -6.234   4.435  66.298  1.00  0.00    -0.032 C  
HETATM    8  C   UNL     1      -8.941   6.008  67.180  1.00  0.00    -0.114 C  
HETATM    9  OXT UNL     1      -5.131   4.024  65.953  1.00  0.00    -0.008 OA 
HETATM   10  O   UNL     1      -7.078   3.635  66.978  1.00  0.00    -0.060 OA 
HETATM   11  CA  UNL     1      -9.598   7.423  66.941  1.00  0.00    -0.187 C  
HETATM   12  O   UNL     1      -9.098   5.025  67.869  1.00  0.00    -0.110 OA 
ENDROOT
BRANCH  11  13
HETATM   13  N   UNL     1      -9.521   8.338  68.111  1.00  0.00    -0.137 N  
HETATM   14  H   UNL     1      -8.782   9.041  68.120  1.00  0.00     0.000 HD 
HETATM   15  C   UNL     1     -10.382   8.299  69.179  1.00  0.00    -0.217 C  
HETATM   16  O   UNL     1     -11.225   7.408  69.292  1.00  0.00    -0.057 OA 
BRANCH  15  17
HETATM   17  C   UNL     1     -10.292   9.456  70.167  1.00  0.00    -0.273 C  
HETATM   18  C   UNL     1      -9.749   9.251  71.393  1.00  0.00    -0.269 C  
BRANCH  17  19
HETATM   19  C   UNL     1     -10.781  10.762  69.775  1.00  0.00    -0.186 A  
HETATM   20  C   UNL     1     -11.826  11.444  70.369  1.00  0.00    -0.335 A  
HETATM   21  H2  UNL     1     -10.711  14.430  67.627  1.00  0.00     0.000 HD 
HETATM   22  S   UNL     1     -12.016  12.979  69.626  1.00  0.00    -0.262 SA 
HETATM   23  H1  UNL     1      -9.464  13.317  67.079  1.00  0.00     0.000 HD 
HETATM   24  N   UNL     1     -10.153  11.450  68.748  1.00  0.00    -0.206 NA 
HETATM   25  N   UNL     1     -10.250  13.523  67.695  1.00  0.00    -0.236 NA 
HETATM   26  C   UNL     1     -10.694  12.633  68.591  1.00  0.00    -0.242 A  
ENDBRANCH  17  19
BRANCH  18  27
HETATM   27  C   UNL     1      -9.048   8.057  71.989  1.00  0.00    -0.217 C  
HETATM   28  O   UNL     1      -6.729   7.687  71.405  1.00  0.00    -0.048 OA 
HETATM   29  C   UNL     1      -7.546   8.181  72.171  1.00  0.00    -0.115 C  
HETATM   30  O   UNL     1      -7.173   8.865  73.272  1.00  0.00    -0.353 OA 
ENDBRANCH  18  27
ENDBRANCH  15  17
ENDBRANCH  11  13
TORSDOF 4
ENDMDL
MODEL      182
REMARK 921   NORMALIZED FREE ENERGY PREDICTED BY IDOCK:   -3.78 KCAL/MOL
REMARK 922        TOTAL FREE ENERGY PREDICTED BY IDOCK:   -5.21 KCAL/MOL
REMARK 923 INTER-LIGAND FREE ENERGY PREDICTED BY IDOCK:   -4.28 KCAL/MOL
REMARK 924 INTRA-LIGAND FREE ENERGY PREDICTED BY IDOCK:   -0.93 KCAL/MOL
REMARK 927      BINDING AFFINITY PREDICTED BY RF-SCORE:    0.00 PKD
ROOT
HETATM    1  CE  UNL     1      -7.912   6.509  67.637  1.00  0.00    -0.114 C  
HETATM    2  SD  UNL     1      -6.795   6.219  69.032  1.00  0.00    -0.068 SA 
HETATM    3  CG  UNL     1      -5.543   5.368  68.032  1.00  0.00    -0.012 C  
HETATM    4  CB  UNL     1      -6.135   4.334  67.121  1.00  0.00    -0.028 C  
HETATM    5  CA  UNL     1      -7.418   4.254  66.711  1.00  0.00    -0.081 C  
HETATM    6  N   UNL     1      -8.300   5.226  67.073  1.00  0.00    -0.108 N  
HETATM    7  C   UNL     1      -7.780   3.036  65.911  1.00  0.00    -0.078 C  
HETATM    8  C   UNL     1      -9.628   5.434  67.102  1.00  0.00    -0.137 C  
HETATM    9  OXT UNL     1      -6.962   2.170  65.618  1.00  0.00    -0.045 OA 
HETATM   10  O   UNL     1      -9.055   2.941  65.488  1.00  0.00    -0.145 OA 
HETATM   11  CA  UNL     1      -9.427   6.748  67.952  1.00  0.00    -0.118 C  
HETATM   12  O   UNL     1     -10.524   4.738  66.682  1.00  0.00    -0.248 OA 
ENDROOT
BRANCH  11  13
HETATM   13  N   UNL     1      -9.886   6.639  69.363  1.00  0.00    -0.150 N  
HETATM   14  H   UNL     1     -10.181   5.723  69.700  1.00  0.00     0.000 HD 
HETATM   15  C   UNL     1      -9.938   7.693  70.241  1.00  0.00    -0.189 C  
HETATM   16  O   UNL     1      -9.708   8.845  69.875  1.00  0.00    -0.169 OA 
BRANCH  15  17
HETATM   17  C   UNL     1     -10.214   7.347  71.700  1.00  0.00    -0.205 C  
HETATM   18  C   UNL     1     -11.200   7.995  72.369  1.00  0.00    -0.432 C  
BRANCH  17  19
HETATM   19  C   UNL     1      -9.420   6.323  72.348  1.00  0.00    -0.144 A  
HETATM   20  C   UNL     1      -8.198   6.518  72.965  1.00  0.00    -0.111 A  
HETATM   21  H2  UNL     1      -8.643   2.444  73.904  1.00  0.00     0.000 HD 
HETATM   22  S   UNL     1      -7.653   5.045  73.654  1.00  0.00    -0.092 SA 
HETATM   23  H1  UNL     1     -10.169   2.516  73.034  1.00  0.00     0.000 HD 
HETATM   24  N   UNL     1      -9.903   5.025  72.421  1.00  0.00    -0.164 NA 
HETATM   25  N   UNL     1      -9.322   2.978  73.362  1.00  0.00    -0.088 NA 
HETATM   26  C   UNL     1      -9.078   4.268  73.102  1.00  0.00    -0.110 A  
ENDBRANCH  17  19
BRANCH  18  27
HETATM   27  C   UNL     1     -12.247   8.975  71.903  1.00  0.00    -0.451 C  
HETATM   28  O   UNL     1     -14.295   8.096  70.961  1.00  0.00    -0.209 OA 
HETATM   29  C   UNL     1     -13.686   8.493  71.946  1.00  0.00    -0.415 C  
HETATM   30  O   UNL     1     -14.259   8.562  73.165  1.00  0.00    -0.170 OA 
ENDBRANCH  18  27
ENDBRANCH  15  17
ENDBRANCH  11  13
TORSDOF 4
ENDMDL
MODEL      183
REMARK 921   NORMALIZED FREE ENERGY PREDICTED BY IDOCK:   -3.56 KCAL/MOL
REMARK 922        TOTAL FREE ENERGY PREDICTED BY IDOCK:   -4.95 KCAL/MOL
REMARK 923 INTER-LIGAND FREE ENERGY PREDICTED BY IDOCK:   -4.06 KCAL/MOL
REMARK 924 INTRA-LIGAND FREE ENERGY PREDICTED BY IDOCK:   -0.89 KCAL/MOL
REMARK 927      BINDING AFFINITY PREDICTED BY RF-SCORE:    0.00 PKD
ROOT
HETATM    1  CE  UNL     1      -8.900  12.031  65.800  1.00  0.00     0.190 C  
HETATM    2  SD  UNL     1      -9.540  10.400  66.257  1.00  0.00    -0.191 SA 
HETATM    3  CG  UNL     1     -10.954  10.484  65.124  1.00  0.00     0.416 C  
HETATM    4  CB  UNL     1     -11.683  11.792  65.205  1.00  0.00    -0.155 C  
HETATM    5  CA  UNL     1     -11.207  12.957  65.691  1.00  0.00    -0.295 C  
HETATM    6  N   UNL     1      -9.912  13.031  66.103  1.00  0.00    -0.275 N  
HETATM    7  C   UNL     1     -12.194  14.084  65.786  1.00  0.00    -0.453 C  
HETATM    8  C   UNL     1      -9.120  13.845  66.824  1.00  0.00    -0.223 C  
HETATM    9  OXT UNL     1     -13.359  13.975  65.420  1.00  0.00    -0.721 OA 
HETATM   10  O   UNL     1     -11.735  15.257  66.264  1.00  0.00    -0.104 OA 
HETATM   11  CA  UNL     1      -7.970  12.764  66.824  1.00  0.00     0.167 C  
HETATM   12  O   UNL     1      -9.366  14.927  67.308  1.00  0.00    -0.195 OA 
ENDROOT
BRANCH  11  13
HETATM   13  N   UNL     1      -7.729  12.128  68.148  1.00  0.00    -0.120 N  
HETATM   14  H   UNL     1      -8.200  12.525  68.960  1.00  0.00     0.000 HD 
HETATM   15  C   UNL     1      -6.914  11.042  68.345  1.00  0.00    -0.071 C  
HETATM   16  O   UNL     1      -6.226  10.582  67.434  1.00  0.00    -0.056 OA 
BRANCH  15  17
HETATM   17  C   UNL     1      -6.971  10.392  69.723  1.00  0.00    -0.138 C  
HETATM   18  C   UNL     1      -6.135  10.820  70.701  1.00  0.00    -0.066 C  
BRANCH  17  19
HETATM   19  C   UNL     1      -7.926   9.331  69.966  1.00  0.00    -0.121 A  
HETATM   20  C   UNL     1      -7.994   8.133  69.281  1.00  0.00    -0.115 A  
HETATM   21  H2  UNL     1     -11.035   7.339  72.074  1.00  0.00     0.000 HD 
HETATM   22  S   UNL     1      -9.232   7.151  69.948  1.00  0.00    -0.139 SA 
HETATM   23  H1  UNL     1     -10.711   8.940  72.727  1.00  0.00     0.000 HD 
HETATM   24  N   UNL     1      -8.847   9.460  70.996  1.00  0.00    -0.275 NA 
HETATM   25  N   UNL     1     -10.509   8.213  72.041  1.00  0.00    -0.241 NA 
HETATM   26  C   UNL     1      -9.572   8.374  71.100  1.00  0.00    -0.177 A  
ENDBRANCH  17  19
BRANCH  18  27
HETATM   27  C   UNL     1      -5.169  11.976  70.757  1.00  0.00    -0.143 C  
HETATM   28  O   UNL     1      -6.037  14.205  70.392  1.00  0.00    -0.158 OA 
HETATM   29  C   UNL     1      -5.747  13.315  71.180  1.00  0.00    -0.105 C  
HETATM   30  O   UNL     1      -5.894  13.460  72.513  1.00  0.00    -0.296 OA 
ENDBRANCH  18  27
ENDBRANCH  15  17
ENDBRANCH  11  13
TORSDOF 4
ENDMDL
MODEL      184
REMARK 921   NORMALIZED FREE ENERGY PREDICTED BY IDOCK:   -3.54 KCAL/MOL
REMARK 922        TOTAL FREE ENERGY PREDICTED BY IDOCK:   -4.92 KCAL/MOL
REMARK 923 INTER-LIGAND FREE ENERGY PREDICTED BY IDOCK:   -3.90 KCAL/MOL
REMARK 924 INTRA-LIGAND FREE ENERGY PREDICTED BY IDOCK:   -1.02 KCAL/MOL
REMARK 927      BINDING AFFINITY PREDICTED BY RF-SCORE:    0.00 PKD
ROOT
HETATM    1  CE  UNL     1      -9.513   8.429  69.274  1.00  0.00    -0.155 C  
HETATM    2  SD  UNL     1      -7.962   7.923  70.060  1.00  0.00    -0.113 SA 
HETATM    3  CG  UNL     1      -7.436   9.619  70.433  1.00  0.00    -0.158 C  
HETATM    4  CB  UNL     1      -7.593  10.544  69.263  1.00  0.00    -0.134 C  
HETATM    5  CA  UNL     1      -8.385  10.361  68.185  1.00  0.00    -0.117 C  
HETATM    6  N   UNL     1      -9.203   9.275  68.132  1.00  0.00    -0.131 N  
HETATM    7  C   UNL     1      -8.249  11.376  67.088  1.00  0.00    -0.157 C  
HETATM    8  C   UNL     1      -9.936   8.599  67.230  1.00  0.00    -0.219 C  
HETATM    9  OXT UNL     1      -7.487  12.334  67.164  1.00  0.00    -0.151 OA 
HETATM   10  O   UNL     1      -9.035  11.213  66.006  1.00  0.00    -0.191 OA 
HETATM   11  CA  UNL     1     -10.179   7.433  68.266  1.00  0.00    -0.183 C  
HETATM   12  O   UNL     1     -10.157   8.858  66.068  1.00  0.00    -0.260 OA 
ENDROOT
BRANCH  11  13
HETATM   13  N   UNL     1      -9.467   6.168  67.940  1.00  0.00    -0.116 N  
HETATM   14  H   UNL     1      -8.559   6.005  68.374  1.00  0.00     0.000 HD 
HETATM   15  C   UNL     1      -9.955   5.205  67.092  1.00  0.00    -0.191 C  
HETATM   16  O   UNL     1     -10.986   5.382  66.444  1.00  0.00    -0.243 OA 
BRANCH  15  17
HETATM   17  C   UNL     1      -9.197   3.882  67.060  1.00  0.00    -0.194 C  
HETATM   18  C   UNL     1      -8.838   3.343  65.869  1.00  0.00    -0.135 C  
BRANCH  17  19
HETATM   19  C   UNL     1      -8.866   3.226  68.309  1.00  0.00    -0.119 A  
HETATM   20  C   UNL     1      -9.466   2.084  68.804  1.00  0.00    -0.127 A  
HETATM   21  H2  UNL     1      -6.576   2.540  71.824  1.00  0.00     0.000 HD 
HETATM   22  S   UNL     1      -8.713   1.623  70.275  1.00  0.00    -0.059 SA 
HETATM   23  H1  UNL     1      -6.041   3.970  70.953  1.00  0.00     0.000 HD 
HETATM   24  N   UNL     1      -7.834   3.722  69.091  1.00  0.00    -0.052 NA 
HETATM   25  N   UNL     1      -6.678   3.178  71.036  1.00  0.00    -0.031 NA 
HETATM   26  C   UNL     1      -7.643   2.955  70.136  1.00  0.00    -0.043 A  
ENDBRANCH  17  19
BRANCH  18  27
HETATM   27  C   UNL     1      -8.928   3.877  64.462  1.00  0.00    -0.132 C  
HETATM   28  O   UNL     1      -9.537   2.340  62.695  1.00  0.00    -0.090 OA 
HETATM   29  C   UNL     1      -9.890   3.161  63.531  1.00  0.00    -0.137 C  
HETATM   30  O   UNL     1     -11.181   3.524  63.680  1.00  0.00    -0.262 OA 
ENDBRANCH  18  27
ENDBRANCH  15  17
ENDBRANCH  11  13
TORSDOF 4
ENDMDL
MODEL      185
REMARK 921   NORMALIZED FREE ENERGY PREDICTED BY IDOCK:   -3.52 KCAL/MOL
REMARK 922        TOTAL FREE ENERGY PREDICTED BY IDOCK:   -4.90 KCAL/MOL
REMARK 923 INTER-LIGAND FREE ENERGY PREDICTED BY IDOCK:   -4.51 KCAL/MOL
REMARK 924 INTRA-LIGAND FREE ENERGY PREDICTED BY IDOCK:   -0.39 KCAL/MOL
REMARK 927      BINDING AFFINITY PREDICTED BY RF-SCORE:    0.00 PKD
ROOT
HETATM    1  CE  UNL     1      -7.495   9.987  67.745  1.00  0.00    -0.089 C  
HETATM    2  SD  UNL     1      -9.221   9.866  67.212  1.00  0.00    -0.138 SA 
HETATM    3  CG  UNL     1      -9.175  11.400  66.246  1.00  0.00    -0.208 C  
HETATM    4  CB  UNL     1      -8.541  12.536  66.993  1.00  0.00    -0.188 C  
HETATM    5  CA  UNL     1      -7.715  12.445  68.056  1.00  0.00    -0.135 C  
HETATM    6  N   UNL     1      -7.324  11.219  68.498  1.00  0.00    -0.099 N  
HETATM    7  C   UNL     1      -7.331  13.744  68.704  1.00  0.00    -0.117 C  
HETATM    8  C   UNL     1      -6.748  10.666  69.580  1.00  0.00    -0.116 C  
HETATM    9  OXT UNL     1      -7.717  14.831  68.287  1.00  0.00    -0.109 OA 
HETATM   10  O   UNL     1      -6.503  13.674  69.764  1.00  0.00    -0.118 OA 
HETATM   11  CA  UNL     1      -7.077   9.219  69.043  1.00  0.00    -0.067 C  
HETATM   12  O   UNL     1      -6.287  11.200  70.564  1.00  0.00    -0.303 OA 
ENDROOT
BRANCH  11  13
HETATM   13  N   UNL     1      -8.127   8.503  69.817  1.00  0.00    -0.113 N  
HETATM   14  H   UNL     1      -8.724   9.054  70.433  1.00  0.00     0.000 HD 
HETATM   15  C   UNL     1      -8.344   7.149  69.755  1.00  0.00    -0.132 C  
HETATM   16  O   UNL     1      -7.592   6.407  69.124  1.00  0.00    -0.095 OA 
BRANCH  15  17
HETATM   17  C   UNL     1      -9.605   6.632  70.437  1.00  0.00    -0.173 C  
HETATM   18  C   UNL     1      -9.802   5.296  70.561  1.00  0.00    -0.274 C  
BRANCH  17  19
HETATM   19  C   UNL     1     -10.572   7.581  70.952  1.00  0.00    -0.220 A  
HETATM   20  C   UNL     1     -11.361   7.402  72.073  1.00  0.00    -0.264 A  
HETATM   21  H2  UNL     1     -12.569  11.327  71.171  1.00  0.00     0.000 HD 
HETATM   22  S   UNL     1     -12.306   8.807  72.348  1.00  0.00    -0.287 SA 
HETATM   23  H1  UNL     1     -11.467  11.242  69.803  1.00  0.00     0.000 HD 
HETATM   24  N   UNL     1     -10.725   8.810  70.328  1.00  0.00    -0.222 NA 
HETATM   25  N   UNL     1     -11.894  10.801  70.618  1.00  0.00    -0.342 NA 
HETATM   26  C   UNL     1     -11.589   9.548  70.979  1.00  0.00    -0.344 A  
ENDBRANCH  17  19
BRANCH  18  27
HETATM   27  C   UNL     1      -8.909   4.121  70.251  1.00  0.00    -0.137 C  
HETATM   28  O   UNL     1      -9.898   2.185  69.189  1.00  0.00     0.053 OA 
HETATM   29  C   UNL     1      -9.319   3.257  69.072  1.00  0.00    -0.163 C  
HETATM   30  O   UNL     1      -8.969   3.755  67.869  1.00  0.00    -0.106 OA 
ENDBRANCH  18  27
ENDBRANCH  15  17
ENDBRANCH  11  13
TORSDOF 4
ENDMDL
MODEL      186
REMARK 921   NORMALIZED FREE ENERGY PREDICTED BY IDOCK:   -3.50 KCAL/MOL
REMARK 922        TOTAL FREE ENERGY PREDICTED BY IDOCK:   -4.87 KCAL/MOL
REMARK 923 INTER-LIGAND FREE ENERGY PREDICTED BY IDOCK:   -5.75 KCAL/MOL
REMARK 924 INTRA-LIGAND FREE ENERGY PREDICTED BY IDOCK:    0.88 KCAL/MOL
REMARK 927      BINDING AFFINITY PREDICTED BY RF-SCORE:    0.00 PKD
ROOT
HETATM    1  CE  UNL     1      -8.802  10.688  68.534  1.00  0.00    -0.148 C  
HETATM    2  SD  UNL     1     -10.610  10.741  68.446  1.00  0.00    -0.214 SA 
HETATM    3  CG  UNL     1     -10.739   9.265  67.399  1.00  0.00    -0.193 C  
HETATM    4  CB  UNL     1      -9.780   9.286  66.246  1.00  0.00    -0.340 C  
HETATM    5  CA  UNL     1      -8.656  10.026  66.140  1.00  0.00    -0.133 C  
HETATM    6  N   UNL     1      -8.264  10.802  67.188  1.00  0.00    -0.121 N  
HETATM    7  C   UNL     1      -7.949   9.965  64.818  1.00  0.00    -0.143 C  
HETATM    8  C   UNL     1      -7.415  11.813  67.441  1.00  0.00    -0.143 C  
HETATM    9  OXT UNL     1      -8.342   9.266  63.889  1.00  0.00    -0.159 OA 
HETATM   10  O   UNL     1      -6.822  10.693  64.695  1.00  0.00     0.012 OA 
HETATM   11  CA  UNL     1      -8.048  12.018  68.872  1.00  0.00     0.103 C  
HETATM   12  O   UNL     1      -6.598  12.332  66.713  1.00  0.00    -0.039 OA 
ENDROOT
BRANCH  11  13
HETATM   13  N   UNL     1      -8.841  13.268  69.016  1.00  0.00    -0.265 N  
HETATM   14  H   UNL     1      -8.831  13.738  69.921  1.00  0.00     0.000 HD 
HETATM   15  C   UNL     1      -9.586  13.830  68.010  1.00  0.00    -0.214 C  
HETATM   16  O   UNL     1      -9.739  13.261  66.929  1.00  0.00    -0.234 OA 
BRANCH  15  17
HETATM   17  C   UNL     1     -10.142  15.225  68.274  1.00  0.00    -0.225 C  
HETATM   18  C   UNL     1     -11.159  15.387  69.156  1.00  0.00    -0.267 C  
BRANCH  17  19
HETATM   19  C   UNL     1      -9.565  16.360  67.581  1.00  0.00    -0.227 A  
HETATM   20  C   UNL     1     -10.165  17.593  67.414  1.00  0.00    -0.345 A  
HETATM   21  H2  UNL     1      -6.479  18.528  65.619  1.00  0.00     0.000 HD 
HETATM   22  S   UNL     1      -9.095  18.654  66.594  1.00  0.00    -0.310 SA 
HETATM   23  H1  UNL     1      -6.006  16.871  65.971  1.00  0.00     0.000 HD 
HETATM   24  N   UNL     1      -8.283  16.266  67.060  1.00  0.00    -0.185 NA 
HETATM   25  N   UNL     1      -6.706  17.611  66.003  1.00  0.00    -0.271 NA 
HETATM   26  C   UNL     1      -7.917  17.410  66.538  1.00  0.00    -0.281 A  
ENDBRANCH  17  19
BRANCH  18  27
HETATM   27  C   UNL     1     -11.829  14.419  70.098  1.00  0.00    -0.380 C  
HETATM   28  O   UNL     1     -11.599  14.798  72.477  1.00  0.00    -0.204 OA 
HETATM   29  C   UNL     1     -12.241  14.973  71.450  1.00  0.00    -0.328 C  
HETATM   30  O   UNL     1     -13.401  15.661  71.438  1.00  0.00    -0.499 OA 
ENDBRANCH  18  27
ENDBRANCH  15  17
ENDBRANCH  11  13
TORSDOF 4
ENDMDL
MODEL      187
REMARK 921   NORMALIZED FREE ENERGY PREDICTED BY IDOCK:   -3.48 KCAL/MOL
REMARK 922        TOTAL FREE ENERGY PREDICTED BY IDOCK:   -4.85 KCAL/MOL
REMARK 923 INTER-LIGAND FREE ENERGY PREDICTED BY IDOCK:   -3.65 KCAL/MOL
REMARK 924 INTRA-LIGAND FREE ENERGY PREDICTED BY IDOCK:   -1.20 KCAL/MOL
REMARK 927      BINDING AFFINITY PREDICTED BY RF-SCORE:    0.00 PKD
ROOT
HETATM    1  CE  UNL     1      -5.681  10.217  68.731  1.00  0.00    -0.041 C  
HETATM    2  SD  UNL     1      -7.132  10.205  67.648  1.00  0.00    -0.087 SA 
HETATM    3  CG  UNL     1      -6.971  11.951  67.182  1.00  0.00    -0.142 C  
HETATM    4  CB  UNL     1      -6.736  12.845  68.363  1.00  0.00    -0.092 C  
HETATM    5  CA  UNL     1      -6.273  12.481  69.577  1.00  0.00    -0.120 C  
HETATM    6  N   UNL     1      -5.896  11.190  69.790  1.00  0.00    -0.068 N  
HETATM    7  C   UNL     1      -6.264  13.552  70.628  1.00  0.00     0.045 C  
HETATM    8  C   UNL     1      -5.621  10.369  70.819  1.00  0.00    -0.092 C  
HETATM    9  OXT UNL     1      -6.627  14.702  70.403  1.00  0.00    -0.179 OA 
HETATM   10  O   UNL     1      -5.799  13.209  71.844  1.00  0.00    -0.306 OA 
HETATM   11  CA  UNL     1      -5.595   9.125  69.849  1.00  0.00    -0.032 C  
HETATM   12  O   UNL     1      -5.551  10.616  72.002  1.00  0.00    -0.309 OA 
ENDROOT
BRANCH  11  13
HETATM   13  N   UNL     1      -6.741   8.191  70.022  1.00  0.00    -0.039 N  
HETATM   14  H   UNL     1      -7.682   8.566  69.912  1.00  0.00     0.000 HD 
HETATM   15  C   UNL     1      -6.612   6.858  70.319  1.00  0.00    -0.048 C  
HETATM   16  O   UNL     1      -5.515   6.361  70.579  1.00  0.00    -0.017 OA 
BRANCH  15  17
HETATM   17  C   UNL     1      -7.880   6.017  70.231  1.00  0.00    -0.102 C  
HETATM   18  C   UNL     1      -8.628   5.811  71.343  1.00  0.00    -0.129 C  
BRANCH  17  19
HETATM   19  C   UNL     1      -8.270   5.456  68.953  1.00  0.00    -0.100 A  
HETATM   20  C   UNL     1      -7.586   4.476  68.259  1.00  0.00    -0.072 A  
HETATM   21  H2  UNL     1     -10.859   4.817  65.642  1.00  0.00     0.000 HD 
HETATM   22  S   UNL     1      -8.443   4.069  66.830  1.00  0.00    -0.102 SA 
HETATM   23  H1  UNL     1     -11.473   6.050  66.736  1.00  0.00     0.000 HD 
HETATM   24  N   UNL     1      -9.448   5.873  68.352  1.00  0.00    -0.119 NA 
HETATM   25  N   UNL     1     -10.749   5.375  66.489  1.00  0.00    -0.297 NA 
HETATM   26  C   UNL     1      -9.659   5.203  67.246  1.00  0.00    -0.142 A  
ENDBRANCH  17  19
BRANCH  18  27
HETATM   27  C   UNL     1      -8.531   6.385  72.733  1.00  0.00    -0.121 C  
HETATM   28  O   UNL     1      -8.095   8.755  72.961  1.00  0.00    -0.409 OA 
HETATM   29  C   UNL     1      -8.913   7.847  72.885  1.00  0.00    -0.213 C  
HETATM   30  O   UNL     1     -10.241   8.070  72.958  1.00  0.00    -0.315 OA 
ENDBRANCH  18  27
ENDBRANCH  15  17
ENDBRANCH  11  13
TORSDOF 4
ENDMDL
MODEL      188
REMARK 921   NORMALIZED FREE ENERGY PREDICTED BY IDOCK:   -3.45 KCAL/MOL
REMARK 922        TOTAL FREE ENERGY PREDICTED BY IDOCK:   -4.81 KCAL/MOL
REMARK 923 INTER-LIGAND FREE ENERGY PREDICTED BY IDOCK:   -5.18 KCAL/MOL
REMARK 924 INTRA-LIGAND FREE ENERGY PREDICTED BY IDOCK:    0.38 KCAL/MOL
REMARK 927      BINDING AFFINITY PREDICTED BY RF-SCORE:    0.00 PKD
ROOT
HETATM    1  CE  UNL     1      -9.939  10.604  66.902  1.00  0.00    -0.202 C  
HETATM    2  SD  UNL     1      -9.728  10.915  68.674  1.00  0.00    -0.189 SA 
HETATM    3  CG  UNL     1      -8.515  12.243  68.438  1.00  0.00    -0.138 C  
HETATM    4  CB  UNL     1      -7.444  11.880  67.453  1.00  0.00    -0.148 C  
HETATM    5  CA  UNL     1      -7.503  10.917  66.509  1.00  0.00    -0.142 C  
HETATM    6  N   UNL     1      -8.656  10.214  66.340  1.00  0.00    -0.129 N  
HETATM    7  C   UNL     1      -6.235  10.666  65.745  1.00  0.00    -0.126 C  
HETATM    8  C   UNL     1      -9.081   9.089  65.739  1.00  0.00    -0.219 C  
HETATM    9  OXT UNL     1      -5.208  11.308  65.937  1.00  0.00    -0.211 OA 
HETATM   10  O   UNL     1      -6.276   9.712  64.795  1.00  0.00    -0.077 OA 
HETATM   11  CA  UNL     1     -10.477   9.200  66.466  1.00  0.00    -0.127 C  
HETATM   12  O   UNL     1      -8.477   8.327  65.018  1.00  0.00    -0.166 OA 
ENDROOT
BRANCH  11  13
HETATM   13  N   UNL     1     -10.704   8.168  67.513  1.00  0.00    -0.487 N  
HETATM   14  H   UNL     1     -11.663   7.866  67.685  1.00  0.00     0.000 HD 
HETATM   15  C   UNL     1      -9.707   7.597  68.263  1.00  0.00    -0.157 C  
HETATM   16  O   UNL     1      -8.543   7.994  68.193  1.00  0.00    -0.126 OA 
BRANCH  15  17
HETATM   17  C   UNL     1     -10.102   6.400  69.120  1.00  0.00    -0.194 C  
HETATM   18  C   UNL     1     -10.119   5.159  68.574  1.00  0.00    -0.214 C  
BRANCH  17  19
HETATM   19  C   UNL     1     -10.448   6.609  70.512  1.00  0.00    -0.203 A  
HETATM   20  C   UNL     1     -10.687   7.832  71.110  1.00  0.00    -0.227 A  
HETATM   21  H2  UNL     1     -11.554   5.416  74.440  1.00  0.00     0.000 HD 
HETATM   22  S   UNL     1     -11.127   7.601  72.751  1.00  0.00    -0.389 SA 
HETATM   23  H1  UNL     1     -11.173   4.041  73.411  1.00  0.00     0.000 HD 
HETATM   24  N   UNL     1     -10.609   5.516  71.350  1.00  0.00    -0.250 NA 
HETATM   25  N   UNL     1     -11.257   5.050  73.536  1.00  0.00    -0.320 NA 
HETATM   26  C   UNL     1     -10.987   5.906  72.543  1.00  0.00    -0.264 A  
ENDBRANCH  17  19
BRANCH  18  27
HETATM   27  C   UNL     1      -9.675   4.656  67.224  1.00  0.00    -0.216 C  
HETATM   28  O   UNL     1      -7.439   5.206  66.481  1.00  0.00    -0.084 OA 
HETATM   29  C   UNL     1      -8.185   4.421  67.051  1.00  0.00    -0.101 C  
HETATM   30  O   UNL     1      -7.743   3.252  67.559  1.00  0.00    -0.075 OA 
ENDBRANCH  18  27
ENDBRANCH  15  17
ENDBRANCH  11  13
TORSDOF 4
ENDMDL
MODEL      189
REMARK 921   NORMALIZED FREE ENERGY PREDICTED BY IDOCK:   -3.40 KCAL/MOL
REMARK 922        TOTAL FREE ENERGY PREDICTED BY IDOCK:   -4.75 KCAL/MOL
REMARK 923 INTER-LIGAND FREE ENERGY PREDICTED BY IDOCK:   -4.66 KCAL/MOL
REMARK 924 INTRA-LIGAND FREE ENERGY PREDICTED BY IDOCK:   -0.09 KCAL/MOL
REMARK 927      BINDING AFFINITY PREDICTED BY RF-SCORE:    0.00 PKD
ROOT
HETATM    1  CE  UNL     1     -10.945  10.966  67.494  1.00  0.00    -0.293 C  
HETATM    2  SD  UNL     1     -11.785  10.960  69.099  1.00  0.00    -0.319 SA 
HETATM    3  CG  UNL     1     -11.974  12.763  69.163  1.00  0.00    -0.246 C  
HETATM    4  CB  UNL     1     -10.710  13.490  68.810  1.00  0.00    -0.261 C  
HETATM    5  CA  UNL     1      -9.657  12.999  68.124  1.00  0.00    -0.227 C  
HETATM    6  N   UNL     1      -9.719  11.740  67.611  1.00  0.00    -0.179 N  
HETATM    7  C   UNL     1      -8.457  13.896  68.029  1.00  0.00    -0.173 C  
HETATM    8  C   UNL     1      -8.894  10.809  67.102  1.00  0.00    -0.134 C  
HETATM    9  OXT UNL     1      -8.431  15.020  68.519  1.00  0.00    -0.149 OA 
HETATM   10  O   UNL     1      -7.398  13.426  67.343  1.00  0.00    -0.163 OA 
HETATM   11  CA  UNL     1     -10.049   9.734  67.135  1.00  0.00    -0.211 C  
HETATM   12  O   UNL     1      -7.710  10.881  66.858  1.00  0.00    -0.122 OA 
ENDROOT
BRANCH  11  13
HETATM   13  N   UNL     1      -9.863   8.667  68.155  1.00  0.00    -0.160 N  
HETATM   14  H   UNL     1     -10.268   8.814  69.079  1.00  0.00     0.000 HD 
HETATM   15  C   UNL     1      -9.181   7.497  67.932  1.00  0.00    -0.136 C  
HETATM   16  O   UNL     1      -8.570   7.300  66.882  1.00  0.00    -0.119 OA 
BRANCH  15  17
HETATM   17  C   UNL     1      -9.291   6.430  69.016  1.00  0.00    -0.127 C  
HETATM   18  C   UNL     1      -9.996   6.691  70.145  1.00  0.00    -0.190 C  
BRANCH  17  19
HETATM   19  C   UNL     1      -8.646   5.149  68.816  1.00  0.00    -0.086 A  
HETATM   20  C   UNL     1      -7.295   4.894  68.958  1.00  0.00    -0.054 A  
HETATM   21  H2  UNL     1      -8.511   0.953  68.142  1.00  0.00     0.000 HD 
HETATM   22  S   UNL     1      -6.985   3.228  68.692  1.00  0.00    -0.049 SA 
HETATM   23  H1  UNL     1     -10.145   1.593  68.019  1.00  0.00     0.000 HD 
HETATM   24  N   UNL     1      -9.412   4.038  68.496  1.00  0.00    -0.159 NA 
HETATM   25  N   UNL     1      -9.150   1.748  68.176  1.00  0.00    -0.138 NA 
HETATM   26  C   UNL     1      -8.658   2.968  68.427  1.00  0.00    -0.087 A  
ENDBRANCH  17  19
BRANCH  18  27
HETATM   27  C   UNL     1     -10.865   7.859  70.534  1.00  0.00    -0.242 C  
HETATM   28  O   UNL     1     -10.686   8.714  72.791  1.00  0.00    -0.151 OA 
HETATM   29  C   UNL     1     -10.323   8.768  71.623  1.00  0.00    -0.321 C  
HETATM   30  O   UNL     1      -9.417   9.670  71.194  1.00  0.00    -0.164 OA 
ENDBRANCH  18  27
ENDBRANCH  15  17
ENDBRANCH  11  13
TORSDOF 4
ENDMDL
MODEL      190
REMARK 921   NORMALIZED FREE ENERGY PREDICTED BY IDOCK:   -3.37 KCAL/MOL
REMARK 922        TOTAL FREE ENERGY PREDICTED BY IDOCK:   -4.72 KCAL/MOL
REMARK 923 INTER-LIGAND FREE ENERGY PREDICTED BY IDOCK:   -3.53 KCAL/MOL
REMARK 924 INTRA-LIGAND FREE ENERGY PREDICTED BY IDOCK:   -1.18 KCAL/MOL
REMARK 927      BINDING AFFINITY PREDICTED BY RF-SCORE:    0.00 PKD
ROOT
HETATM    1  CE  UNL     1      -6.240   8.542  67.226  1.00  0.00    -0.056 C  
HETATM    2  SD  UNL     1      -7.543   8.618  65.971  1.00  0.00    -0.094 SA 
HETATM    3  CG  UNL     1      -7.229  10.355  65.551  1.00  0.00    -0.138 C  
HETATM    4  CB  UNL     1      -7.094  11.228  66.763  1.00  0.00    -0.143 C  
HETATM    5  CA  UNL     1      -6.805  10.831  68.020  1.00  0.00    -0.068 C  
HETATM    6  N   UNL     1      -6.531   9.520  68.262  1.00  0.00    -0.053 N  
HETATM    7  C   UNL     1      -6.867  11.895  69.078  1.00  0.00    -0.105 C  
HETATM    8  C   UNL     1      -6.432   8.679  69.307  1.00  0.00    -0.042 C  
HETATM    9  OXT UNL     1      -7.135  13.064  68.824  1.00  0.00    -0.100 OA 
HETATM   10  O   UNL     1      -6.578  11.518  70.338  1.00  0.00    -0.185 OA 
HETATM   11  CA  UNL     1      -6.355   7.440  68.332  1.00  0.00    -0.040 C  
HETATM   12  O   UNL     1      -6.496   8.914  70.493  1.00  0.00    -0.039 OA 
ENDROOT
BRANCH  11  13
HETATM   13  N   UNL     1      -7.563   6.573  68.350  1.00  0.00    -0.101 N  
HETATM   14  H   UNL     1      -8.473   7.019  68.232  1.00  0.00     0.000 HD 
HETATM   15  C   UNL     1      -7.533   5.211  68.515  1.00  0.00    -0.074 C  
HETATM   16  O   UNL     1      -6.486   4.619  68.777  1.00  0.00    -0.035 OA 
BRANCH  15  17
HETATM   17  C   UNL     1      -8.843   4.469  68.276  1.00  0.00    -0.126 C  
HETATM   18  C   UNL     1      -9.805   4.480  69.232  1.00  0.00    -0.241 C  
BRANCH  17  19
HETATM   19  C   UNL     1      -9.042   3.768  67.024  1.00  0.00    -0.162 A  
HETATM   20  C   UNL     1      -8.659   2.467  66.756  1.00  0.00    -0.112 A  
HETATM   21  H2  UNL     1     -10.580   3.235  63.096  1.00  0.00     0.000 HD 
HETATM   22  S   UNL     1      -9.153   2.029  65.174  1.00  0.00    -0.087 SA 
HETATM   23  H1  UNL     1     -10.914   4.843  63.727  1.00  0.00     0.000 HD 
HETATM   24  N   UNL     1      -9.710   4.398  65.985  1.00  0.00    -0.193 NA 
HETATM   25  N   UNL     1     -10.499   3.920  63.849  1.00  0.00    -0.232 NA 
HETATM   26  C   UNL     1      -9.850   3.581  64.970  1.00  0.00    -0.111 A  
ENDBRANCH  17  19
BRANCH  18  27
HETATM   27  C   UNL     1      -9.912   5.233  70.534  1.00  0.00    -0.299 C  
HETATM   28  O   UNL     1      -9.571   7.628  70.498  1.00  0.00    -0.168 OA 
HETATM   29  C   UNL     1     -10.347   6.684  70.438  1.00  0.00    -0.199 C  
HETATM   30  O   UNL     1     -11.678   6.858  70.305  1.00  0.00    -0.330 OA 
ENDBRANCH  18  27
ENDBRANCH  15  17
ENDBRANCH  11  13
TORSDOF 4
ENDMDL
MODEL      191
REMARK 921   NORMALIZED FREE ENERGY PREDICTED BY IDOCK:   -3.24 KCAL/MOL
REMARK 922        TOTAL FREE ENERGY PREDICTED BY IDOCK:   -4.54 KCAL/MOL
REMARK 923 INTER-LIGAND FREE ENERGY PREDICTED BY IDOCK:   -3.70 KCAL/MOL
REMARK 924 INTRA-LIGAND FREE ENERGY PREDICTED BY IDOCK:   -0.84 KCAL/MOL
REMARK 927      BINDING AFFINITY PREDICTED BY RF-SCORE:    0.00 PKD
ROOT
HETATM    1  CE  UNL     1      -9.474   8.885  69.383  1.00  0.00    -0.161 C  
HETATM    2  SD  UNL     1      -7.825   8.420  69.971  1.00  0.00    -0.107 SA 
HETATM    3  CG  UNL     1      -7.292  10.131  70.253  1.00  0.00    -0.095 C  
HETATM    4  CB  UNL     1      -7.615  11.035  69.101  1.00  0.00    -0.113 C  
HETATM    5  CA  UNL     1      -8.534  10.822  68.136  1.00  0.00    -0.125 C  
HETATM    6  N   UNL     1      -9.330   9.719  68.201  1.00  0.00    -0.129 N  
HETATM    7  C   UNL     1      -8.560  11.823  67.018  1.00  0.00    -0.173 C  
HETATM    8  C   UNL     1     -10.158   9.017  67.409  1.00  0.00    -0.230 C  
HETATM    9  OXT UNL     1      -7.815  12.796  66.984  1.00  0.00    -0.125 OA 
HETATM   10  O   UNL     1      -9.474  11.629  66.048  1.00  0.00    -0.220 OA 
HETATM   11  CA  UNL     1     -10.242   7.862  68.481  1.00  0.00    -0.205 C  
HETATM   12  O   UNL     1     -10.530   9.254  66.281  1.00  0.00    -0.188 OA 
ENDROOT
BRANCH  11  13
HETATM   13  N   UNL     1      -9.552   6.606  68.083  1.00  0.00    -0.121 N  
HETATM   14  H   UNL     1      -8.592   6.468  68.397  1.00  0.00     0.000 HD 
HETATM   15  C   UNL     1     -10.125   5.620  67.319  1.00  0.00    -0.177 C  
HETATM   16  O   UNL     1     -11.236   5.766  66.810  1.00  0.00    -0.127 OA 
BRANCH  15  17
HETATM   17  C   UNL     1      -9.350   4.312  67.207  1.00  0.00    -0.186 C  
HETATM   18  C   UNL     1      -9.140   3.558  68.315  1.00  0.00    -0.201 C  
BRANCH  17  19
HETATM   19  C   UNL     1      -8.856   3.891  65.911  1.00  0.00    -0.125 A  
HETATM   20  C   UNL     1      -7.637   4.237  65.360  1.00  0.00    -0.085 A  
HETATM   21  H2  UNL     1      -8.903   1.645  62.302  1.00  0.00     0.000 HD 
HETATM   22  S   UNL     1      -7.442   3.459  63.844  1.00  0.00    -0.067 SA 
HETATM   23  H1  UNL     1     -10.367   1.411  63.247  1.00  0.00     0.000 HD 
HETATM   24  N   UNL     1      -9.616   3.028  65.136  1.00  0.00    -0.100 NA 
HETATM   25  N   UNL     1      -9.458   1.856  63.131  1.00  0.00    -0.091 NA 
HETATM   26  C   UNL     1      -8.971   2.711  64.040  1.00  0.00    -0.105 A  
ENDBRANCH  17  19
BRANCH  18  27
HETATM   27  C   UNL     1      -9.657   3.688  69.724  1.00  0.00    -0.228 C  
HETATM   28  O   UNL     1      -8.339   2.735  71.516  1.00  0.00    -0.061 OA 
HETATM   29  C   UNL     1      -8.612   3.708  70.825  1.00  0.00    -0.071 C  
HETATM   30  O   UNL     1      -8.016   4.904  71.005  1.00  0.00    -0.087 OA 
ENDBRANCH  18  27
ENDBRANCH  15  17
ENDBRANCH  11  13
TORSDOF 4
ENDMDL
MODEL      192
REMARK 921   NORMALIZED FREE ENERGY PREDICTED BY IDOCK:   -2.64 KCAL/MOL
REMARK 922        TOTAL FREE ENERGY PREDICTED BY IDOCK:   -3.80 KCAL/MOL
REMARK 923 INTER-LIGAND FREE ENERGY PREDICTED BY IDOCK:   -3.73 KCAL/MOL
REMARK 924 INTRA-LIGAND FREE ENERGY PREDICTED BY IDOCK:   -0.08 KCAL/MOL
REMARK 927      BINDING AFFINITY PREDICTED BY RF-SCORE:    0.00 PKD
ROOT
HETATM    1  CE  UNL     1      -6.100  11.513  68.801  1.00  0.00    -0.049 C  
HETATM    2  SD  UNL     1      -7.727  11.624  68.014  1.00  0.00    -0.130 SA 
HETATM    3  CG  UNL     1      -7.484  13.327  67.436  1.00  0.00    -0.124 C  
HETATM    4  CB  UNL     1      -6.935  14.227  68.502  1.00  0.00    -0.102 C  
HETATM    5  CA  UNL     1      -6.285  13.853  69.623  1.00  0.00    -0.124 C  
HETATM    6  N   UNL     1      -6.007  12.537  69.829  1.00  0.00    -0.123 N  
HETATM    7  C   UNL     1      -5.964  14.951  70.596  1.00  0.00    -0.106 C  
HETATM    8  C   UNL     1      -5.622  11.725  70.829  1.00  0.00    -0.115 C  
HETATM    9  OXT UNL     1      -6.245  16.126  70.384  1.00  0.00    -0.043 OA 
HETATM   10  O   UNL     1      -5.310  14.598  71.719  1.00  0.00    -0.149 OA 
HETATM   11  CA  UNL     1      -5.911  10.454  69.939  1.00  0.00    -0.055 C  
HETATM   12  O   UNL     1      -5.300  12.000  71.963  1.00  0.00    -0.360 OA 
ENDROOT
BRANCH  11  13
HETATM   13  N   UNL     1      -7.090   9.658  70.374  1.00  0.00    -0.122 N  
HETATM   14  H   UNL     1      -7.798  10.124  70.940  1.00  0.00     0.000 HD 
HETATM   15  C   UNL     1      -7.286   8.336  70.062  1.00  0.00    -0.063 C  
HETATM   16  O   UNL     1      -6.422   7.678  69.482  1.00  0.00    -0.031 OA 
BRANCH  15  17
HETATM   17  C   UNL     1      -8.655   7.755  70.399  1.00  0.00    -0.137 C  
HETATM   18  C   UNL     1      -9.762   8.528  70.272  1.00  0.00    -0.182 C  
BRANCH  17  19
HETATM   19  C   UNL     1      -8.750   6.379  70.842  1.00  0.00    -0.136 A  
HETATM   20  C   UNL     1      -8.802   5.956  72.157  1.00  0.00    -0.136 A  
HETATM   21  H2  UNL     1      -9.271   2.188  70.350  1.00  0.00     0.000 HD 
HETATM   22  S   UNL     1      -8.980   4.250  72.212  1.00  0.00    -0.117 SA 
HETATM   23  H1  UNL     1      -9.161   3.028  68.809  1.00  0.00     0.000 HD 
HETATM   24  N   UNL     1      -8.845   5.361  69.904  1.00  0.00    -0.123 NA 
HETATM   25  N   UNL     1      -9.153   3.056  69.828  1.00  0.00    -0.117 NA 
HETATM   26  C   UNL     1      -8.993   4.203  70.499  1.00  0.00    -0.095 A  
ENDBRANCH  17  19
BRANCH  18  27
HETATM   27  C   UNL     1      -9.955   9.912  69.707  1.00  0.00    -0.275 C  
HETATM   28  O   UNL     1     -11.530  10.192  67.891  1.00  0.00    -0.283 OA 
HETATM   29  C   UNL     1     -11.314  10.204  69.096  1.00  0.00    -0.143 C  
HETATM   30  O   UNL     1     -12.274  10.509  69.993  1.00  0.00    -0.288 OA 
ENDBRANCH  18  27
ENDBRANCH  15  17
ENDBRANCH  11  13
TORSDOF 4
ENDMDL
MODEL      193
REMARK 921   NORMALIZED FREE ENERGY PREDICTED BY IDOCK:   -2.61 KCAL/MOL
REMARK 922        TOTAL FREE ENERGY PREDICTED BY IDOCK:   -3.77 KCAL/MOL
REMARK 923 INTER-LIGAND FREE ENERGY PREDICTED BY IDOCK:   -4.01 KCAL/MOL
REMARK 924 INTRA-LIGAND FREE ENERGY PREDICTED BY IDOCK:    0.24 KCAL/MOL
REMARK 927      BINDING AFFINITY PREDICTED BY RF-SCORE:    0.00 PKD
ROOT
HETATM    1  CE  UNL     1      -7.161   8.844  66.456  1.00  0.00    -0.084 C  
HETATM    2  SD  UNL     1      -8.326   7.832  65.510  1.00  0.00    -0.134 SA 
HETATM    3  CG  UNL     1      -8.728   9.150  64.330  1.00  0.00    -0.153 C  
HETATM    4  CB  UNL     1      -9.013  10.461  65.002  1.00  0.00    -0.221 C  
HETATM    5  CA  UNL     1      -8.643  10.831  66.246  1.00  0.00    -0.162 C  
HETATM    6  N   UNL     1      -7.870   9.996  66.992  1.00  0.00    -0.102 N  
HETATM    7  C   UNL     1      -9.179  12.148  66.727  1.00  0.00    -0.207 C  
HETATM    8  C   UNL     1      -7.483   9.840  68.270  1.00  0.00    -0.080 C  
HETATM    9  OXT UNL     1      -9.889  12.868  66.032  1.00  0.00    -0.267 OA 
HETATM   10  O   UNL     1      -8.817  12.537  67.965  1.00  0.00    -0.174 OA 
HETATM   11  CA  UNL     1      -6.866   8.427  67.936  1.00  0.00    -0.067 C  
HETATM   12  O   UNL     1      -7.689  10.551  69.228  1.00  0.00    -0.121 OA 
ENDROOT
BRANCH  11  13
HETATM   13  N   UNL     1      -7.616   7.280  68.515  1.00  0.00    -0.115 N  
HETATM   14  H   UNL     1      -7.104   6.418  68.697  1.00  0.00     0.000 HD 
HETATM   15  C   UNL     1      -8.954   7.308  68.820  1.00  0.00    -0.129 C  
HETATM   16  O   UNL     1      -9.660   8.272  68.523  1.00  0.00    -0.146 OA 
BRANCH  15  17
HETATM   17  C   UNL     1      -9.494   6.125  69.615  1.00  0.00    -0.162 C  
HETATM   18  C   UNL     1     -10.073   5.086  68.962  1.00  0.00    -0.238 C  
BRANCH  17  19
HETATM   19  C   UNL     1      -9.373   6.126  71.058  1.00  0.00    -0.164 A  
HETATM   20  C   UNL     1      -9.638   5.056  71.892  1.00  0.00    -0.152 A  
HETATM   21  H2  UNL     1      -8.274   7.724  74.842  1.00  0.00     0.000 HD 
HETATM   22  S   UNL     1      -9.294   5.486  73.517  1.00  0.00    -0.138 SA 
HETATM   23  H1  UNL     1      -8.048   8.885  73.540  1.00  0.00     0.000 HD 
HETATM   24  N   UNL     1      -8.910   7.262  71.706  1.00  0.00    -0.117 NA 
HETATM   25  N   UNL     1      -8.339   7.959  73.851  1.00  0.00    -0.222 NA 
HETATM   26  C   UNL     1      -8.805   7.042  72.994  1.00  0.00    -0.126 A  
ENDBRANCH  17  19
BRANCH  18  27
HETATM   27  C   UNL     1     -10.195   4.772  67.493  1.00  0.00    -0.115 C  
HETATM   28  O   UNL     1      -8.160   4.433  66.226  1.00  0.00    -0.102 OA 
HETATM   29  C   UNL     1      -9.071   3.950  66.886  1.00  0.00    -0.151 C  
HETATM   30  O   UNL     1      -9.169   2.624  67.109  1.00  0.00    -0.166 OA 
ENDBRANCH  18  27
ENDBRANCH  15  17
ENDBRANCH  11  13
TORSDOF 4
ENDMDL
MODEL      194
REMARK 921   NORMALIZED FREE ENERGY PREDICTED BY IDOCK:   -2.60 KCAL/MOL
REMARK 922        TOTAL FREE ENERGY PREDICTED BY IDOCK:   -3.76 KCAL/MOL
REMARK 923 INTER-LIGAND FREE ENERGY PREDICTED BY IDOCK:   -4.45 KCAL/MOL
REMARK 924 INTRA-LIGAND FREE ENERGY PREDICTED BY IDOCK:    0.68 KCAL/MOL
REMARK 927      BINDING AFFINITY PREDICTED BY RF-SCORE:    0.00 PKD
ROOT
HETATM    1  CE  UNL     1      -7.122   7.054  68.793  1.00  0.00    -0.089 C  
HETATM    2  SD  UNL     1      -8.308   7.580  70.056  1.00  0.00    -0.137 SA 
HETATM    3  CG  UNL     1      -9.206   6.003  70.068  1.00  0.00    -0.149 C  
HETATM    4  CB  UNL     1      -9.520   5.506  68.689  1.00  0.00    -0.160 C  
HETATM    5  CA  UNL     1      -8.913   5.866  67.539  1.00  0.00    -0.107 C  
HETATM    6  N   UNL     1      -7.850   6.716  67.580  1.00  0.00    -0.110 N  
HETATM    7  C   UNL     1      -9.516   5.323  66.276  1.00  0.00    -0.156 C  
HETATM    8  C   UNL     1      -7.132   7.485  66.744  1.00  0.00    -0.083 C  
HETATM    9  OXT UNL     1     -10.486   4.572  66.277  1.00  0.00    -0.259 OA 
HETATM   10  O   UNL     1      -8.921   5.668  65.119  1.00  0.00    -0.105 OA 
HETATM   11  CA  UNL     1      -6.398   8.166  67.964  1.00  0.00    -0.055 C  
HETATM   12  O   UNL     1      -7.201   7.585  65.539  1.00  0.00    -0.065 OA 
ENDROOT
BRANCH  11  13
HETATM   13  N   UNL     1      -6.780   9.586  68.191  1.00  0.00    -0.062 N  
HETATM   14  H   UNL     1      -6.147  10.169  68.739  1.00  0.00     0.000 HD 
HETATM   15  C   UNL     1      -7.929  10.163  67.712  1.00  0.00    -0.102 C  
HETATM   16  O   UNL     1      -8.793   9.495  67.143  1.00  0.00    -0.130 OA 
BRANCH  15  17
HETATM   17  C   UNL     1      -8.037  11.677  67.849  1.00  0.00    -0.138 C  
HETATM   18  C   UNL     1      -9.083  12.330  67.284  1.00  0.00    -0.184 C  
BRANCH  17  19
HETATM   19  C   UNL     1      -7.021  12.395  68.592  1.00  0.00    -0.091 A  
HETATM   20  C   UNL     1      -6.264  13.448  68.114  1.00  0.00    -0.111 A  
HETATM   21  H2  UNL     1      -4.793  13.460  72.052  1.00  0.00     0.000 HD 
HETATM   22  S   UNL     1      -5.236  14.036  69.354  1.00  0.00    -0.082 SA 
HETATM   23  H1  UNL     1      -5.875  12.106  72.351  1.00  0.00     0.000 HD 
HETATM   24  N   UNL     1      -6.779  12.065  69.917  1.00  0.00     0.052 NA 
HETATM   25  N   UNL     1      -5.491  12.800  71.710  1.00  0.00    -0.397 NA 
HETATM   26  C   UNL     1      -5.881  12.869  70.431  1.00  0.00    -0.152 A  
ENDBRANCH  17  19
BRANCH  18  27
HETATM   27  C   UNL     1     -10.326  11.821  66.598  1.00  0.00    -0.251 C  
HETATM   28  O   UNL     1     -12.283  11.393  67.956  1.00  0.00    -0.607 OA 
HETATM   29  C   UNL     1     -11.648  12.172  67.257  1.00  0.00    -0.334 C  
HETATM   30  O   UNL     1     -12.090  13.418  66.989  1.00  0.00    -0.381 OA 
ENDBRANCH  18  27
ENDBRANCH  15  17
ENDBRANCH  11  13
TORSDOF 4
ENDMDL
MODEL      195
REMARK 921   NORMALIZED FREE ENERGY PREDICTED BY IDOCK:   -2.56 KCAL/MOL
REMARK 922        TOTAL FREE ENERGY PREDICTED BY IDOCK:   -3.71 KCAL/MOL
REMARK 923 INTER-LIGAND FREE ENERGY PREDICTED BY IDOCK:   -2.85 KCAL/MOL
REMARK 924 INTRA-LIGAND FREE ENERGY PREDICTED BY IDOCK:   -0.85 KCAL/MOL
REMARK 927      BINDING AFFINITY PREDICTED BY RF-SCORE:    0.00 PKD
ROOT
HETATM    1  CE  UNL     1      -5.529   9.611  68.802  1.00  0.00    -0.036 C  
HETATM    2  SD  UNL     1      -7.047   9.372  67.844  1.00  0.00    -0.082 SA 
HETATM    3  CG  UNL     1      -7.026  11.041  67.134  1.00  0.00    -0.103 C  
HETATM    4  CB  UNL     1      -6.767  12.104  68.160  1.00  0.00    -0.070 C  
HETATM    5  CA  UNL     1      -6.200  11.938  69.373  1.00  0.00    -0.108 C  
HETATM    6  N   UNL     1      -5.731  10.711  69.732  1.00  0.00    -0.045 N  
HETATM    7  C   UNL     1      -6.185  13.146  70.264  1.00  0.00    -0.004 C  
HETATM    8  C   UNL     1      -5.337  10.059  70.839  1.00  0.00    -0.068 C  
HETATM    9  OXT UNL     1      -6.633  14.232  69.913  1.00  0.00    -0.143 OA 
HETATM   10  O   UNL     1      -5.619  13.001  71.478  1.00  0.00    -0.370 OA 
HETATM   11  CA  UNL     1      -5.301   8.693  70.049  1.00  0.00    -0.028 C  
HETATM   12  O   UNL     1      -5.202  10.472  71.969  1.00  0.00    -0.260 OA 
ENDROOT
BRANCH  11  13
HETATM   13  N   UNL     1      -6.372   7.735  70.434  1.00  0.00    -0.037 N  
HETATM   14  H   UNL     1      -7.264   8.118  70.747  1.00  0.00     0.000 HD 
HETATM   15  C   UNL     1      -6.238   6.370  70.395  1.00  0.00    -0.035 C  
HETATM   16  O   UNL     1      -5.158   5.838  70.138  1.00  0.00    -0.004 OA 
BRANCH  15  17
HETATM   17  C   UNL     1      -7.510   5.557  70.604  1.00  0.00    -0.084 C  
HETATM   18  C   UNL     1      -7.465   4.414  71.332  1.00  0.00    -0.060 C  
BRANCH  17  19
HETATM   19  C   UNL     1      -8.753   6.025  70.025  1.00  0.00    -0.135 A  
HETATM   20  C   UNL     1      -9.556   5.315  69.153  1.00  0.00    -0.145 A  
HETATM   21  H2  UNL     1     -12.030   8.693  69.548  1.00  0.00     0.000 HD 
HETATM   22  S   UNL     1     -10.959   6.229  68.779  1.00  0.00    -0.332 SA 
HETATM   23  H1  UNL     1     -10.802   9.337  70.629  1.00  0.00     0.000 HD 
HETATM   24  N   UNL     1      -9.248   7.272  70.380  1.00  0.00    -0.158 NA 
HETATM   25  N   UNL     1     -11.129   8.591  70.016  1.00  0.00    -0.202 NA 
HETATM   26  C   UNL     1     -10.408   7.482  69.809  1.00  0.00    -0.221 A  
ENDBRANCH  17  19
BRANCH  18  27
HETATM   27  C   UNL     1      -6.360   3.791  72.147  1.00  0.00    -0.014 C  
HETATM   28  O   UNL     1      -6.360   4.159  74.539  1.00  0.00    -0.039 OA 
HETATM   29  C   UNL     1      -6.693   3.460  73.590  1.00  0.00    -0.035 C  
HETATM   30  O   UNL     1      -7.373   2.307  73.754  1.00  0.00    -0.035 OA 
ENDBRANCH  18  27
ENDBRANCH  15  17
ENDBRANCH  11  13
TORSDOF 4
ENDMDL
MODEL      196
REMARK 921   NORMALIZED FREE ENERGY PREDICTED BY IDOCK:   -2.34 KCAL/MOL
REMARK 922        TOTAL FREE ENERGY PREDICTED BY IDOCK:   -3.44 KCAL/MOL
REMARK 923 INTER-LIGAND FREE ENERGY PREDICTED BY IDOCK:   -3.77 KCAL/MOL
REMARK 924 INTRA-LIGAND FREE ENERGY PREDICTED BY IDOCK:    0.33 KCAL/MOL
REMARK 927      BINDING AFFINITY PREDICTED BY RF-SCORE:    0.00 PKD
ROOT
HETATM    1  CE  UNL     1      -5.653  14.590  68.886  1.00  0.00    -0.086 C  
HETATM    2  SD  UNL     1      -6.490  15.495  70.213  1.00  0.00     0.130 SA 
HETATM    3  CG  UNL     1      -5.453  14.799  71.529  1.00  0.00    -0.060 C  
HETATM    4  CB  UNL     1      -5.294  13.312  71.414  1.00  0.00    -0.182 C  
HETATM    5  CA  UNL     1      -5.488  12.559  70.312  1.00  0.00    -0.138 C  
HETATM    6  N   UNL     1      -5.794  13.164  69.132  1.00  0.00    -0.076 N  
HETATM    7  C   UNL     1      -5.396  11.073  70.505  1.00  0.00    -0.100 C  
HETATM    8  C   UNL     1      -6.273  12.840  67.918  1.00  0.00    -0.115 C  
HETATM    9  OXT UNL     1      -5.134  10.561  71.588  1.00  0.00    -0.096 OA 
HETATM   10  O   UNL     1      -5.582  10.304  69.414  1.00  0.00    -0.038 OA 
HETATM   11  CA  UNL     1      -6.437  14.366  67.550  1.00  0.00    -0.042 C  
HETATM   12  O   UNL     1      -6.527  11.750  67.457  1.00  0.00    -0.073 OA 
ENDROOT
BRANCH  11  13
HETATM   13  N   UNL     1      -7.849  14.826  67.467  1.00  0.00    -0.173 N  
HETATM   14  H   UNL     1      -8.056  15.626  66.869  1.00  0.00     0.000 HD 
HETATM   15  C   UNL     1      -8.892  14.243  68.143  1.00  0.00    -0.183 C  
HETATM   16  O   UNL     1      -8.703  13.350  68.968  1.00  0.00     0.177 OA 
BRANCH  15  17
HETATM   17  C   UNL     1     -10.293  14.704  67.757  1.00  0.00    -0.237 C  
HETATM   18  C   UNL     1     -10.983  15.525  68.588  1.00  0.00    -0.279 C  
BRANCH  17  19
HETATM   19  C   UNL     1     -10.863  14.261  66.500  1.00  0.00    -0.304 A  
HETATM   20  C   UNL     1     -11.733  14.987  65.708  1.00  0.00    -0.104 A  
HETATM   21  H2  UNL     1     -11.313  11.667  63.163  1.00  0.00     0.000 HD 
HETATM   22  S   UNL     1     -12.096  14.103  64.283  1.00  0.00    -0.384 SA 
HETATM   23  H1  UNL     1     -10.236  10.998  64.382  1.00  0.00     0.000 HD 
HETATM   24  N   UNL     1     -10.501  13.028  65.981  1.00  0.00    -0.274 NA 
HETATM   25  N   UNL     1     -10.850  11.749  64.068  1.00  0.00    -0.351 NA 
HETATM   26  C   UNL     1     -11.064  12.841  64.812  1.00  0.00    -0.302 A  
ENDBRANCH  17  19
BRANCH  18  27
HETATM   27  C   UNL     1     -10.578  16.234  69.855  1.00  0.00    -0.280 C  
HETATM   28  O   UNL     1     -12.268  16.597  71.549  1.00  0.00     0.112 OA 
HETATM   29  C   UNL     1     -11.374  15.891  71.101  1.00  0.00    -0.382 C  
HETATM   30  O   UNL     1     -10.997  14.743  71.702  1.00  0.00     0.066 OA 
ENDBRANCH  18  27
ENDBRANCH  15  17
ENDBRANCH  11  13
TORSDOF 4
ENDMDL
MODEL      197
REMARK 921   NORMALIZED FREE ENERGY PREDICTED BY IDOCK:   -2.29 KCAL/MOL
REMARK 922        TOTAL FREE ENERGY PREDICTED BY IDOCK:   -3.38 KCAL/MOL
REMARK 923 INTER-LIGAND FREE ENERGY PREDICTED BY IDOCK:   -2.72 KCAL/MOL
REMARK 924 INTRA-LIGAND FREE ENERGY PREDICTED BY IDOCK:   -0.67 KCAL/MOL
REMARK 927      BINDING AFFINITY PREDICTED BY RF-SCORE:    0.00 PKD
ROOT
HETATM    1  CE  UNL     1      -9.958   7.792  69.810  1.00  0.00    -0.189 C  
HETATM    2  SD  UNL     1      -9.875   6.138  69.077  1.00  0.00    -0.147 SA 
HETATM    3  CG  UNL     1      -9.891   5.279  70.675  1.00  0.00    -0.198 C  
HETATM    4  CB  UNL     1      -8.933   5.875  71.663  1.00  0.00    -0.142 C  
HETATM    5  CA  UNL     1      -8.402   7.115  71.630  1.00  0.00    -0.110 C  
HETATM    6  N   UNL     1      -8.793   7.986  70.659  1.00  0.00    -0.141 N  
HETATM    7  C   UNL     1      -7.358   7.413  72.666  1.00  0.00    -0.076 C  
HETATM    8  C   UNL     1      -8.397   9.153  70.122  1.00  0.00    -0.165 C  
HETATM    9  OXT UNL     1      -7.017   6.596  73.516  1.00  0.00    -0.076 OA 
HETATM   10  O   UNL     1      -6.820   8.647  72.652  1.00  0.00    -0.218 OA 
HETATM   11  CA  UNL     1      -9.445   8.997  68.952  1.00  0.00    -0.151 C  
HETATM   12  O   UNL     1      -7.495   9.887  70.458  1.00  0.00    -0.231 OA 
ENDROOT
BRANCH  11  13
HETATM   13  N   UNL     1      -8.839   8.717  67.622  1.00  0.00    -0.135 N  
HETATM   14  H   UNL     1      -8.886   7.762  67.268  1.00  0.00     0.000 HD 
HETATM   15  C   UNL     1      -8.220   9.661  66.842  1.00  0.00    -0.113 C  
HETATM   16  O   UNL     1      -8.024  10.805  67.253  1.00  0.00    -0.113 OA 
BRANCH  15  17
HETATM   17  C   UNL     1      -7.867   9.241  65.420  1.00  0.00    -0.100 C  
HETATM   18  C   UNL     1      -8.120  10.084  64.388  1.00  0.00    -0.156 C  
BRANCH  17  19
HETATM   19  C   UNL     1      -7.256   7.947  65.195  1.00  0.00    -0.061 A  
HETATM   20  C   UNL     1      -6.749   7.491  63.993  1.00  0.00    -0.052 A  
HETATM   21  H2  UNL     1      -5.650   4.181  66.341  1.00  0.00     0.000 HD 
HETATM   22  S   UNL     1      -6.062   5.933  64.205  1.00  0.00    -0.026 SA 
HETATM   23  H1  UNL     1      -6.391   5.025  67.694  1.00  0.00     0.000 HD 
HETATM   24  N   UNL     1      -7.102   7.068  66.257  1.00  0.00    -0.072 NA 
HETATM   25  N   UNL     1      -6.149   4.993  66.705  1.00  0.00    -0.030 NA 
HETATM   26  C   UNL     1      -6.469   5.988  65.868  1.00  0.00    -0.043 A  
ENDBRANCH  17  19
BRANCH  18  27
HETATM   27  C   UNL     1      -8.603  11.512  64.359  1.00  0.00     0.660 C  
HETATM   28  O   UNL     1     -10.284  12.115  62.726  1.00  0.00     0.011 OA 
HETATM   29  C   UNL     1     -10.019  11.733  63.859  1.00  0.00    -0.331 C  
HETATM   30  O   UNL     1     -10.977  11.498  64.779  1.00  0.00    -0.310 OA 
ENDBRANCH  18  27
ENDBRANCH  15  17
ENDBRANCH  11  13
TORSDOF 4
ENDMDL
MODEL      198
REMARK 921   NORMALIZED FREE ENERGY PREDICTED BY IDOCK:   -1.97 KCAL/MOL
REMARK 922        TOTAL FREE ENERGY PREDICTED BY IDOCK:   -2.99 KCAL/MOL
REMARK 923 INTER-LIGAND FREE ENERGY PREDICTED BY IDOCK:   -2.48 KCAL/MOL
REMARK 924 INTRA-LIGAND FREE ENERGY PREDICTED BY IDOCK:   -0.50 KCAL/MOL
REMARK 927      BINDING AFFINITY PREDICTED BY RF-SCORE:    0.00 PKD
ROOT
HETATM    1  CE  UNL     1      -5.489  11.874  69.145  1.00  0.00    -0.052 C  
HETATM    2  SD  UNL     1      -6.673  12.062  67.788  1.00  0.00    -0.110 SA 
HETATM    3  CG  UNL     1      -6.001  13.655  67.238  1.00  0.00     0.408 C  
HETATM    4  CB  UNL     1      -5.772  14.609  68.372  1.00  0.00    -0.106 C  
HETATM    5  CA  UNL     1      -5.644  14.299  69.679  1.00  0.00    -0.096 C  
HETATM    6  N   UNL     1      -5.646  12.992  70.061  1.00  0.00    -0.111 N  
HETATM    7  C   UNL     1      -5.561  15.460  70.627  1.00  0.00    -0.096 C  
HETATM    8  C   UNL     1      -5.776  12.262  71.182  1.00  0.00     0.154 C  
HETATM    9  OXT UNL     1      -5.579  16.626  70.247  1.00  0.00    -0.203 OA 
HETATM   10  O   UNL     1      -5.428  15.170  71.935  1.00  0.00     0.031 OA 
HETATM   11  CA  UNL     1      -5.884  10.936  70.334  1.00  0.00    -0.128 C  
HETATM   12  O   UNL     1      -5.865  12.628  72.333  1.00  0.00     0.352 OA 
ENDROOT
BRANCH  11  13
HETATM   13  N   UNL     1      -7.237  10.318  70.334  1.00  0.00    -0.199 N  
HETATM   14  H   UNL     1      -8.029  10.904  70.597  1.00  0.00     0.000 HD 
HETATM   15  C   UNL     1      -7.488   9.010  70.002  1.00  0.00    -0.062 C  
HETATM   16  O   UNL     1      -6.573   8.216  69.786  1.00  0.00    -0.036 OA 
BRANCH  15  17
HETATM   17  C   UNL     1      -8.953   8.621  69.838  1.00  0.00    -0.149 C  
HETATM   18  C   UNL     1      -9.296   7.311  69.770  1.00  0.00    -0.150 C  
BRANCH  17  19
HETATM   19  C   UNL     1      -9.958   9.662  69.764  1.00  0.00    -0.227 A  
HETATM   20  C   UNL     1     -10.351  10.325  68.616  1.00  0.00    -0.184 A  
HETATM   21  H2  UNL     1     -13.086  12.126  71.254  1.00  0.00     0.000 HD 
HETATM   22  S   UNL     1     -11.613  11.427  68.985  1.00  0.00    -0.347 SA 
HETATM   23  H1  UNL     1     -12.362  11.138  72.515  1.00  0.00     0.000 HD 
HETATM   24  N   UNL     1     -10.648  10.032  70.909  1.00  0.00    -0.190 NA 
HETATM   25  N   UNL     1     -12.395  11.432  71.540  1.00  0.00    -0.167 NA 
HETATM   26  C   UNL     1     -11.556  10.932  70.624  1.00  0.00    -0.242 A  
ENDBRANCH  17  19
BRANCH  18  27
HETATM   27  C   UNL     1      -8.486   6.054  69.963  1.00  0.00    -0.131 C  
HETATM   28  O   UNL     1      -9.218   4.471  71.640  1.00  0.00    -0.127 OA 
HETATM   29  C   UNL     1      -9.241   4.840  70.473  1.00  0.00    -0.137 C  
HETATM   30  O   UNL     1      -9.927   4.172  69.523  1.00  0.00    -0.177 OA 
ENDBRANCH  18  27
ENDBRANCH  15  17
ENDBRANCH  11  13
TORSDOF 4
ENDMDL
MODEL      199
REMARK 921   NORMALIZED FREE ENERGY PREDICTED BY IDOCK:   -1.62 KCAL/MOL
REMARK 922        TOTAL FREE ENERGY PREDICTED BY IDOCK:   -2.55 KCAL/MOL
REMARK 923 INTER-LIGAND FREE ENERGY PREDICTED BY IDOCK:   -3.36 KCAL/MOL
REMARK 924 INTRA-LIGAND FREE ENERGY PREDICTED BY IDOCK:    0.80 KCAL/MOL
REMARK 927      BINDING AFFINITY PREDICTED BY RF-SCORE:    0.00 PKD
ROOT
HETATM    1  CE  UNL     1      -5.563   6.518  68.168  1.00  0.00    -0.012 C  
HETATM    2  SD  UNL     1      -6.455   7.031  69.658  1.00  0.00    -0.045 SA 
HETATM    3  CG  UNL     1      -7.009   5.353  70.072  1.00  0.00    -0.060 C  
HETATM    4  CB  UNL     1      -7.574   4.623  68.890  1.00  0.00    -0.064 C  
HETATM    5  CA  UNL     1      -7.366   4.905  67.587  1.00  0.00    -0.078 C  
HETATM    6  N   UNL     1      -6.506   5.904  67.247  1.00  0.00    -0.045 N  
HETATM    7  C   UNL     1      -8.165   4.101  66.603  1.00  0.00    -0.101 C  
HETATM    8  C   UNL     1      -6.187   6.647  66.173  1.00  0.00    -0.041 C  
HETATM    9  OXT UNL     1      -8.945   3.219  66.948  1.00  0.00    -0.135 OA 
HETATM   10  O   UNL     1      -7.967   4.364  65.297  1.00  0.00    -0.098 OA 
HETATM   11  CA  UNL     1      -5.300   7.598  67.067  1.00  0.00    -0.030 C  
HETATM   12  O   UNL     1      -6.585   6.562  65.033  1.00  0.00    -0.040 OA 
ENDROOT
BRANCH  11  13
HETATM   13  N   UNL     1      -5.866   8.961  67.256  1.00  0.00    -0.046 N  
HETATM   14  H   UNL     1      -5.214   9.736  67.375  1.00  0.00     0.000 HD 
HETATM   15  C   UNL     1      -7.209   9.242  67.283  1.00  0.00    -0.087 C  
HETATM   16  O   UNL     1      -8.053   8.346  67.262  1.00  0.00    -0.104 OA 
BRANCH  15  17
HETATM   17  C   UNL     1      -7.595  10.716  67.257  1.00  0.00    -0.100 C  
HETATM   18  C   UNL     1      -8.712  11.107  66.593  1.00  0.00    -0.166 C  
BRANCH  17  19
HETATM   19  C   UNL     1      -6.763  11.679  67.950  1.00  0.00    -0.066 A  
HETATM   20  C   UNL     1      -6.055  12.709  67.360  1.00  0.00    -0.141 A  
HETATM   21  H2  UNL     1      -5.133  13.632  71.357  1.00  0.00     0.000 HD 
HETATM   22  S   UNL     1      -5.265  13.638  68.566  1.00  0.00    -0.096 SA 
HETATM   23  H1  UNL     1      -6.108  12.236  71.796  1.00  0.00     0.000 HD 
HETATM   24  N   UNL     1      -6.669  11.633  69.333  1.00  0.00    -0.118 NA 
HETATM   25  N   UNL     1      -5.712  12.840  71.077  1.00  0.00    -0.327 NA 
HETATM   26  C   UNL     1      -5.931  12.622  69.774  1.00  0.00    -0.129 A  
ENDBRANCH  17  19
BRANCH  18  27
HETATM   27  C   UNL     1      -9.807  10.314  65.927  1.00  0.00    -0.298 C  
HETATM   28  O   UNL     1     -10.590  11.048  63.758  1.00  0.00    -0.369 OA 
HETATM   29  C   UNL     1      -9.830  10.343  64.410  1.00  0.00    -0.328 C  
HETATM   30  O   UNL     1      -8.955   9.500  63.823  1.00  0.00    -0.229 OA 
ENDBRANCH  18  27
ENDBRANCH  15  17
ENDBRANCH  11  13
TORSDOF 4
ENDMDL
MODEL      200
REMARK 921   NORMALIZED FREE ENERGY PREDICTED BY IDOCK:   -0.87 KCAL/MOL
REMARK 922        TOTAL FREE ENERGY PREDICTED BY IDOCK:   -1.63 KCAL/MOL
REMARK 923 INTER-LIGAND FREE ENERGY PREDICTED BY IDOCK:   -3.02 KCAL/MOL
REMARK 924 INTRA-LIGAND FREE ENERGY PREDICTED BY IDOCK:    1.39 KCAL/MOL
REMARK 927      BINDING AFFINITY PREDICTED BY RF-SCORE:    0.00 PKD
ROOT
HETATM    1  CE  UNL     1      -7.464  11.788  69.607  1.00  0.00     0.494 C  
HETATM    2  SD  UNL     1      -9.170  11.195  69.468  1.00  0.00     0.693 SA 
HETATM    3  CG  UNL     1      -8.709   9.636  68.663  1.00  0.00    -0.124 C  
HETATM    4  CB  UNL     1      -7.728   9.831  67.545  1.00  0.00    -0.095 C  
HETATM    5  CA  UNL     1      -6.919  10.893  67.351  1.00  0.00    -0.084 C  
HETATM    6  N   UNL     1      -6.896  11.894  68.273  1.00  0.00    -0.062 N  
HETATM    7  C   UNL     1      -6.133  10.898  66.072  1.00  0.00    -0.122 C  
HETATM    8  C   UNL     1      -6.464  13.162  68.384  1.00  0.00    -0.086 C  
HETATM    9  OXT UNL     1      -6.192   9.985  65.255  1.00  0.00    -0.089 OA 
HETATM   10  O   UNL     1      -5.315  11.948  65.864  1.00  0.00    -0.083 OA 
HETATM   11  CA  UNL     1      -7.237  13.330  69.750  1.00  0.00     0.595 C  
HETATM   12  O   UNL     1      -5.818  13.826  67.605  1.00  0.00    -0.271 OA 
ENDROOT
BRANCH  11  13
HETATM   13  N   UNL     1      -8.417  14.234  69.677  1.00  0.00    -0.078 N  
HETATM   14  H   UNL     1      -8.705  14.713  70.530  1.00  0.00     0.000 HD 
HETATM   15  C   UNL     1      -9.143  14.464  68.536  1.00  0.00    -0.193 C  
HETATM   16  O   UNL     1      -8.927  13.835  67.499  1.00  0.00    -0.181 OA 
BRANCH  15  17
HETATM   17  C   UNL     1     -10.169  15.589  68.599  1.00  0.00    -0.216 C  
HETATM   18  C   UNL     1     -10.838  15.823  69.755  1.00  0.00    -0.314 C  
BRANCH  17  19
HETATM   19  C   UNL     1     -10.407  16.398  67.421  1.00  0.00    -0.295 A  
HETATM   20  C   UNL     1     -10.263  17.770  67.341  1.00  0.00    -0.353 A  
HETATM   21  H2  UNL     1     -11.220  17.084  63.304  1.00  0.00     0.000 HD 
HETATM   22  S   UNL     1     -10.584  18.296  65.740  1.00  0.00     0.029 SA 
HETATM   23  H1  UNL     1     -11.334  15.381  63.729  1.00  0.00     0.000 HD 
HETATM   24  N   UNL     1     -10.770  15.785  66.231  1.00  0.00    -0.306 NA 
HETATM   25  N   UNL     1     -11.164  16.346  64.007  1.00  0.00    -0.859 NA 
HETATM   26  C   UNL     1     -10.869  16.673  65.272  1.00  0.00    -0.183 A  
ENDBRANCH  17  19
BRANCH  18  27
HETATM   27  C   UNL     1     -10.682  15.240  71.137  1.00  0.00     0.008 C  
HETATM   28  O   UNL     1     -11.471  16.539  73.020  1.00  0.00    -0.060 OA 
HETATM   29  C   UNL     1     -11.698  15.684  72.173  1.00  0.00    -0.483 C  
HETATM   30  O   UNL     1     -12.880  15.037  72.107  1.00  0.00    -0.304 OA 
ENDBRANCH  18  27
ENDBRANCH  15  17
ENDBRANCH  11  13
TORSDOF 4
ENDMDL
MODEL      201
REMARK 921   NORMALIZED FREE ENERGY PREDICTED BY IDOCK:   -0.54 KCAL/MOL
REMARK 922        TOTAL FREE ENERGY PREDICTED BY IDOCK:   -1.22 KCAL/MOL
REMARK 923 INTER-LIGAND FREE ENERGY PREDICTED BY IDOCK:   -1.98 KCAL/MOL
REMARK 924 INTRA-LIGAND FREE ENERGY PREDICTED BY IDOCK:    0.76 KCAL/MOL
REMARK 927      BINDING AFFINITY PREDICTED BY RF-SCORE:    0.00 PKD
ROOT
HETATM    1  CE  UNL     1      -7.475  11.789  69.715  1.00  0.00     0.698 C  
HETATM    2  SD  UNL     1      -9.167  11.159  69.568  1.00  0.00     0.693 SA 
HETATM    3  CG  UNL     1      -8.676   9.647  68.693  1.00  0.00    -0.124 C  
HETATM    4  CB  UNL     1      -7.713   9.913  67.574  1.00  0.00    -0.091 C  
HETATM    5  CA  UNL     1      -6.933  11.003  67.417  1.00  0.00    -0.086 C  
HETATM    6  N   UNL     1      -6.924  11.965  68.380  1.00  0.00    -0.072 N  
HETATM    7  C   UNL     1      -6.162  11.082  66.132  1.00  0.00    -0.104 C  
HETATM    8  C   UNL     1      -6.523  13.238  68.541  1.00  0.00    -0.085 C  
HETATM    9  OXT UNL     1      -6.207  10.202  65.278  1.00  0.00    -0.100 OA 
HETATM   10  O   UNL     1      -5.373  12.160  65.960  1.00  0.00     0.146 OA 
HETATM   11  CA  UNL     1      -7.285  13.329  69.920  1.00  0.00     0.762 C  
HETATM   12  O   UNL     1      -5.902  13.950  67.783  1.00  0.00    -0.199 OA 
ENDROOT
BRANCH  11  13
HETATM   13  N   UNL     1      -8.487  14.204  69.897  1.00  0.00     0.408 N  
HETATM   14  H   UNL     1      -8.736  14.696  70.755  1.00  0.00     0.000 HD 
HETATM   15  C   UNL     1      -9.285  14.391  68.796  1.00  0.00    -0.144 C  
HETATM   16  O   UNL     1      -9.115  13.744  67.763  1.00  0.00    -0.177 OA 
BRANCH  15  17
HETATM   17  C   UNL     1     -10.331  15.495  68.895  1.00  0.00    -0.221 C  
HETATM   18  C   UNL     1     -10.406  16.439  67.924  1.00  0.00    -0.286 C  
BRANCH  17  19
HETATM   19  C   UNL     1     -11.237  15.513  70.026  1.00  0.00    -0.315 A  
HETATM   20  C   UNL     1     -12.616  15.565  69.956  1.00  0.00    -0.196 A  
HETATM   21  H2  UNL     1     -12.294  15.227  74.134  1.00  0.00     0.000 HD 
HETATM   22  S   UNL     1     -13.282  15.498  71.535  1.00  0.00    -0.492 SA 
HETATM   23  H1  UNL     1     -10.552  15.192  73.893  1.00  0.00     0.000 HD 
HETATM   24  N   UNL     1     -10.728  15.426  71.313  1.00  0.00    -0.068 NA 
HETATM   25  N   UNL     1     -11.492  15.258  73.505  1.00  0.00     0.040 NA 
HETATM   26  C   UNL     1     -11.702  15.386  72.188  1.00  0.00    -0.462 A  
ENDBRANCH  17  19
BRANCH  18  27
HETATM   27  C   UNL     1      -9.699  16.568  66.599  1.00  0.00    -0.275 C  
HETATM   28  O   UNL     1     -10.787  17.829  64.844  1.00  0.00    -0.815 OA 
HETATM   29  C   UNL     1     -10.010  17.814  65.789  1.00  0.00     0.013 C  
HETATM   30  O   UNL     1      -9.336  18.915  66.181  1.00  0.00    -0.426 OA 
ENDBRANCH  18  27
ENDBRANCH  15  17
ENDBRANCH  11  13
TORSDOF 4
ENDMDL
MODEL      202
REMARK 921   NORMALIZED FREE ENERGY PREDICTED BY IDOCK:   -0.28 KCAL/MOL
REMARK 922        TOTAL FREE ENERGY PREDICTED BY IDOCK:   -0.90 KCAL/MOL
REMARK 923 INTER-LIGAND FREE ENERGY PREDICTED BY IDOCK:   -4.10 KCAL/MOL
REMARK 924 INTRA-LIGAND FREE ENERGY PREDICTED BY IDOCK:    3.20 KCAL/MOL
REMARK 927      BINDING AFFINITY PREDICTED BY RF-SCORE:    0.00 PKD
ROOT
HETATM    1  CE  UNL     1      -8.804  11.212  64.971  1.00  0.00    -0.013 C  
HETATM    2  SD  UNL     1     -10.132  10.269  64.179  1.00  0.00     0.150 SA 
HETATM    3  CG  UNL     1     -11.209  11.711  63.953  1.00  0.00    -0.397 C  
HETATM    4  CB  UNL     1     -11.316  12.553  65.189  1.00  0.00    -0.352 C  
HETATM    5  CA  UNL     1     -10.460  12.575  66.232  1.00  0.00    -0.246 C  
HETATM    6  N   UNL     1      -9.325  11.825  66.182  1.00  0.00    -0.225 N  
HETATM    7  C   UNL     1     -10.876  13.408  67.409  1.00  0.00    -0.268 C  
HETATM    8  C   UNL     1      -8.368  11.375  67.012  1.00  0.00    -0.161 C  
HETATM    9  OXT UNL     1     -11.917  14.057  67.425  1.00  0.00    -0.388 OA 
HETATM   10  O   UNL     1     -10.032  13.446  68.458  1.00  0.00    -0.233 OA 
HETATM   11  CA  UNL     1      -7.799  10.432  65.883  1.00  0.00    -0.148 C  
HETATM   12  O   UNL     1      -8.193  11.614  68.187  1.00  0.00    -0.136 OA 
ENDROOT
BRANCH  11  13
HETATM   13  N   UNL     1      -8.032   8.982  66.122  1.00  0.00    -0.102 N  
HETATM   14  H   UNL     1      -7.234   8.352  66.050  1.00  0.00     0.000 HD 
HETATM   15  C   UNL     1      -9.253   8.438  66.433  1.00  0.00    -0.201 C  
HETATM   16  O   UNL     1     -10.280   9.117  66.424  1.00  0.00    -0.281 OA 
BRANCH  15  17
HETATM   17  C   UNL     1      -9.254   6.976  66.867  1.00  0.00    -0.174 C  
HETATM   18  C   UNL     1      -9.116   6.000  65.936  1.00  0.00    -0.117 C  
BRANCH  17  19
HETATM   19  C   UNL     1      -9.396   6.655  68.273  1.00  0.00    -0.119 A  
HETATM   20  C   UNL     1      -9.963   7.470  69.234  1.00  0.00    -0.179 A  
HETATM   21  H2  UNL     1      -9.248   4.137  71.695  1.00  0.00     0.000 HD 
HETATM   22  S   UNL     1      -9.982   6.660  70.746  1.00  0.00    -0.183 SA 
HETATM   23  H1  UNL     1      -8.573   3.359  70.269  1.00  0.00     0.000 HD 
HETATM   24  N   UNL     1      -8.983   5.416  68.738  1.00  0.00    -0.115 NA 
HETATM   25  N   UNL     1      -9.004   4.174  70.705  1.00  0.00    -0.089 NA 
HETATM   26  C   UNL     1      -9.257   5.291  70.013  1.00  0.00    -0.138 A  
ENDBRANCH  17  19
BRANCH  18  27
HETATM   27  C   UNL     1      -8.813   6.061  64.461  1.00  0.00     0.319 C  
HETATM   28  O   UNL     1      -8.078   8.172  63.533  1.00  0.00    -0.155 OA 
HETATM   29  C   UNL     1      -7.785   7.091  64.027  1.00  0.00    -0.116 C  
HETATM   30  O   UNL     1      -6.504   6.707  64.206  1.00  0.00    -0.037 OA 
ENDBRANCH  18  27
ENDBRANCH  15  17
ENDBRANCH  11  13
TORSDOF 4
ENDMDL
MODEL      203
REMARK 921   NORMALIZED FREE ENERGY PREDICTED BY IDOCK:    0.08 KCAL/MOL
REMARK 922        TOTAL FREE ENERGY PREDICTED BY IDOCK:   -0.45 KCAL/MOL
REMARK 923 INTER-LIGAND FREE ENERGY PREDICTED BY IDOCK:   -3.08 KCAL/MOL
REMARK 924 INTRA-LIGAND FREE ENERGY PREDICTED BY IDOCK:    2.63 KCAL/MOL
REMARK 927      BINDING AFFINITY PREDICTED BY RF-SCORE:    0.00 PKD
ROOT
HETATM    1  CE  UNL     1      -9.898   7.298  68.964  1.00  0.00    -0.165 C  
HETATM    2  SD  UNL     1      -9.346   5.576  69.066  1.00  0.00    -0.126 SA 
HETATM    3  CG  UNL     1      -9.215   5.580  70.875  1.00  0.00    -0.151 C  
HETATM    4  CB  UNL     1      -8.499   6.788  71.401  1.00  0.00    -0.120 C  
HETATM    5  CA  UNL     1      -8.312   7.962  70.763  1.00  0.00    -0.115 C  
HETATM    6  N   UNL     1      -8.870   8.153  69.536  1.00  0.00    -0.142 N  
HETATM    7  C   UNL     1      -7.437   8.961  71.462  1.00  0.00    -0.050 C  
HETATM    8  C   UNL     1      -8.769   8.998  68.495  1.00  0.00    -0.133 C  
HETATM    9  OXT UNL     1      -6.937   8.747  72.562  1.00  0.00    -0.279 OA 
HETATM   10  O   UNL     1      -7.243  10.141  70.842  1.00  0.00    -0.291 OA 
HETATM   11  CA  UNL     1      -9.678   8.056  67.613  1.00  0.00    -0.158 C  
HETATM   12  O   UNL     1      -8.110  10.008  68.384  1.00  0.00    -0.098 OA 
ENDROOT
BRANCH  11  13
HETATM   13  N   UNL     1      -8.954   7.360  66.515  1.00  0.00    -0.153 N  
HETATM   14  H   UNL     1      -9.344   6.485  66.166  1.00  0.00     0.000 HD 
HETATM   15  C   UNL     1      -7.794   7.820  65.942  1.00  0.00    -0.102 C  
HETATM   16  O   UNL     1      -7.205   8.805  66.387  1.00  0.00    -0.081 OA 
BRANCH  15  17
HETATM   17  C   UNL     1      -7.326   7.097  64.685  1.00  0.00    -0.079 C  
HETATM   18  C   UNL     1      -6.668   7.787  63.720  1.00  0.00    -0.062 C  
BRANCH  17  19
HETATM   19  C   UNL     1      -7.585   5.679  64.545  1.00  0.00    -0.082 A  
HETATM   20  C   UNL     1      -6.643   4.710  64.253  1.00  0.00    -0.043 A  
HETATM   21  H2  UNL     1      -9.930   2.139  64.766  1.00  0.00     0.000 HD 
HETATM   22  S   UNL     1      -7.381   3.162  64.252  1.00  0.00    -0.064 SA 
HETATM   23  H1  UNL     1     -10.878   3.584  65.093  1.00  0.00     0.000 HD 
HETATM   24  N   UNL     1      -8.867   5.192  64.756  1.00  0.00    -0.135 NA 
HETATM   25  N   UNL     1      -9.985   3.154  64.854  1.00  0.00    -0.027 NA 
HETATM   26  C   UNL     1      -8.882   3.886  64.653  1.00  0.00    -0.123 A  
ENDBRANCH  17  19
BRANCH  18  27
HETATM   27  C   UNL     1      -6.153   9.203  63.678  1.00  0.00    -0.088 C  
HETATM   28  O   UNL     1      -7.591  10.914  62.751  1.00  0.00    -0.034 OA 
HETATM   29  C   UNL     1      -7.199  10.301  63.735  1.00  0.00    -0.060 C  
HETATM   30  O   UNL     1      -7.653  10.574  64.976  1.00  0.00    -0.121 OA 
ENDBRANCH  18  27
ENDBRANCH  15  17
ENDBRANCH  11  13
TORSDOF 4
ENDMDL
MODEL      204
REMARK 921   NORMALIZED FREE ENERGY PREDICTED BY IDOCK:    0.68 KCAL/MOL
REMARK 922        TOTAL FREE ENERGY PREDICTED BY IDOCK:    0.28 KCAL/MOL
REMARK 923 INTER-LIGAND FREE ENERGY PREDICTED BY IDOCK:   -1.72 KCAL/MOL
REMARK 924 INTRA-LIGAND FREE ENERGY PREDICTED BY IDOCK:    2.01 KCAL/MOL
REMARK 927      BINDING AFFINITY PREDICTED BY RF-SCORE:    0.00 PKD
ROOT
HETATM    1  CE  UNL     1      -5.501   5.774  68.791  1.00  0.00    -0.011 C  
HETATM    2  SD  UNL     1      -6.478   6.285  70.228  1.00  0.00    -0.041 SA 
HETATM    3  CG  UNL     1      -7.004   4.599  70.644  1.00  0.00    -0.037 C  
HETATM    4  CB  UNL     1      -7.491   3.834  69.450  1.00  0.00    -0.053 C  
HETATM    5  CA  UNL     1      -7.228   4.100  68.154  1.00  0.00    -0.060 C  
HETATM    6  N   UNL     1      -6.381   5.118  67.837  1.00  0.00    -0.038 N  
HETATM    7  C   UNL     1      -7.957   3.258  67.147  1.00  0.00    -0.079 C  
HETATM    8  C   UNL     1      -6.031   5.853  66.767  1.00  0.00    -0.018 C  
HETATM    9  OXT UNL     1      -8.726   2.360  67.469  1.00  0.00    -0.096 OA 
HETATM   10  O   UNL     1      -7.703   3.506  65.848  1.00  0.00    -0.080 OA 
HETATM   11  CA  UNL     1      -5.216   6.844  67.685  1.00  0.00    -0.012 C  
HETATM   12  O   UNL     1      -6.372   5.739  65.611  1.00  0.00    -0.039 OA 
ENDROOT
BRANCH  11  13
HETATM   13  N   UNL     1      -5.828   8.193  67.824  1.00  0.00    -0.041 N  
HETATM   14  H   UNL     1      -5.234   9.005  67.665  1.00  0.00     0.000 HD 
HETATM   15  C   UNL     1      -7.143   8.413  68.153  1.00  0.00    -0.085 C  
HETATM   16  O   UNL     1      -7.889   7.487  68.470  1.00  0.00    -0.117 OA 
BRANCH  15  17
HETATM   17  C   UNL     1      -7.643   9.847  68.023  1.00  0.00    -0.085 C  
HETATM   18  C   UNL     1      -8.925  10.079  67.646  1.00  0.00    -0.135 C  
BRANCH  17  19
HETATM   19  C   UNL     1      -6.739  10.941  68.314  1.00  0.00    -0.063 A  
HETATM   20  C   UNL     1      -6.156  11.777  67.381  1.00  0.00    -0.108 A  
HETATM   21  H2  UNL     1      -4.660  13.673  70.823  1.00  0.00     0.000 HD 
HETATM   22  S   UNL     1      -5.215  12.971  68.176  1.00  0.00    -0.096 SA 
HETATM   23  H1  UNL     1      -5.521  12.448  71.745  1.00  0.00     0.000 HD 
HETATM   24  N   UNL     1      -6.435  11.247  69.632  1.00  0.00    -0.119 NA 
HETATM   25  N   UNL     1      -5.254  12.844  70.845  1.00  0.00    -0.147 NA 
HETATM   26  C   UNL     1      -5.664  12.305  69.690  1.00  0.00    -0.101 A  
ENDBRANCH  17  19
BRANCH  18  27
HETATM   27  C   UNL     1     -10.088   9.145  67.430  1.00  0.00    -0.289 C  
HETATM   28  O   UNL     1     -11.067   8.075  69.367  1.00  0.00    -0.080 OA 
HETATM   29  C   UNL     1     -11.068   9.014  68.582  1.00  0.00     0.206 C  
HETATM   30  O   UNL     1     -11.971  10.013  68.661  1.00  0.00     0.100 OA 
ENDBRANCH  18  27
ENDBRANCH  15  17
ENDBRANCH  11  13
TORSDOF 4
ENDMDL
MODEL      205
REMARK 921   NORMALIZED FREE ENERGY PREDICTED BY IDOCK:    1.51 KCAL/MOL
REMARK 922        TOTAL FREE ENERGY PREDICTED BY IDOCK:    1.31 KCAL/MOL
REMARK 923 INTER-LIGAND FREE ENERGY PREDICTED BY IDOCK:    0.33 KCAL/MOL
REMARK 924 INTRA-LIGAND FREE ENERGY PREDICTED BY IDOCK:    0.99 KCAL/MOL
REMARK 927      BINDING AFFINITY PREDICTED BY RF-SCORE:    0.00 PKD
ROOT
HETATM    1  CE  UNL     1      -7.205  12.356  69.880  1.00  0.00     0.888 C  
HETATM    2  SD  UNL     1      -8.883  11.716  70.115  1.00  0.00     3.675 SA 
HETATM    3  CG  UNL     1      -8.362   9.978  70.159  1.00  0.00    -0.039 C  
HETATM    4  CB  UNL     1      -7.412   9.631  69.052  1.00  0.00    -0.075 C  
HETATM    5  CA  UNL     1      -6.657  10.488  68.332  1.00  0.00    -0.055 C  
HETATM    6  N   UNL     1      -6.666  11.812  68.644  1.00  0.00    -0.067 N  
HETATM    7  C   UNL     1      -5.895   9.891  67.185  1.00  0.00    -0.051 C  
HETATM    8  C   UNL     1      -6.293  12.986  68.104  1.00  0.00    -0.101 C  
HETATM    9  OXT UNL     1      -5.925   8.693  66.922  1.00  0.00    -0.054 OA 
HETATM   10  O   UNL     1      -5.132  10.729  66.458  1.00  0.00    -0.050 OA 
HETATM   11  CA  UNL     1      -7.049  13.776  69.241  1.00  0.00    -0.004 C  
HETATM   12  O   UNL     1      -5.693  13.202  67.075  1.00  0.00    -0.266 OA 
ENDROOT
BRANCH  11  13
HETATM   13  N   UNL     1      -8.271  14.488  68.781  1.00  0.00    -0.157 N  
HETATM   14  H   UNL     1      -8.856  14.937  69.486  1.00  0.00     0.000 HD 
HETATM   15  C   UNL     1      -8.664  14.580  67.469  1.00  0.00    -0.188 C  
HETATM   16  O   UNL     1      -8.074  13.968  66.578  1.00  0.00     0.329 OA 
BRANCH  15  17
HETATM   17  C   UNL     1      -9.811  15.538  67.169  1.00  0.00    -0.236 C  
HETATM   18  C   UNL     1      -9.921  16.694  67.870  1.00  0.00    -0.254 C  
BRANCH  17  19
HETATM   19  C   UNL     1     -10.762  15.200  66.130  1.00  0.00    -0.325 A  
HETATM   20  C   UNL     1     -10.881  15.832  64.907  1.00  0.00    -0.413 A  
HETATM   21  H2  UNL     1     -13.768  12.844  64.261  1.00  0.00     0.000 HD 
HETATM   22  S   UNL     1     -12.090  15.059  63.967  1.00  0.00     0.111 SA 
HETATM   23  H1  UNL     1     -13.391  12.274  65.881  1.00  0.00     0.000 HD 
HETATM   24  N   UNL     1     -11.622  14.126  66.310  1.00  0.00    -0.356 NA 
HETATM   25  N   UNL     1     -13.236  12.941  65.126  1.00  0.00    -0.602 NA 
HETATM   26  C   UNL     1     -12.351  13.939  65.238  1.00  0.00    -0.464 A  
ENDBRANCH  17  19
BRANCH  18  27
HETATM   27  C   UNL     1      -9.008  17.342  68.878  1.00  0.00    -0.173 C  
HETATM   28  O   UNL     1      -6.665  17.569  68.316  1.00  0.00    -0.185 OA 
HETATM   29  C   UNL     1      -7.789  18.055  68.321  1.00  0.00    -0.288 C  
HETATM   30  O   UNL     1      -8.036  19.293  67.848  1.00  0.00    -0.275 OA 
ENDBRANCH  18  27
ENDBRANCH  15  17
ENDBRANCH  11  13
TORSDOF 4
ENDMDL
MODEL      206
REMARK 921   NORMALIZED FREE ENERGY PREDICTED BY IDOCK:    2.78 KCAL/MOL
REMARK 922        TOTAL FREE ENERGY PREDICTED BY IDOCK:    2.88 KCAL/MOL
REMARK 923 INTER-LIGAND FREE ENERGY PREDICTED BY IDOCK:   -1.00 KCAL/MOL
REMARK 924 INTRA-LIGAND FREE ENERGY PREDICTED BY IDOCK:    3.88 KCAL/MOL
REMARK 927      BINDING AFFINITY PREDICTED BY RF-SCORE:    0.00 PKD
ROOT
HETATM    1  CE  UNL     1      -9.157  12.495  65.135  1.00  0.00     0.694 C  
HETATM    2  SD  UNL     1      -9.515  10.720  65.078  1.00  0.00    -0.260 SA 
HETATM    3  CG  UNL     1     -10.684  10.860  63.698  1.00  0.00    -0.052 C  
HETATM    4  CB  UNL     1     -11.672  11.972  63.886  1.00  0.00    -0.537 C  
HETATM    5  CA  UNL     1     -11.546  13.038  64.704  1.00  0.00    -0.346 C  
HETATM    6  N   UNL     1     -10.392  13.212  65.405  1.00  0.00    -0.296 N  
HETATM    7  C   UNL     1     -12.746  13.934  64.809  1.00  0.00    -0.211 C  
HETATM    8  C   UNL     1      -9.933  13.934  66.443  1.00  0.00    -0.297 C  
HETATM    9  OXT UNL     1     -13.776  13.736  64.174  1.00  0.00     1.848 OA 
HETATM   10  O   UNL     1     -12.637  15.006  65.616  1.00  0.00     0.156 OA 
HETATM   11  CA  UNL     1      -8.603  13.085  66.475  1.00  0.00     0.148 C  
HETATM   12  O   UNL     1     -10.484  14.806  67.077  1.00  0.00    -0.264 OA 
ENDROOT
BRANCH  11  13
HETATM   13  N   UNL     1      -8.482  12.184  67.653  1.00  0.00    -0.153 N  
HETATM   14  H   UNL     1      -8.607  12.591  68.580  1.00  0.00     0.000 HD 
HETATM   15  C   UNL     1      -8.212  10.841  67.573  1.00  0.00    -0.112 C  
HETATM   16  O   UNL     1      -7.937  10.304  66.499  1.00  0.00    -0.113 OA 
BRANCH  15  17
HETATM   17  C   UNL     1      -8.353  10.042  68.863  1.00  0.00    -0.130 C  
HETATM   18  C   UNL     1      -7.249   9.523  69.456  1.00  0.00    -0.074 C  
BRANCH  17  19
HETATM   19  C   UNL     1      -9.668   9.857  69.442  1.00  0.00    -0.214 A  
HETATM   20  C   UNL     1     -10.871  10.032  68.784  1.00  0.00    -0.219 A  
HETATM   21  H2  UNL     1     -12.439   8.672  72.441  1.00  0.00     0.000 HD 
HETATM   22  S   UNL     1     -12.170   9.638  69.833  1.00  0.00     0.539 SA 
HETATM   23  H1  UNL     1     -10.773   8.561  72.995  1.00  0.00     0.000 HD 
HETATM   24  N   UNL     1      -9.786   9.423  70.754  1.00  0.00    -0.273 NA 
HETATM   25  N   UNL     1     -11.442   8.792  72.261  1.00  0.00    -0.351 NA 
HETATM   26  C   UNL     1     -11.046   9.249  71.067  1.00  0.00    -0.326 A  
ENDBRANCH  17  19
BRANCH  18  27
HETATM   27  C   UNL     1      -5.781   9.686  69.151  1.00  0.00    -0.035 C  
HETATM   28  O   UNL     1      -5.151  10.403  66.928  1.00  0.00    -0.039 OA 
HETATM   29  C   UNL     1      -5.426  10.704  68.082  1.00  0.00    -0.036 C  
HETATM   30  O   UNL     1      -5.410  11.982  68.513  1.00  0.00    -0.052 OA 
ENDBRANCH  18  27
ENDBRANCH  15  17
ENDBRANCH  11  13
TORSDOF 4
ENDMDL
MODEL      207
REMARK 921   NORMALIZED FREE ENERGY PREDICTED BY IDOCK:    2.87 KCAL/MOL
REMARK 922        TOTAL FREE ENERGY PREDICTED BY IDOCK:    2.98 KCAL/MOL
REMARK 923 INTER-LIGAND FREE ENERGY PREDICTED BY IDOCK:   -0.90 KCAL/MOL
REMARK 924 INTRA-LIGAND FREE ENERGY PREDICTED BY IDOCK:    3.89 KCAL/MOL
REMARK 927      BINDING AFFINITY PREDICTED BY RF-SCORE:    0.00 PKD
ROOT
HETATM    1  CE  UNL     1     -10.853  10.752  65.250  1.00  0.00     0.006 C  
HETATM    2  SD  UNL     1     -10.901  10.170  66.965  1.00  0.00    -0.084 SA 
HETATM    3  CG  UNL     1     -12.095  11.425  67.503  1.00  0.00     0.440 C  
HETATM    4  CB  UNL     1     -11.739  12.803  67.029  1.00  0.00    -0.440 C  
HETATM    5  CA  UNL     1     -10.922  13.122  66.004  1.00  0.00    -0.279 C  
HETATM    6  N   UNL     1     -10.390  12.130  65.238  1.00  0.00    -0.270 N  
HETATM    7  C   UNL     1     -10.625  14.583  65.828  1.00  0.00    -0.317 C  
HETATM    8  C   UNL     1      -9.413  11.962  64.330  1.00  0.00     0.092 C  
HETATM    9  OXT UNL     1     -11.109  15.448  66.550  1.00  0.00    -0.308 OA 
HETATM   10  O   UNL     1      -9.815  14.921  64.806  1.00  0.00    -0.110 OA 
HETATM   11  CA  UNL     1      -9.593  10.395  64.393  1.00  0.00    -0.316 C  
HETATM   12  O   UNL     1      -8.685  12.785  63.821  1.00  0.00     1.819 OA 
ENDROOT
BRANCH  11  13
HETATM   13  N   UNL     1      -8.467   9.676  65.048  1.00  0.00    -0.140 N  
HETATM   14  H   UNL     1      -8.264   8.725  64.741  1.00  0.00     0.000 HD 
HETATM   15  C   UNL     1      -7.682  10.211  66.040  1.00  0.00    -0.120 C  
HETATM   16  O   UNL     1      -7.938  11.307  66.540  1.00  0.00    -0.157 OA 
BRANCH  15  17
HETATM   17  C   UNL     1      -6.440   9.416  66.426  1.00  0.00    -0.066 C  
HETATM   18  C   UNL     1      -5.690   8.832  65.459  1.00  0.00    -0.047 C  
BRANCH  17  19
HETATM   19  C   UNL     1      -6.077   9.305  67.824  1.00  0.00    -0.053 A  
HETATM   20  C   UNL     1      -5.269  10.184  68.520  1.00  0.00    -0.035 A  
HETATM   21  H2  UNL     1      -6.266   7.682  71.748  1.00  0.00     0.000 HD 
HETATM   22  S   UNL     1      -5.165   9.701  70.163  1.00  0.00    -0.033 SA 
HETATM   23  H1  UNL     1      -7.217   6.751  70.599  1.00  0.00     0.000 HD 
HETATM   24  N   UNL     1      -6.594   8.269  68.586  1.00  0.00    -0.053 NA 
HETATM   25  N   UNL     1      -6.597   7.536  70.795  1.00  0.00    -0.042 NA 
HETATM   26  C   UNL     1      -6.206   8.381  69.833  1.00  0.00    -0.032 A  
ENDBRANCH  17  19
BRANCH  18  27
HETATM   27  C   UNL     1      -5.760   8.910  63.955  1.00  0.00    -0.070 C  
HETATM   28  O   UNL     1      -6.682   7.022  62.756  1.00  0.00    -0.050 OA 
HETATM   29  C   UNL     1      -6.864   8.108  63.290  1.00  0.00    -0.084 C  
HETATM   30  O   UNL     1      -8.074   8.703  63.311  1.00  0.00    -0.157 OA 
ENDBRANCH  18  27
ENDBRANCH  15  17
ENDBRANCH  11  13
TORSDOF 4
ENDMDL
MODEL      208
REMARK 921   NORMALIZED FREE ENERGY PREDICTED BY IDOCK:    4.06 KCAL/MOL
REMARK 922        TOTAL FREE ENERGY PREDICTED BY IDOCK:    4.46 KCAL/MOL
REMARK 923 INTER-LIGAND FREE ENERGY PREDICTED BY IDOCK:    2.15 KCAL/MOL
REMARK 924 INTRA-LIGAND FREE ENERGY PREDICTED BY IDOCK:    2.31 KCAL/MOL
REMARK 927      BINDING AFFINITY PREDICTED BY RF-SCORE:    0.00 PKD
ROOT
HETATM    1  CE  UNL     1     -10.891  10.567  65.411  1.00  0.00     0.170 C  
HETATM    2  SD  UNL     1     -11.726  10.018  66.921  1.00  0.00     2.767 SA 
HETATM    3  CG  UNL     1     -12.080  11.699  67.503  1.00  0.00     0.269 C  
HETATM    4  CB  UNL     1     -10.889  12.606  67.412  1.00  0.00    -0.272 C  
HETATM    5  CA  UNL     1      -9.795  12.432  66.640  1.00  0.00    -0.223 C  
HETATM    6  N   UNL     1      -9.742  11.378  65.781  1.00  0.00    -0.224 N  
HETATM    7  C   UNL     1      -8.682  13.419  66.843  1.00  0.00    -0.142 C  
HETATM    8  C   UNL     1      -8.834  10.713  65.044  1.00  0.00    -0.197 C  
HETATM    9  OXT UNL     1      -8.759  14.348  67.639  1.00  0.00    -0.170 OA 
HETATM   10  O   UNL     1      -7.585  13.265  66.078  1.00  0.00     1.817 OA 
HETATM   11  CA  UNL     1      -9.886   9.578  64.731  1.00  0.00     0.236 C  
HETATM   12  O   UNL     1      -7.663  10.957  64.863  1.00  0.00     0.097 OA 
ENDROOT
BRANCH  11  13
HETATM   13  N   UNL     1      -9.602   8.280  65.400  1.00  0.00    -0.203 N  
HETATM   14  H   UNL     1      -9.631   7.434  64.832  1.00  0.00     0.000 HD 
HETATM   15  C   UNL     1      -9.304   8.148  66.733  1.00  0.00    -0.183 C  
HETATM   16  O   UNL     1      -9.364   9.107  67.503  1.00  0.00    -0.133 OA 
BRANCH  15  17
HETATM   17  C   UNL     1      -8.820   6.776  67.188  1.00  0.00    -0.119 C  
HETATM   18  C   UNL     1      -8.033   6.036  66.368  1.00  0.00    -0.105 C  
BRANCH  17  19
HETATM   19  C   UNL     1      -9.204   6.287  68.497  1.00  0.00    -0.123 A  
HETATM   20  C   UNL     1      -8.517   5.347  69.241  1.00  0.00    -0.099 A  
HETATM   21  H2  UNL     1     -11.493   6.223  72.079  1.00  0.00     0.000 HD 
HETATM   22  S   UNL     1      -9.293   5.122  70.754  1.00  0.00    -0.168 SA 
HETATM   23  H1  UNL     1     -12.140   7.355  70.898  1.00  0.00     0.000 HD 
HETATM   24  N   UNL     1     -10.326   6.810  69.122  1.00  0.00    -0.184 NA 
HETATM   25  N   UNL     1     -11.443   6.657  71.157  1.00  0.00    -0.303 NA 
HETATM   26  C   UNL     1     -10.465   6.295  70.318  1.00  0.00    -0.221 A  
ENDBRANCH  17  19
BRANCH  18  27
HETATM   27  C   UNL     1      -7.383   6.360  65.047  1.00  0.00    -0.078 C  
HETATM   28  O   UNL     1      -5.260   7.521  65.075  1.00  0.00    -0.028 OA 
HETATM   29  C   UNL     1      -5.868   6.459  65.050  1.00  0.00    -0.022 C  
HETATM   30  O   UNL     1      -5.232   5.270  64.996  1.00  0.00    -0.009 OA 
ENDBRANCH  18  27
ENDBRANCH  15  17
ENDBRANCH  11  13
TORSDOF 4
ENDMDL
MODEL      209
REMARK 921   NORMALIZED FREE ENERGY PREDICTED BY IDOCK:    6.03 KCAL/MOL
REMARK 922        TOTAL FREE ENERGY PREDICTED BY IDOCK:    6.88 KCAL/MOL
REMARK 923 INTER-LIGAND FREE ENERGY PREDICTED BY IDOCK:    0.91 KCAL/MOL
REMARK 924 INTRA-LIGAND FREE ENERGY PREDICTED BY IDOCK:    5.97 KCAL/MOL
REMARK 927      BINDING AFFINITY PREDICTED BY RF-SCORE:    0.00 PKD
ROOT
HETATM    1  CE  UNL     1      -7.218  12.005  66.644  1.00  0.00     0.140 C  
HETATM    2  SD  UNL     1      -7.865  11.643  64.992  1.00  0.00     1.729 SA 
HETATM    3  CG  UNL     1      -9.148  12.923  65.063  1.00  0.00     1.078 C  
HETATM    4  CB  UNL     1      -9.913  12.905  66.353  1.00  0.00    -0.267 C  
HETATM    5  CA  UNL     1      -9.520  12.354  67.520  1.00  0.00    -0.187 C  
HETATM    6  N   UNL     1      -8.280  11.801  67.617  1.00  0.00    -0.137 N  
HETATM    7  C   UNL     1     -10.538  12.353  68.624  1.00  0.00    -0.218 C  
HETATM    8  C   UNL     1      -7.591  10.987  68.436  1.00  0.00    -0.108 C  
HETATM    9  OXT UNL     1     -11.653  12.845  68.495  1.00  0.00    -0.279 OA 
HETATM   10  O   UNL     1     -10.162  11.811  69.799  1.00  0.00     0.506 OA 
HETATM   11  CA  UNL     1      -6.423  10.875  67.381  1.00  0.00    -0.065 C  
HETATM   12  O   UNL     1      -7.914  10.518  69.504  1.00  0.00    -0.154 OA 
ENDROOT
BRANCH  11  13
HETATM   13  N   UNL     1      -6.313   9.542  66.730  1.00  0.00    -0.065 N  
HETATM   14  H   UNL     1      -5.380   9.155  66.589  1.00  0.00     0.000 HD 
HETATM   15  C   UNL     1      -7.387   8.799  66.306  1.00  0.00    -0.087 C  
HETATM   16  O   UNL     1      -8.532   9.250  66.338  1.00  0.00    -0.120 OA 
BRANCH  15  17
HETATM   17  C   UNL     1      -7.093   7.367  65.875  1.00  0.00    -0.065 C  
HETATM   18  C   UNL     1      -6.889   7.089  64.564  1.00  0.00    -0.050 C  
BRANCH  17  19
HETATM   19  C   UNL     1      -7.029   6.324  66.879  1.00  0.00    -0.071 A  
HETATM   20  C   UNL     1      -7.996   6.058  67.830  1.00  0.00    -0.106 A  
HETATM   21  H2  UNL     1      -5.407   2.883  68.778  1.00  0.00     0.000 HD 
HETATM   22  S   UNL     1      -7.533   4.696  68.765  1.00  0.00    -0.064 SA 
HETATM   23  H1  UNL     1      -4.371   3.479  67.488  1.00  0.00     0.000 HD 
HETATM   24  N   UNL     1      -5.943   5.461  66.903  1.00  0.00    -0.022 NA 
HETATM   25  N   UNL     1      -5.222   3.566  68.043  1.00  0.00    -0.011 NA 
HETATM   26  C   UNL     1      -6.103   4.551  67.832  1.00  0.00    -0.031 A  
ENDBRANCH  17  19
BRANCH  18  27
HETATM   27  C   UNL     1      -6.759   7.987  63.360  1.00  0.00    -0.076 C  
HETATM   28  O   UNL     1      -7.865  10.139  63.417  1.00  0.00    -0.151 OA 
HETATM   29  C   UNL     1      -6.854   9.479  63.622  1.00  0.00    -0.104 C  
HETATM   30  O   UNL     1      -5.715  10.038  64.078  1.00  0.00    -0.102 OA 
ENDBRANCH  18  27
ENDBRANCH  15  17
ENDBRANCH  11  13
TORSDOF 4
ENDMDL
MODEL      210
REMARK 921   NORMALIZED FREE ENERGY PREDICTED BY IDOCK:    6.03 KCAL/MOL
REMARK 922        TOTAL FREE ENERGY PREDICTED BY IDOCK:    6.89 KCAL/MOL
REMARK 923 INTER-LIGAND FREE ENERGY PREDICTED BY IDOCK:    4.96 KCAL/MOL
REMARK 924 INTRA-LIGAND FREE ENERGY PREDICTED BY IDOCK:    1.93 KCAL/MOL
REMARK 927      BINDING AFFINITY PREDICTED BY RF-SCORE:    0.00 PKD
ROOT
HETATM    1  CE  UNL     1      -7.161  11.182  70.833  1.00  0.00     2.562 C  
HETATM    2  SD  UNL     1      -8.940  10.928  71.057  1.00  0.00     5.829 SA 
HETATM    3  CG  UNL     1      -8.770   9.192  71.554  1.00  0.00     0.058 C  
HETATM    4  CB  UNL     1      -7.856   8.418  70.651  1.00  0.00    -0.092 C  
HETATM    5  CA  UNL     1      -6.918   8.922  69.822  1.00  0.00    -0.050 C  
HETATM    6  N   UNL     1      -6.683  10.263  69.813  1.00  0.00    -0.086 N  
HETATM    7  C   UNL     1      -6.235   7.934  68.922  1.00  0.00    -0.039 C  
HETATM    8  C   UNL     1      -6.065  11.180  69.049  1.00  0.00    -0.044 C  
HETATM    9  OXT UNL     1      -6.485   6.734  68.946  1.00  0.00    -0.033 OA 
HETATM   10  O   UNL     1      -5.291   8.418  68.091  1.00  0.00    -0.033 OA 
HETATM   11  CA  UNL     1      -6.704  12.349  69.895  1.00  0.00     0.226 C  
HETATM   12  O   UNL     1      -5.388  11.026  68.057  1.00  0.00    -0.043 OA 
ENDROOT
BRANCH  11  13
HETATM   13  N   UNL     1      -7.743  13.130  69.171  1.00  0.00    -0.316 N  
HETATM   14  H   UNL     1      -8.033  14.023  69.570  1.00  0.00     0.000 HD 
HETATM   15  C   UNL     1      -8.336  12.727  68.001  1.00  0.00    -0.173 C  
HETATM   16  O   UNL     1      -8.121  11.613  67.523  1.00  0.00    -0.131 OA 
BRANCH  15  17
HETATM   17  C   UNL     1      -9.204  13.758  67.290  1.00  0.00    -0.239 C  
HETATM   18  C   UNL     1      -9.933  13.390  66.207  1.00  0.00    -0.298 C  
BRANCH  17  19
HETATM   19  C   UNL     1      -9.242  15.118  67.790  1.00  0.00    -0.180 A  
HETATM   20  C   UNL     1      -8.561  15.591  68.895  1.00  0.00    -0.209 A  
HETATM   21  H2  UNL     1     -10.235  19.250  67.676  1.00  0.00     0.000 HD 
HETATM   22  S   UNL     1      -8.845  17.272  69.077  1.00  0.00     0.008 SA 
HETATM   23  H1  UNL     1     -10.980  18.352  66.360  1.00  0.00     0.000 HD 
HETATM   24  N   UNL     1      -9.976  16.078  67.110  1.00  0.00    -0.244 NA 
HETATM   25  N   UNL     1     -10.394  18.365  67.194  1.00  0.00    -0.376 NA 
HETATM   26  C   UNL     1      -9.829  17.251  67.674  1.00  0.00    -0.279 A  
ENDBRANCH  17  19
BRANCH  18  27
HETATM   27  C   UNL     1     -10.183  12.041  65.582  1.00  0.00    -0.284 C  
HETATM   28  O   UNL     1     -11.215  11.972  63.394  1.00  0.00    -0.413 OA 
HETATM   29  C   UNL     1     -10.191  11.995  64.064  1.00  0.00    -0.365 C  
HETATM   30  O   UNL     1      -8.966  11.955  63.502  1.00  0.00     0.208 OA 
ENDBRANCH  18  27
ENDBRANCH  15  17
ENDBRANCH  11  13
TORSDOF 4
ENDMDL
MODEL      211
REMARK 921   NORMALIZED FREE ENERGY PREDICTED BY IDOCK:    7.20 KCAL/MOL
REMARK 922        TOTAL FREE ENERGY PREDICTED BY IDOCK:    8.34 KCAL/MOL
REMARK 923 INTER-LIGAND FREE ENERGY PREDICTED BY IDOCK:    5.62 KCAL/MOL
REMARK 924 INTRA-LIGAND FREE ENERGY PREDICTED BY IDOCK:    2.72 KCAL/MOL
REMARK 927      BINDING AFFINITY PREDICTED BY RF-SCORE:    0.00 PKD
ROOT
HETATM    1  CE  UNL     1      -6.622  15.421  70.481  1.00  0.00     0.244 C  
HETATM    2  SD  UNL     1      -7.659  14.706  71.782  1.00  0.00     4.519 SA 
HETATM    3  CG  UNL     1      -6.523  13.333  72.124  1.00  0.00     2.883 C  
HETATM    4  CB  UNL     1      -6.046  12.652  70.876  1.00  0.00     0.434 C  
HETATM    5  CA  UNL     1      -6.051  13.157  69.624  1.00  0.00    -0.120 C  
HETATM    6  N   UNL     1      -6.458  14.440  69.421  1.00  0.00    -0.123 N  
HETATM    7  C   UNL     1      -5.647  12.211  68.531  1.00  0.00    -0.053 C  
HETATM    8  C   UNL     1      -6.832  15.238  68.406  1.00  0.00    -0.112 C  
HETATM    9  OXT UNL     1      -5.302  11.054  68.750  1.00  0.00    -0.041 OA 
HETATM   10  O   UNL     1      -5.641  12.698  67.275  1.00  0.00    -0.266 OA 
HETATM   11  CA  UNL     1      -7.312  16.345  69.422  1.00  0.00    -0.150 C  
HETATM   12  O   UNL     1      -6.836  15.017  67.215  1.00  0.00    -0.245 OA 
ENDROOT
BRANCH  11  13
HETATM   13  N   UNL     1      -8.789  16.518  69.484  1.00  0.00     0.077 N  
HETATM   14  H   UNL     1      -9.152  17.377  69.897  1.00  0.00     0.000 HD 
HETATM   15  C   UNL     1      -9.694  15.596  69.021  1.00  0.00    -0.241 C  
HETATM   16  O   UNL     1      -9.335  14.491  68.616  1.00  0.00    -0.199 OA 
BRANCH  15  17
HETATM   17  C   UNL     1     -11.149  16.046  68.960  1.00  0.00    -0.320 C  
HETATM   18  C   UNL     1     -11.544  16.915  67.997  1.00  0.00     0.437 C  
BRANCH  17  19
HETATM   19  C   UNL     1     -12.092  15.528  69.931  1.00  0.00    -0.355 A  
HETATM   20  C   UNL     1     -13.309  14.940  69.642  1.00  0.00     1.136 A  
HETATM   21  H2  UNL     1     -13.406  14.378  73.808  1.00  0.00     0.000 HD 
HETATM   22  S   UNL     1     -14.060  14.415  71.091  1.00  0.00     0.060 SA 
HETATM   23  H1  UNL     1     -11.842  15.181  73.848  1.00  0.00     0.000 HD 
HETATM   24  N   UNL     1     -11.773  15.561  71.281  1.00  0.00    -0.359 NA 
HETATM   25  N   UNL     1     -12.642  14.841  73.316  1.00  0.00    -0.450 NA 
HETATM   26  C   UNL     1     -12.715  14.986  71.987  1.00  0.00    -0.333 A  
ENDBRANCH  17  19
BRANCH  18  27
HETATM   27  C   UNL     1     -10.818  17.481  66.803  1.00  0.00     0.009 C  
HETATM   28  O   UNL     1      -8.413  17.720  66.938  1.00  0.00    -0.227 OA 
HETATM   29  C   UNL     1      -9.378  17.037  66.619  1.00  0.00    -0.255 C  
HETATM   30  O   UNL     1      -9.239  15.824  66.045  1.00  0.00    -0.331 OA 
ENDBRANCH  18  27
ENDBRANCH  15  17
ENDBRANCH  11  13
TORSDOF 4
ENDMDL
