MODEL        1
REMARK 921   NORMALIZED FREE ENERGY PREDICTED BY IDOCK:   -7.65 KCAL/MOL
REMARK 922        TOTAL FREE ENERGY PREDICTED BY IDOCK:  -12.49 KCAL/MOL
REMARK 923 INTER-LIGAND FREE ENERGY PREDICTED BY IDOCK:  -11.22 KCAL/MOL
REMARK 924 INTRA-LIGAND FREE ENERGY PREDICTED BY IDOCK:   -1.26 KCAL/MOL
REMARK 927      BINDING AFFINITY PREDICTED BY RF-SCORE:    0.00 PKD
ROOT
HETATM    1  C   UNL     1      -9.155  15.702  66.196  1.00  0.00    -0.342 C  
HETATM    2  S   UNL     1      -8.420  15.145  67.709  1.00  0.00    -0.157 SA 
HETATM    3  C   UNL     1      -9.572  13.856  68.315  1.00  0.00    -0.218 C  
HETATM    4  C   UNL     1     -10.759  13.475  67.477  1.00  0.00    -0.266 C  
HETATM    5  CA  UNL     1     -11.074  14.057  66.280  1.00  0.00    -0.307 C  
HETATM    6  CA  UNL     1      -9.695  17.121  65.727  1.00  0.00    -0.014 C  
HETATM    7  C   UNL     1     -10.765  16.225  65.029  1.00  0.00    -0.298 C  
HETATM    8  N   UNL     1     -10.420  15.158  65.797  1.00  0.00    -0.315 N  
HETATM    9  C   UNL     1     -12.196  13.475  65.460  1.00  0.00    -0.451 C  
HETATM   10  O   UNL     1     -11.716  16.465  64.324  1.00  0.00    -0.739 OA 
HETATM   11  O   UNL     1     -13.000  14.330  64.799  1.00  0.00    -0.653 OA 
HETATM   12  OXT UNL     1     -12.376  12.271  65.368  1.00  0.00    -0.582 OA 
ENDROOT
BRANCH   4  13
HETATM   13  C   UNL     1     -11.698  12.395  68.094  1.00  0.00    -0.353 C  
BRANCH  13  14
HETATM   14  S   UNL     1     -11.843  12.217  69.917  1.00  0.00    -0.268 SA 
BRANCH  14  15
HETATM   15  C   UNL     1     -11.405  10.535  70.300  1.00  0.00    -0.327 C  
HETATM   16  N   UNL     1     -10.509  10.020  69.532  1.00  0.00    -0.222 N  
HETATM   17  H   UNL     1     -10.011  10.581  68.841  1.00  0.00     0.000 HD 
HETATM   18  C   UNL     1     -13.239  10.331  72.060  1.00  0.00    -0.411 C  
HETATM   19  C   UNL     1     -10.254   8.674  69.690  1.00  0.00    -0.208 C  
HETATM   20  N   UNL     1     -12.100   9.848  71.300  1.00  0.00    -0.365 NA 
HETATM   21  C   UNL     1     -10.660   7.932  70.963  1.00  0.00    -0.213 C  
HETATM   22  O   UNL     1      -9.794   7.964  68.795  1.00  0.00    -0.160 OA 
HETATM   23  H   UNL     1     -12.312   7.952  72.219  1.00  0.00     0.000 HD 
HETATM   24  N   UNL     1     -11.750   8.501  71.570  1.00  0.00    -0.281 N  
HETATM   25  O   UNL     1     -10.113   6.919  71.367  1.00  0.00    -0.187 OA 
ENDBRANCH  14  15
ENDBRANCH  13  14
ENDBRANCH   4  13
BRANCH   6  26
HETATM   26  N   UNL     1     -10.340  18.322  66.433  1.00  0.00    -0.396 N  
HETATM   27  O   UNL     1     -10.633  20.222  67.653  1.00  0.00    -0.250 OA 
HETATM   28  C   UNL     1      -9.845  19.437  67.129  1.00  0.00    -0.338 C  
HETATM   29  H   UNL     1     -11.359  18.306  66.386  1.00  0.00     0.000 HD 
BRANCH  28  30
HETATM   30  C   UNL     1      -8.392  19.827  67.100  1.00  0.00    -0.315 C  
BRANCH  30  31
HETATM   31  C   UNL     1      -7.468  19.686  68.232  1.00  0.00    -0.314 A  
HETATM   32  H2  UNL     1      -4.854  17.596  70.899  1.00  0.00     0.000 HD 
HETATM   33  C   UNL     1      -6.482  20.626  68.485  1.00  0.00    -0.244 A  
HETATM   34  H1  UNL     1      -6.246  16.618  70.429  1.00  0.00     0.000 HD 
HETATM   35  N   UNL     1      -7.275  18.472  68.913  1.00  0.00    -0.292 NA 
HETATM   36  N   UNL     1      -5.728  17.496  70.382  1.00  0.00    -0.204 NA 
HETATM   37  S   UNL     1      -5.315  20.000  69.567  1.00  0.00    -0.237 SA 
HETATM   38  C   UNL     1      -6.187  18.521  69.647  1.00  0.00    -0.232 A  
ENDBRANCH  30  31
BRANCH  30  39
HETATM   39  N   UNL     1      -7.866  20.531  66.153  1.00  0.00    -0.521 NA 
HETATM   40  H   UNL     1      -7.761  21.536  66.284  1.00  0.00     0.000 HD 
BRANCH  39  41
HETATM   41  O   UNL     1      -7.437  19.956  64.956  1.00  0.00    -0.267 OA 
HETATM   42  C   UNL     1      -6.069  19.733  64.673  1.00  0.00    -0.272 C  
ENDBRANCH  39  41
ENDBRANCH  30  39
ENDBRANCH  28  30
ENDBRANCH   6  26
TORSDOF 8
ENDMDL
MODEL        2
REMARK 921   NORMALIZED FREE ENERGY PREDICTED BY IDOCK:   -7.55 KCAL/MOL
REMARK 922        TOTAL FREE ENERGY PREDICTED BY IDOCK:  -12.35 KCAL/MOL
REMARK 923 INTER-LIGAND FREE ENERGY PREDICTED BY IDOCK:  -10.44 KCAL/MOL
REMARK 924 INTRA-LIGAND FREE ENERGY PREDICTED BY IDOCK:   -1.91 KCAL/MOL
REMARK 927      BINDING AFFINITY PREDICTED BY RF-SCORE:    0.00 PKD
ROOT
HETATM    1  C   UNL     1      -9.913   8.642  70.156  1.00  0.00    -0.182 C  
HETATM    2  S   UNL     1      -8.969   9.752  69.147  1.00  0.00    -0.172 SA 
HETATM    3  C   UNL     1     -10.017  11.249  69.032  1.00  0.00    -0.105 C  
HETATM    4  C   UNL     1     -11.309  11.306  69.797  1.00  0.00    -0.348 C  
HETATM    5  CA  UNL     1     -11.793  10.284  70.566  1.00  0.00    -0.329 C  
HETATM    6  CA  UNL     1     -10.521   7.200  69.881  1.00  0.00    -0.223 C  
HETATM    7  C   UNL     1     -11.674   7.772  70.764  1.00  0.00    -0.225 C  
HETATM    8  N   UNL     1     -11.218   9.041  70.592  1.00  0.00    -0.263 N  
HETATM    9  C   UNL     1     -13.016  10.524  71.412  1.00  0.00    -0.440 C  
HETATM   10  O   UNL     1     -12.716   7.313  71.166  1.00  0.00    -0.350 OA 
HETATM   11  O   UNL     1     -13.909   9.522  71.524  1.00  0.00    -0.309 OA 
HETATM   12  OXT UNL     1     -13.201  11.577  72.002  1.00  0.00    -0.509 OA 
ENDROOT
BRANCH   4  13
HETATM   13  C   UNL     1     -12.147  12.607  69.607  1.00  0.00    -0.213 C  
BRANCH  13  14
HETATM   14  S   UNL     1     -11.328  14.181  69.132  1.00  0.00    -0.294 SA 
BRANCH  14  15
HETATM   15  C   UNL     1     -11.621  14.400  67.389  1.00  0.00    -0.375 C  
HETATM   16  N   UNL     1     -12.502  13.610  66.885  1.00  0.00    -0.357 N  
HETATM   17  H   UNL     1     -13.067  12.995  67.471  1.00  0.00     0.000 HD 
HETATM   18  C   UNL     1      -9.712  16.076  67.157  1.00  0.00    -0.228 C  
HETATM   19  C   UNL     1     -12.647  13.635  65.513  1.00  0.00    -0.496 C  
HETATM   20  N   UNL     1     -10.837  15.303  66.664  1.00  0.00    -0.311 NA 
HETATM   21  C   UNL     1     -12.138  14.811  64.682  1.00  0.00    -0.427 C  
HETATM   22  O   UNL     1     -13.083  12.685  64.862  1.00  0.00    -0.850 OA 
HETATM   23  H   UNL     1     -10.446  16.014  64.707  1.00  0.00     0.000 HD 
HETATM   24  N   UNL     1     -11.073  15.442  65.272  1.00  0.00    -0.367 N  
HETATM   25  O   UNL     1     -12.589  15.123  63.592  1.00  0.00    -0.614 OA 
ENDBRANCH  14  15
ENDBRANCH  13  14
ENDBRANCH   4  13
BRANCH   6  26
HETATM   26  N   UNL     1     -11.066   6.472  68.645  1.00  0.00    -0.488 N  
HETATM   27  O   UNL     1     -11.380   5.771  66.501  1.00  0.00     0.011 OA 
HETATM   28  C   UNL     1     -10.691   6.411  67.293  1.00  0.00    -0.353 C  
HETATM   29  H   UNL     1     -11.887   5.903  68.852  1.00  0.00     0.000 HD 
BRANCH  28  30
HETATM   30  C   UNL     1      -9.370   6.936  66.797  1.00  0.00    -0.158 C  
BRANCH  30  31
HETATM   31  C   UNL     1      -9.216   8.066  65.872  1.00  0.00    -0.067 A  
HETATM   32  H2  UNL     1      -9.510  12.143  64.609  1.00  0.00     0.000 HD 
HETATM   33  C   UNL     1      -8.069   8.228  65.112  1.00  0.00    -0.142 A  
HETATM   34  H1  UNL     1     -10.890  11.650  65.591  1.00  0.00     0.000 HD 
HETATM   35  N   UNL     1     -10.017   9.217  65.934  1.00  0.00    -0.289 NA 
HETATM   36  N   UNL     1     -10.004  11.425  65.139  1.00  0.00    -0.252 NA 
HETATM   37  S   UNL     1      -7.987   9.813  64.475  1.00  0.00    -0.153 SA 
HETATM   38  C   UNL     1      -9.481  10.193  65.237  1.00  0.00    -0.248 A  
ENDBRANCH  30  31
BRANCH  30  39
HETATM   39  N   UNL     1      -8.253   6.307  66.957  1.00  0.00    -0.109 NA 
HETATM   40  H   UNL     1      -7.396   6.721  66.591  1.00  0.00     0.000 HD 
BRANCH  39  41
HETATM   41  O   UNL     1      -8.183   5.079  67.616  1.00  0.00    -0.105 OA 
HETATM   42  C   UNL     1      -7.997   3.861  66.923  1.00  0.00    -0.096 C  
ENDBRANCH  39  41
ENDBRANCH  30  39
ENDBRANCH  28  30
ENDBRANCH   6  26
TORSDOF 8
ENDMDL
MODEL        3
REMARK 921   NORMALIZED FREE ENERGY PREDICTED BY IDOCK:   -7.52 KCAL/MOL
REMARK 922        TOTAL FREE ENERGY PREDICTED BY IDOCK:  -12.30 KCAL/MOL
REMARK 923 INTER-LIGAND FREE ENERGY PREDICTED BY IDOCK:  -10.67 KCAL/MOL
REMARK 924 INTRA-LIGAND FREE ENERGY PREDICTED BY IDOCK:   -1.63 KCAL/MOL
REMARK 927      BINDING AFFINITY PREDICTED BY RF-SCORE:    0.00 PKD
ROOT
HETATM    1  C   UNL     1     -11.342  12.629  69.587  1.00  0.00    -0.104 C  
HETATM    2  S   UNL     1     -12.716  12.625  70.705  1.00  0.00    -0.047 SA 
HETATM    3  C   UNL     1     -12.684  10.950  71.445  1.00  0.00    -0.434 C  
HETATM    4  C   UNL     1     -11.572  10.006  71.084  1.00  0.00    -0.460 C  
HETATM    5  CA  UNL     1     -10.575  10.296  70.193  1.00  0.00    -0.246 C  
HETATM    6  CA  UNL     1     -11.241  12.826  68.014  1.00  0.00    -0.270 C  
HETATM    7  C   UNL     1     -10.124  11.751  68.183  1.00  0.00    -0.192 C  
HETATM    8  N   UNL     1     -10.577  11.428  69.423  1.00  0.00    -0.119 N  
HETATM    9  C   UNL     1      -9.431   9.329  70.040  1.00  0.00    -0.211 C  
HETATM   10  O   UNL     1      -9.369  11.211  67.410  1.00  0.00    -0.162 OA 
HETATM   11  O   UNL     1      -8.931   9.138  68.804  1.00  0.00    -0.135 OA 
HETATM   12  OXT UNL     1      -8.943   8.743  70.995  1.00  0.00    -0.177 OA 
ENDROOT
BRANCH   4  13
HETATM   13  C   UNL     1     -11.651   8.593  71.737  1.00  0.00    -0.332 C  
BRANCH  13  14
HETATM   14  S   UNL     1     -12.492   7.210  70.868  1.00  0.00    -0.173 SA 
BRANCH  14  15
HETATM   15  C   UNL     1     -11.275   6.463  69.804  1.00  0.00    -0.419 C  
HETATM   16  N   UNL     1     -11.417   6.725  68.552  1.00  0.00    -0.542 N  
HETATM   17  H   UNL     1     -12.102   7.404  68.222  1.00  0.00     0.000 HD 
HETATM   18  C   UNL     1     -10.256   5.117  71.716  1.00  0.00    -0.209 C  
HETATM   19  C   UNL     1     -10.596   6.043  67.677  1.00  0.00    -0.264 C  
HETATM   20  N   UNL     1     -10.333   5.581  70.342  1.00  0.00    -0.255 NA 
HETATM   21  C   UNL     1      -9.314   5.365  68.157  1.00  0.00    -0.114 C  
HETATM   22  O   UNL     1     -10.887   5.838  66.499  1.00  0.00    -0.276 OA 
HETATM   23  H   UNL     1      -8.764   4.257  69.824  1.00  0.00     0.000 HD 
HETATM   24  N   UNL     1      -9.390   4.980  69.471  1.00  0.00    -0.118 N  
HETATM   25  O   UNL     1      -8.351   5.142  67.442  1.00  0.00    -0.107 OA 
ENDBRANCH  14  15
ENDBRANCH  13  14
ENDBRANCH   4  13
BRANCH   6  26
HETATM   26  N   UNL     1     -12.155  12.507  66.822  1.00  0.00    -0.239 N  
HETATM   27  O   UNL     1     -13.067  12.468  64.736  1.00  0.00    -0.853 OA 
HETATM   28  C   UNL     1     -12.135  12.826  65.454  1.00  0.00    -0.462 C  
HETATM   29  H   UNL     1     -12.957  11.934  67.082  1.00  0.00     0.000 HD 
BRANCH  28  30
HETATM   30  C   UNL     1     -10.928  13.422  64.781  1.00  0.00    -0.360 C  
BRANCH  30  31
HETATM   31  C   UNL     1     -10.322  14.709  65.142  1.00  0.00    -0.403 A  
HETATM   32  H2  UNL     1     -10.289  18.895  66.031  1.00  0.00     0.000 HD 
HETATM   33  C   UNL     1      -9.344  14.801  66.119  1.00  0.00    -0.257 A  
HETATM   34  H1  UNL     1     -11.451  18.493  64.766  1.00  0.00     0.000 HD 
HETATM   35  N   UNL     1     -10.899  15.945  64.805  1.00  0.00    -0.583 NA 
HETATM   36  N   UNL     1     -10.730  18.201  65.426  1.00  0.00    -0.534 NA 
HETATM   37  S   UNL     1      -9.143  16.424  66.620  1.00  0.00    -0.274 SA 
HETATM   38  C   UNL     1     -10.357  16.915  65.507  1.00  0.00    -0.177 A  
ENDBRANCH  30  31
BRANCH  30  39
HETATM   39  N   UNL     1     -10.440  12.969  63.674  1.00  0.00    -0.532 NA 
HETATM   40  H   UNL     1     -10.118  13.632  62.968  1.00  0.00     0.000 HD 
BRANCH  39  41
HETATM   41  O   UNL     1     -10.338  11.602  63.414  1.00  0.00    -0.382 OA 
HETATM   42  C   UNL     1      -9.286  10.812  63.933  1.00  0.00    -0.253 C  
ENDBRANCH  39  41
ENDBRANCH  30  39
ENDBRANCH  28  30
ENDBRANCH   6  26
TORSDOF 8
ENDMDL
MODEL        4
REMARK 921   NORMALIZED FREE ENERGY PREDICTED BY IDOCK:   -7.48 KCAL/MOL
REMARK 922        TOTAL FREE ENERGY PREDICTED BY IDOCK:  -12.25 KCAL/MOL
REMARK 923 INTER-LIGAND FREE ENERGY PREDICTED BY IDOCK:  -10.72 KCAL/MOL
REMARK 924 INTRA-LIGAND FREE ENERGY PREDICTED BY IDOCK:   -1.52 KCAL/MOL
REMARK 927      BINDING AFFINITY PREDICTED BY RF-SCORE:    0.00 PKD
ROOT
HETATM    1  C   UNL     1     -11.772  14.175  67.207  1.00  0.00    -0.392 C  
HETATM    2  S   UNL     1     -10.613  14.224  68.546  1.00  0.00    -0.263 SA 
HETATM    3  C   UNL     1      -9.445  15.554  68.076  1.00  0.00    -0.194 C  
HETATM    4  C   UNL     1      -9.693  16.345  66.823  1.00  0.00    -0.263 C  
HETATM    5  CA  UNL     1     -10.733  16.117  65.963  1.00  0.00    -0.241 C  
HETATM    6  CA  UNL     1     -12.167  13.036  66.173  1.00  0.00    -0.360 C  
HETATM    7  C   UNL     1     -12.269  14.262  65.214  1.00  0.00    -0.414 C  
HETATM    8  N   UNL     1     -11.570  15.040  66.082  1.00  0.00    -0.230 N  
HETATM    9  C   UNL     1     -10.965  17.082  64.830  1.00  0.00     0.092 C  
HETATM   10  O   UNL     1     -12.567  14.382  64.050  1.00  0.00    -0.764 OA 
HETATM   11  O   UNL     1     -11.360  16.575  63.645  1.00  0.00    -0.730 OA 
HETATM   12  OXT UNL     1     -10.826  18.288  64.964  1.00  0.00    -0.679 OA 
ENDROOT
BRANCH   4  13
HETATM   13  C   UNL     1      -8.626  17.430  66.490  1.00  0.00    -0.261 C  
BRANCH  13  14
HETATM   14  S   UNL     1      -6.853  17.143  66.876  1.00  0.00    -0.231 SA 
BRANCH  14  15
HETATM   15  C   UNL     1      -6.459  18.189  68.262  1.00  0.00    -0.196 C  
HETATM   16  N   UNL     1      -6.333  19.438  67.980  1.00  0.00    -0.215 N  
HETATM   17  H   UNL     1      -6.563  19.803  67.056  1.00  0.00     0.000 HD 
HETATM   18  C   UNL     1      -6.157  16.199  69.830  1.00  0.00    -0.172 C  
HETATM   19  C   UNL     1      -5.873  20.260  68.988  1.00  0.00    -0.309 C  
HETATM   20  N   UNL     1      -6.208  17.615  69.512  1.00  0.00    -0.251 NA 
HETATM   21  C   UNL     1      -5.931  19.829  70.453  1.00  0.00    -0.285 C  
HETATM   22  O   UNL     1      -5.294  21.326  68.779  1.00  0.00    -0.302 OA 
HETATM   23  H   UNL     1      -5.583  18.063  71.487  1.00  0.00     0.000 HD 
HETATM   24  N   UNL     1      -5.871  18.466  70.596  1.00  0.00    -0.078 N  
HETATM   25  O   UNL     1      -5.971  20.606  71.392  1.00  0.00    -0.609 OA 
ENDBRANCH  14  15
ENDBRANCH  13  14
ENDBRANCH   4  13
BRANCH   6  26
HETATM   26  N   UNL     1     -11.422  11.866  65.514  1.00  0.00    -0.295 N  
HETATM   27  O   UNL     1     -10.120  10.025  65.197  1.00  0.00    -0.325 OA 
HETATM   28  C   UNL     1     -10.659  10.789  65.995  1.00  0.00    -0.156 C  
HETATM   29  H   UNL     1     -11.499  11.873  64.497  1.00  0.00     0.000 HD 
BRANCH  28  30
HETATM   30  C   UNL     1     -10.628  10.408  67.450  1.00  0.00    -0.269 C  
BRANCH  30  31
HETATM   31  C   UNL     1      -9.414  10.038  68.190  1.00  0.00    -0.138 A  
HETATM   32  H2  UNL     1      -6.143  10.652  70.879  1.00  0.00     0.000 HD 
HETATM   33  C   UNL     1      -9.281   8.796  68.790  1.00  0.00    -0.141 A  
HETATM   34  H1  UNL     1      -6.515  12.100  69.942  1.00  0.00     0.000 HD 
HETATM   35  N   UNL     1      -8.477  10.983  68.638  1.00  0.00    -0.152 NA 
HETATM   36  N   UNL     1      -6.702  11.123  70.167  1.00  0.00    -0.190 NA 
HETATM   37  S   UNL     1      -7.992   8.804  69.912  1.00  0.00    -0.113 SA 
HETATM   38  C   UNL     1      -7.676  10.451  69.534  1.00  0.00    -0.156 A  
ENDBRANCH  30  31
BRANCH  30  39
HETATM   39  N   UNL     1     -11.690  10.151  68.138  1.00  0.00    -0.666 NA 
HETATM   40  H   UNL     1     -12.189   9.277  67.970  1.00  0.00     0.000 HD 
BRANCH  39  41
HETATM   41  O   UNL     1     -12.177  11.032  69.104  1.00  0.00    -0.434 OA 
HETATM   42  C   UNL     1     -12.495  10.612  70.417  1.00  0.00    -0.338 C  
ENDBRANCH  39  41
ENDBRANCH  30  39
ENDBRANCH  28  30
ENDBRANCH   6  26
TORSDOF 8
ENDMDL
MODEL        5
REMARK 921   NORMALIZED FREE ENERGY PREDICTED BY IDOCK:   -7.45 KCAL/MOL
REMARK 922        TOTAL FREE ENERGY PREDICTED BY IDOCK:  -12.19 KCAL/MOL
REMARK 923 INTER-LIGAND FREE ENERGY PREDICTED BY IDOCK:  -10.93 KCAL/MOL
REMARK 924 INTRA-LIGAND FREE ENERGY PREDICTED BY IDOCK:   -1.27 KCAL/MOL
REMARK 927      BINDING AFFINITY PREDICTED BY RF-SCORE:    0.00 PKD
ROOT
HETATM    1  C   UNL     1     -11.986  13.878  68.862  1.00  0.00    -0.358 C  
HETATM    2  S   UNL     1     -11.752  12.259  68.184  1.00  0.00    -0.320 SA 
HETATM    3  C   UNL     1     -12.158  11.132  69.569  1.00  0.00    -0.326 C  
HETATM    4  C   UNL     1     -12.649  11.707  70.868  1.00  0.00    -0.409 C  
HETATM    5  CA  UNL     1     -12.785  13.046  71.114  1.00  0.00    -0.283 C  
HETATM    6  CA  UNL     1     -10.997  15.104  69.073  1.00  0.00    -0.244 C  
HETATM    7  C   UNL     1     -11.844  15.266  70.373  1.00  0.00    -0.324 C  
HETATM    8  N   UNL     1     -12.340  14.007  70.245  1.00  0.00    -0.348 N  
HETATM    9  C   UNL     1     -13.440  13.489  72.396  1.00  0.00    -0.584 C  
HETATM   10  O   UNL     1     -11.823  16.060  71.283  1.00  0.00    -0.415 OA 
HETATM   11  O   UNL     1     -12.942  14.580  73.011  1.00  0.00    -0.481 OA 
HETATM   12  OXT UNL     1     -14.403  12.905  72.868  1.00  0.00    -0.194 OA 
ENDROOT
BRANCH   4  13
HETATM   13  C   UNL     1     -12.934  10.671  71.997  1.00  0.00    -0.361 C  
BRANCH  13  14
HETATM   14  S   UNL     1     -12.920   8.870  71.635  1.00  0.00    -0.363 SA 
BRANCH  14  15
HETATM   15  C   UNL     1     -11.266   8.299  71.964  1.00  0.00    -0.323 C  
HETATM   16  N   UNL     1     -10.346   9.187  71.813  1.00  0.00    -0.331 N  
HETATM   17  H   UNL     1     -10.571  10.166  71.636  1.00  0.00     0.000 HD 
HETATM   18  C   UNL     1     -12.029   5.882  72.249  1.00  0.00    -0.152 C  
HETATM   19  C   UNL     1      -9.040   8.750  71.902  1.00  0.00    -0.220 C  
HETATM   20  N   UNL     1     -11.044   6.949  72.251  1.00  0.00    -0.241 NA 
HETATM   21  C   UNL     1      -8.691   7.421  72.569  1.00  0.00    -0.123 C  
HETATM   22  O   UNL     1      -8.096   9.330  71.364  1.00  0.00    -0.330 OA 
HETATM   23  H   UNL     1      -9.520   5.518  72.592  1.00  0.00     0.000 HD 
HETATM   24  N   UNL     1      -9.715   6.513  72.485  1.00  0.00    -0.159 N  
HETATM   25  O   UNL     1      -7.607   7.173  73.072  1.00  0.00    -0.079 OA 
ENDBRANCH  14  15
ENDBRANCH  13  14
ENDBRANCH   4  13
BRANCH   6  26
HETATM   26  N   UNL     1      -9.495  15.248  69.358  1.00  0.00    -0.310 N  
HETATM   27  O   UNL     1      -7.242  15.432  69.085  1.00  0.00    -0.142 OA 
HETATM   28  C   UNL     1      -8.352  15.408  68.558  1.00  0.00    -0.151 C  
HETATM   29  H   UNL     1      -9.278  15.220  70.354  1.00  0.00     0.000 HD 
BRANCH  28  30
HETATM   30  C   UNL     1      -8.433  15.748  67.094  1.00  0.00    -0.208 C  
BRANCH  30  31
HETATM   31  C   UNL     1      -8.357  17.109  66.548  1.00  0.00    -0.274 A  
HETATM   32  H2  UNL     1      -9.395  21.248  66.225  1.00  0.00     0.000 HD 
HETATM   33  C   UNL     1      -7.142  17.701  66.242  1.00  0.00    -0.301 A  
HETATM   34  H1  UNL     1     -10.795  20.238  66.587  1.00  0.00     0.000 HD 
HETATM   35  N   UNL     1      -9.424  18.020  66.619  1.00  0.00    -0.288 NA 
HETATM   36  N   UNL     1      -9.797  20.326  66.396  1.00  0.00    -0.416 NA 
HETATM   37  S   UNL     1      -7.326  19.389  66.044  1.00  0.00    -0.290 SA 
HETATM   38  C   UNL     1      -9.008  19.241  66.367  1.00  0.00    -0.352 A  
ENDBRANCH  30  31
BRANCH  30  39
HETATM   39  N   UNL     1      -8.800  14.902  66.189  1.00  0.00    -0.467 NA 
HETATM   40  H   UNL     1      -8.173  14.136  65.945  1.00  0.00     0.000 HD 
BRANCH  39  41
HETATM   41  O   UNL     1     -10.028  15.005  65.536  1.00  0.00    -0.338 OA 
HETATM   42  C   UNL     1     -10.538  13.968  64.720  1.00  0.00    -0.421 C  
ENDBRANCH  39  41
ENDBRANCH  30  39
ENDBRANCH  28  30
ENDBRANCH   6  26
TORSDOF 8
ENDMDL
MODEL        6
REMARK 921   NORMALIZED FREE ENERGY PREDICTED BY IDOCK:   -7.43 KCAL/MOL
REMARK 922        TOTAL FREE ENERGY PREDICTED BY IDOCK:  -12.16 KCAL/MOL
REMARK 923 INTER-LIGAND FREE ENERGY PREDICTED BY IDOCK:  -10.82 KCAL/MOL
REMARK 924 INTRA-LIGAND FREE ENERGY PREDICTED BY IDOCK:   -1.35 KCAL/MOL
REMARK 927      BINDING AFFINITY PREDICTED BY RF-SCORE:    0.00 PKD
ROOT
HETATM    1  C   UNL     1     -11.800  14.130  68.443  1.00  0.00    -0.353 C  
HETATM    2  S   UNL     1     -11.512  15.356  69.690  1.00  0.00    -0.348 SA 
HETATM    3  C   UNL     1     -10.742  16.745  68.779  1.00  0.00    -0.341 C  
HETATM    4  C   UNL     1     -10.585  16.653  67.288  1.00  0.00    -0.281 C  
HETATM    5  CA  UNL     1     -10.951  15.566  66.542  1.00  0.00    -0.243 C  
HETATM    6  CA  UNL     1     -11.269  12.644  68.259  1.00  0.00    -0.272 C  
HETATM    7  C   UNL     1     -11.270  13.074  66.759  1.00  0.00    -0.298 C  
HETATM    8  N   UNL     1     -11.359  14.386  67.103  1.00  0.00    -0.328 N  
HETATM    9  C   UNL     1     -10.893  15.661  65.039  1.00  0.00    -0.450 C  
HETATM   10  O   UNL     1     -10.990  12.503  65.733  1.00  0.00    -0.277 OA 
HETATM   11  O   UNL     1     -10.487  14.573  64.356  1.00  0.00    -0.180 OA 
HETATM   12  OXT UNL     1     -11.218  16.674  64.439  1.00  0.00    -1.033 OA 
ENDROOT
BRANCH   4  13
HETATM   13  C   UNL     1      -9.887  17.870  66.608  1.00  0.00    -0.342 C  
BRANCH  13  14
HETATM   14  S   UNL     1      -8.087  17.829  66.247  1.00  0.00    -0.198 SA 
BRANCH  14  15
HETATM   15  C   UNL     1      -7.269  18.549  67.655  1.00  0.00    -0.215 C  
HETATM   16  N   UNL     1      -6.968  19.793  67.529  1.00  0.00    -0.228 N  
HETATM   17  H   UNL     1      -7.285  20.343  66.730  1.00  0.00     0.000 HD 
HETATM   18  C   UNL     1      -7.067  16.298  68.838  1.00  0.00    -0.182 C  
HETATM   19  C   UNL     1      -6.194  20.350  68.527  1.00  0.00    -0.317 C  
HETATM   20  N   UNL     1      -6.912  17.738  68.737  1.00  0.00    -0.249 NA 
HETATM   21  C   UNL     1      -6.071  19.688  69.898  1.00  0.00    -0.307 C  
HETATM   22  O   UNL     1      -5.474  21.334  68.354  1.00  0.00    -0.314 OA 
HETATM   23  H   UNL     1      -5.878  17.739  70.586  1.00  0.00     0.000 HD 
HETATM   24  N   UNL     1      -6.239  18.329  69.836  1.00  0.00    -0.170 N  
HETATM   25  O   UNL     1      -5.801  20.290  70.925  1.00  0.00    -0.375 OA 
ENDBRANCH  14  15
ENDBRANCH  13  14
ENDBRANCH   4  13
BRANCH   6  26
HETATM   26  N   UNL     1      -9.978  11.901  68.631  1.00  0.00    -0.328 N  
HETATM   27  O   UNL     1      -8.525  10.343  69.438  1.00  0.00    -0.161 OA 
HETATM   28  C   UNL     1      -9.692  10.645  69.192  1.00  0.00    -0.189 C  
HETATM   29  H   UNL     1      -9.139  12.441  68.424  1.00  0.00     0.000 HD 
BRANCH  28  30
HETATM   30  C   UNL     1     -10.732   9.566  69.331  1.00  0.00    -0.225 C  
BRANCH  30  31
HETATM   31  C   UNL     1     -11.356   9.167  70.599  1.00  0.00    -0.273 A  
HETATM   32  H2  UNL     1     -14.592   8.529  73.324  1.00  0.00     0.000 HD 
HETATM   33  C   UNL     1     -10.959   8.024  71.274  1.00  0.00    -0.236 A  
HETATM   34  H1  UNL     1     -14.829   9.971  72.337  1.00  0.00     0.000 HD 
HETATM   35  N   UNL     1     -12.588   9.680  71.037  1.00  0.00    -0.304 NA 
HETATM   36  N   UNL     1     -14.260   9.167  72.601  1.00  0.00    -0.522 NA 
HETATM   37  S   UNL     1     -12.118   7.587  72.452  1.00  0.00    -0.114 SA 
HETATM   38  C   UNL     1     -13.078   8.942  72.007  1.00  0.00    -0.402 A  
ENDBRANCH  30  31
BRANCH  30  39
HETATM   39  N   UNL     1     -11.017   8.732  68.387  1.00  0.00    -0.451 NA 
HETATM   40  H   UNL     1     -11.976   8.401  68.292  1.00  0.00     0.000 HD 
BRANCH  39  41
HETATM   41  O   UNL     1     -10.051   8.269  67.492  1.00  0.00    -0.189 OA 
HETATM   42  C   UNL     1      -9.400   7.025  67.662  1.00  0.00    -0.122 C  
ENDBRANCH  39  41
ENDBRANCH  30  39
ENDBRANCH  28  30
ENDBRANCH   6  26
TORSDOF 8
ENDMDL
MODEL        7
REMARK 921   NORMALIZED FREE ENERGY PREDICTED BY IDOCK:   -7.38 KCAL/MOL
REMARK 922        TOTAL FREE ENERGY PREDICTED BY IDOCK:  -12.10 KCAL/MOL
REMARK 923 INTER-LIGAND FREE ENERGY PREDICTED BY IDOCK:  -10.38 KCAL/MOL
REMARK 924 INTRA-LIGAND FREE ENERGY PREDICTED BY IDOCK:   -1.72 KCAL/MOL
REMARK 927      BINDING AFFINITY PREDICTED BY RF-SCORE:    0.00 PKD
ROOT
HETATM    1  C   UNL     1      -9.621  13.929  66.344  1.00  0.00    -0.277 C  
HETATM    2  S   UNL     1      -8.224  13.293  67.230  1.00  0.00    -0.122 SA 
HETATM    3  C   UNL     1      -8.033  11.586  66.595  1.00  0.00    -0.127 C  
HETATM    4  C   UNL     1      -8.935  11.103  65.495  1.00  0.00    -0.178 C  
HETATM    5  CA  UNL     1      -9.939  11.849  64.940  1.00  0.00    -0.241 C  
HETATM    6  CA  UNL     1     -11.038  14.466  66.821  1.00  0.00    -0.323 C  
HETATM    7  C   UNL     1     -11.492  13.753  65.509  1.00  0.00    -0.311 C  
HETATM    8  N   UNL     1     -10.322  13.064  65.441  1.00  0.00    -0.296 N  
HETATM    9  C   UNL     1     -10.665  11.311  63.735  1.00  0.00    -0.379 C  
HETATM   10  O   UNL     1     -12.561  13.628  64.961  1.00  0.00    -0.551 OA 
HETATM   11  O   UNL     1     -11.992  11.533  63.650  1.00  0.00    -0.332 OA 
HETATM   12  OXT UNL     1     -10.087  10.710  62.843  1.00  0.00    -0.248 OA 
ENDROOT
BRANCH   4  13
HETATM   13  C   UNL     1      -8.719   9.626  65.047  1.00  0.00    -0.175 C  
BRANCH  13  14
HETATM   14  S   UNL     1      -9.283   8.237  66.110  1.00  0.00    -0.170 SA 
BRANCH  14  15
HETATM   15  C   UNL     1      -9.914   8.967  67.606  1.00  0.00    -0.201 C  
HETATM   16  N   UNL     1     -11.056   9.548  67.486  1.00  0.00    -0.421 N  
HETATM   17  H   UNL     1     -11.601   9.483  66.626  1.00  0.00     0.000 HD 
HETATM   18  C   UNL     1      -7.760   8.491  68.887  1.00  0.00    -0.100 C  
HETATM   19  C   UNL     1     -11.508  10.262  68.576  1.00  0.00    -0.100 C  
HETATM   20  N   UNL     1      -9.125   8.970  68.760  1.00  0.00    -0.136 NA 
HETATM   21  C   UNL     1     -10.934  10.027  69.973  1.00  0.00    -0.300 C  
HETATM   22  O   UNL     1     -12.305  11.197  68.489  1.00  0.00    -0.561 OA 
HETATM   23  H   UNL     1      -9.041   9.685  70.753  1.00  0.00     0.000 HD 
HETATM   24  N   UNL     1      -9.639   9.579  69.933  1.00  0.00    -0.208 N  
HETATM   25  O   UNL     1     -11.537  10.262  71.007  1.00  0.00    -0.351 OA 
ENDBRANCH  14  15
ENDBRANCH  13  14
ENDBRANCH   4  13
BRANCH   6  26
HETATM   26  N   UNL     1     -11.979  14.146  67.991  1.00  0.00    -0.477 N  
HETATM   27  O   UNL     1     -12.869  13.992  70.082  1.00  0.00    -0.242 OA 
HETATM   28  C   UNL     1     -11.987  14.456  69.361  1.00  0.00    -0.328 C  
HETATM   29  H   UNL     1     -12.780  13.582  67.710  1.00  0.00     0.000 HD 
BRANCH  28  30
HETATM   30  C   UNL     1     -11.074  15.491  69.960  1.00  0.00    -0.315 C  
BRANCH  30  31
HETATM   31  C   UNL     1     -10.164  16.348  69.189  1.00  0.00    -0.280 A  
HETATM   32  H2  UNL     1      -8.762  20.013  67.483  1.00  0.00     0.000 HD 
HETATM   33  C   UNL     1      -8.788  16.219  69.289  1.00  0.00    -0.156 A  
HETATM   34  H1  UNL     1     -10.522  19.897  67.455  1.00  0.00     0.000 HD 
HETATM   35  N   UNL     1     -10.574  17.548  68.586  1.00  0.00    -0.330 NA 
HETATM   36  N   UNL     1      -9.615  19.490  67.684  1.00  0.00    -0.322 NA 
HETATM   37  S   UNL     1      -8.005  17.591  68.635  1.00  0.00    -0.244 SA 
HETATM   38  C   UNL     1      -9.534  18.276  68.248  1.00  0.00    -0.308 A  
ENDBRANCH  30  31
BRANCH  30  39
HETATM   39  N   UNL     1     -10.835  15.576  71.227  1.00  0.00    -0.334 NA 
HETATM   40  H   UNL     1     -10.068  15.033  71.623  1.00  0.00     0.000 HD 
BRANCH  39  41
HETATM   41  O   UNL     1     -11.593  16.390  72.070  1.00  0.00    -0.444 OA 
HETATM   42  C   UNL     1     -12.515  15.859  73.001  1.00  0.00    -0.491 C  
ENDBRANCH  39  41
ENDBRANCH  30  39
ENDBRANCH  28  30
ENDBRANCH   6  26
TORSDOF 8
ENDMDL
MODEL        8
REMARK 921   NORMALIZED FREE ENERGY PREDICTED BY IDOCK:   -7.37 KCAL/MOL
REMARK 922        TOTAL FREE ENERGY PREDICTED BY IDOCK:  -12.08 KCAL/MOL
REMARK 923 INTER-LIGAND FREE ENERGY PREDICTED BY IDOCK:  -10.54 KCAL/MOL
REMARK 924 INTRA-LIGAND FREE ENERGY PREDICTED BY IDOCK:   -1.54 KCAL/MOL
REMARK 927      BINDING AFFINITY PREDICTED BY RF-SCORE:    0.00 PKD
ROOT
HETATM    1  C   UNL     1     -11.536  14.573  68.838  1.00  0.00    -0.309 C  
HETATM    2  S   UNL     1     -11.185  15.618  70.224  1.00  0.00    -0.376 SA 
HETATM    3  C   UNL     1     -10.416  17.104  69.479  1.00  0.00    -0.122 C  
HETATM    4  C   UNL     1     -10.308  17.207  67.984  1.00  0.00    -0.353 C  
HETATM    5  CA  UNL     1     -10.719  16.234  67.114  1.00  0.00    -0.247 C  
HETATM    6  CA  UNL     1     -11.042  13.116  68.442  1.00  0.00    -0.268 C  
HETATM    7  C   UNL     1     -11.082  13.740  67.013  1.00  0.00    -0.302 C  
HETATM    8  N   UNL     1     -11.133  14.997  67.529  1.00  0.00    -0.308 N  
HETATM    9  C   UNL     1     -10.707  16.526  65.637  1.00  0.00    -0.248 C  
HETATM   10  O   UNL     1     -10.845  13.306  65.911  1.00  0.00    -0.275 OA 
HETATM   11  O   UNL     1     -10.345  15.532  64.803  1.00  0.00    -0.376 OA 
HETATM   12  OXT UNL     1     -11.031  17.614  65.187  1.00  0.00    -0.651 OA 
ENDROOT
BRANCH   4  13
HETATM   13  C   UNL     1      -9.608  18.492  67.447  1.00  0.00    -0.293 C  
BRANCH  13  14
HETATM   14  S   UNL     1      -7.824  18.467  67.009  1.00  0.00    -0.232 SA 
BRANCH  14  15
HETATM   15  C   UNL     1      -6.924  18.624  68.537  1.00  0.00    -0.266 C  
HETATM   16  N   UNL     1      -6.830  19.825  68.990  1.00  0.00    -0.334 N  
HETATM   17  H   UNL     1      -7.338  20.599  68.562  1.00  0.00     0.000 HD 
HETATM   18  C   UNL     1      -6.223  16.172  68.514  1.00  0.00    -0.115 C  
HETATM   19  C   UNL     1      -6.009  20.016  70.082  1.00  0.00    -0.338 C  
HETATM   20  N   UNL     1      -6.297  17.503  69.089  1.00  0.00    -0.224 NA 
HETATM   21  C   UNL     1      -5.591  18.848  70.974  1.00  0.00    -0.138 C  
HETATM   22  O   UNL     1      -5.475  21.093  70.346  1.00  0.00    -0.571 OA 
HETATM   23  H   UNL     1      -5.015  16.879  70.656  1.00  0.00     0.000 HD 
HETATM   24  N   UNL     1      -5.564  17.658  70.294  1.00  0.00    -0.244 N  
HETATM   25  O   UNL     1      -5.264  18.965  72.144  1.00  0.00    -0.763 OA 
ENDBRANCH  14  15
ENDBRANCH  13  14
ENDBRANCH   4  13
BRANCH   6  26
HETATM   26  N   UNL     1      -9.755  12.310  68.669  1.00  0.00    -0.387 N  
HETATM   27  O   UNL     1      -8.241  10.609  68.733  1.00  0.00    -0.125 OA 
HETATM   28  C   UNL     1      -9.343  11.004  68.356  1.00  0.00    -0.179 C  
HETATM   29  H   UNL     1      -9.036  12.843  69.157  1.00  0.00     0.000 HD 
BRANCH  28  30
HETATM   30  C   UNL     1     -10.110  10.121  67.409  1.00  0.00    -0.205 C  
BRANCH  30  31
HETATM   31  C   UNL     1     -10.510   8.737  67.697  1.00  0.00    -0.244 A  
HETATM   32  H2  UNL     1     -10.697   4.513  67.046  1.00  0.00     0.000 HD 
HETATM   33  C   UNL     1     -10.499   8.234  68.988  1.00  0.00    -0.197 A  
HETATM   34  H1  UNL     1     -10.728   5.420  65.534  1.00  0.00     0.000 HD 
HETATM   35  N   UNL     1     -10.592   7.745  66.706  1.00  0.00    -0.285 NA 
HETATM   36  N   UNL     1     -10.694   5.406  66.553  1.00  0.00    -0.297 NA 
HETATM   37  S   UNL     1     -10.589   6.526  68.970  1.00  0.00    -0.273 SA 
HETATM   38  C   UNL     1     -10.646   6.550  67.251  1.00  0.00    -0.315 A  
ENDBRANCH  30  31
BRANCH  30  39
HETATM   39  N   UNL     1     -10.298  10.412  66.164  1.00  0.00    -0.228 NA 
HETATM   40  H   UNL     1     -11.252  10.505  65.817  1.00  0.00     0.000 HD 
BRANCH  39  41
HETATM   41  O   UNL     1      -9.235  10.602  65.280  1.00  0.00    -0.178 OA 
HETATM   42  C   UNL     1      -9.431  10.766  63.889  1.00  0.00    -0.274 C  
ENDBRANCH  39  41
ENDBRANCH  30  39
ENDBRANCH  28  30
ENDBRANCH   6  26
TORSDOF 8
ENDMDL
MODEL        9
REMARK 921   NORMALIZED FREE ENERGY PREDICTED BY IDOCK:   -7.35 KCAL/MOL
REMARK 922        TOTAL FREE ENERGY PREDICTED BY IDOCK:  -12.05 KCAL/MOL
REMARK 923 INTER-LIGAND FREE ENERGY PREDICTED BY IDOCK:   -9.31 KCAL/MOL
REMARK 924 INTRA-LIGAND FREE ENERGY PREDICTED BY IDOCK:   -2.74 KCAL/MOL
REMARK 927      BINDING AFFINITY PREDICTED BY RF-SCORE:    0.00 PKD
ROOT
HETATM    1  C   UNL     1     -12.277  12.890  69.679  1.00  0.00    -0.141 C  
HETATM    2  S   UNL     1     -11.891  14.374  70.567  1.00  0.00    -0.285 SA 
HETATM    3  C   UNL     1     -11.288  15.523  69.274  1.00  0.00    -0.325 C  
HETATM    4  C   UNL     1     -11.305  15.089  67.836  1.00  0.00    -0.344 C  
HETATM    5  CA  UNL     1     -11.715  13.856  67.409  1.00  0.00    -0.389 C  
HETATM    6  CA  UNL     1     -11.715  11.407  69.776  1.00  0.00    -0.344 C  
HETATM    7  C   UNL     1     -11.910  11.478  68.229  1.00  0.00    -0.256 C  
HETATM    8  N   UNL     1     -12.008  12.834  68.272  1.00  0.00    -0.293 N  
HETATM    9  C   UNL     1     -11.839  13.600  65.930  1.00  0.00    -0.378 C  
HETATM   10  O   UNL     1     -11.731  10.688  67.334  1.00  0.00    -0.391 OA 
HETATM   11  O   UNL     1     -11.475  12.388  65.469  1.00  0.00    -0.331 OA 
HETATM   12  OXT UNL     1     -12.271  14.443  65.159  1.00  0.00    -0.396 OA 
ENDROOT
BRANCH   4  13
HETATM   13  C   UNL     1     -10.740  16.123  66.815  1.00  0.00    -0.235 C  
BRANCH  13  14
HETATM   14  S   UNL     1      -8.986  16.036  66.276  1.00  0.00    -0.350 SA 
BRANCH  14  15
HETATM   15  C   UNL     1      -8.206  14.790  67.281  1.00  0.00    -0.213 C  
HETATM   16  N   UNL     1      -8.358  13.583  66.861  1.00  0.00    -0.407 N  
HETATM   17  H   UNL     1      -8.789  13.381  65.959  1.00  0.00     0.000 HD 
HETATM   18  C   UNL     1      -7.557  16.477  69.081  1.00  0.00    -0.210 C  
HETATM   19  C   UNL     1      -7.909  12.576  67.690  1.00  0.00    -0.162 C  
HETATM   20  N   UNL     1      -7.589  15.155  68.481  1.00  0.00    -0.115 NA 
HETATM   21  C   UNL     1      -6.908  12.855  68.809  1.00  0.00    -0.099 C  
HETATM   22  O   UNL     1      -8.357  11.429  67.663  1.00  0.00    -0.123 OA 
HETATM   23  H   UNL     1      -6.635  14.370  70.202  1.00  0.00     0.000 HD 
HETATM   24  N   UNL     1      -6.997  14.142  69.276  1.00  0.00    -0.119 N  
HETATM   25  O   UNL     1      -6.151  12.018  69.274  1.00  0.00    -0.072 OA 
ENDBRANCH  14  15
ENDBRANCH  13  14
ENDBRANCH   4  13
BRANCH   6  26
HETATM   26  N   UNL     1     -10.362  10.784  70.145  1.00  0.00    -0.358 N  
HETATM   27  O   UNL     1      -8.739   9.278  70.677  1.00  0.00    -0.211 OA 
HETATM   28  C   UNL     1      -9.895   9.469  70.305  1.00  0.00    -0.261 C  
HETATM   29  H   UNL     1      -9.638  11.482  70.312  1.00  0.00     0.000 HD 
BRANCH  28  30
HETATM   30  C   UNL     1     -10.685   8.270  69.854  1.00  0.00    -0.234 C  
BRANCH  30  31
HETATM   31  C   UNL     1     -10.576   7.650  68.527  1.00  0.00    -0.124 A  
HETATM   32  H2  UNL     1      -8.606   6.502  64.906  1.00  0.00     0.000 HD 
HETATM   33  C   UNL     1     -11.142   6.415  68.256  1.00  0.00    -0.267 A  
HETATM   34  H1  UNL     1      -8.083   8.088  65.473  1.00  0.00     0.000 HD 
HETATM   35  N   UNL     1      -9.635   8.060  67.569  1.00  0.00    -0.148 NA 
HETATM   36  N   UNL     1      -8.668   7.260  65.586  1.00  0.00    -0.116 NA 
HETATM   37  S   UNL     1     -10.503   5.763  66.810  1.00  0.00    -0.292 SA 
HETATM   38  C   UNL     1      -9.518   7.159  66.619  1.00  0.00    -0.170 A  
ENDBRANCH  30  31
BRANCH  30  39
HETATM   39  N   UNL     1     -11.698   7.804  70.505  1.00  0.00    -0.457 NA 
HETATM   40  H   UNL     1     -12.173   6.973  70.154  1.00  0.00     0.000 HD 
BRANCH  39  41
HETATM   41  O   UNL     1     -12.164   8.403  71.676  1.00  0.00    -0.289 OA 
HETATM   42  C   UNL     1     -13.524   8.748  71.858  1.00  0.00    -0.404 C  
ENDBRANCH  39  41
ENDBRANCH  30  39
ENDBRANCH  28  30
ENDBRANCH   6  26
TORSDOF 8
ENDMDL
MODEL       10
REMARK 921   NORMALIZED FREE ENERGY PREDICTED BY IDOCK:   -7.33 KCAL/MOL
REMARK 922        TOTAL FREE ENERGY PREDICTED BY IDOCK:  -12.01 KCAL/MOL
REMARK 923 INTER-LIGAND FREE ENERGY PREDICTED BY IDOCK:   -9.55 KCAL/MOL
REMARK 924 INTRA-LIGAND FREE ENERGY PREDICTED BY IDOCK:   -2.47 KCAL/MOL
REMARK 927      BINDING AFFINITY PREDICTED BY RF-SCORE:    0.00 PKD
ROOT
HETATM    1  C   UNL     1      -8.170   8.652  71.347  1.00  0.00    -0.160 C  
HETATM    2  S   UNL     1      -7.003   8.235  70.080  1.00  0.00    -0.040 SA 
HETATM    3  C   UNL     1      -7.843   8.713  68.525  1.00  0.00    -0.108 C  
HETATM    4  C   UNL     1      -9.187   9.383  68.588  1.00  0.00    -0.131 C  
HETATM    5  CA  UNL     1      -9.866   9.636  69.749  1.00  0.00    -0.229 C  
HETATM    6  CA  UNL     1      -8.920   7.779  72.441  1.00  0.00    -0.150 C  
HETATM    7  C   UNL     1     -10.076   8.774  72.109  1.00  0.00    -0.292 C  
HETATM    8  N   UNL     1      -9.453   9.165  70.966  1.00  0.00    -0.272 N  
HETATM    9  C   UNL     1     -11.127  10.458  69.690  1.00  0.00    -0.276 C  
HETATM   10  O   UNL     1     -11.200   8.908  72.528  1.00  0.00    -0.200 OA 
HETATM   11  O   UNL     1     -12.143  10.107  70.503  1.00  0.00    -0.283 OA 
HETATM   12  OXT UNL     1     -11.239  11.425  68.953  1.00  0.00    -0.206 OA 
ENDROOT
BRANCH   4  13
HETATM   13  C   UNL     1      -9.836   9.720  67.212  1.00  0.00    -0.181 C  
BRANCH  13  14
HETATM   14  S   UNL     1      -8.945  10.767  65.993  1.00  0.00    -0.187 SA 
BRANCH  14  15
HETATM   15  C   UNL     1     -10.150  11.883  65.306  1.00  0.00    -0.257 C  
HETATM   16  N   UNL     1     -10.762  12.617  66.167  1.00  0.00    -0.264 N  
HETATM   17  H   UNL     1     -10.484  12.635  67.149  1.00  0.00     0.000 HD 
HETATM   18  C   UNL     1      -9.906  10.895  62.967  1.00  0.00    -0.321 C  
HETATM   19  C   UNL     1     -11.812  13.380  65.700  1.00  0.00    -0.370 C  
HETATM   20  N   UNL     1     -10.439  11.833  63.939  1.00  0.00    -0.347 NA 
HETATM   21  C   UNL     1     -11.968  13.690  64.212  1.00  0.00    -0.445 C  
HETATM   22  O   UNL     1     -12.740  13.763  66.414  1.00  0.00    -0.334 OA 
HETATM   23  H   UNL     1     -11.720  12.624  62.448  1.00  0.00     0.000 HD 
HETATM   24  N   UNL     1     -11.420  12.715  63.419  1.00  0.00    -0.488 N  
HETATM   25  O   UNL     1     -12.560  14.664  63.775  1.00  0.00    -0.820 OA 
ENDBRANCH  14  15
ENDBRANCH  13  14
ENDBRANCH   4  13
BRANCH   6  26
HETATM   26  N   UNL     1      -9.427   6.331  72.511  1.00  0.00    -0.144 N  
HETATM   27  O   UNL     1     -10.629   4.432  72.145  1.00  0.00    -0.143 OA 
HETATM   28  C   UNL     1     -10.396   5.592  71.813  1.00  0.00    -0.215 C  
HETATM   29  H   UNL     1      -8.953   5.781  73.227  1.00  0.00     0.000 HD 
BRANCH  28  30
HETATM   30  C   UNL     1     -11.031   6.091  70.543  1.00  0.00    -0.319 C  
BRANCH  30  31
HETATM   31  C   UNL     1     -10.406   6.026  69.216  1.00  0.00    -0.233 A  
HETATM   32  H2  UNL     1      -7.818   4.450  66.194  1.00  0.00     0.000 HD 
HETATM   33  C   UNL     1     -11.142   6.222  68.058  1.00  0.00    -0.265 A  
HETATM   34  H1  UNL     1      -7.100   4.351  67.803  1.00  0.00     0.000 HD 
HETATM   35  N   UNL     1      -9.151   5.436  68.992  1.00  0.00    -0.113 NA 
HETATM   36  N   UNL     1      -7.875   4.624  67.198  1.00  0.00    -0.094 NA 
HETATM   37  S   UNL     1     -10.273   5.672  66.691  1.00  0.00    -0.236 SA 
HETATM   38  C   UNL     1      -8.967   5.212  67.710  1.00  0.00    -0.110 A  
ENDBRANCH  30  31
BRANCH  30  39
HETATM   39  N   UNL     1     -12.092   6.828  70.524  1.00  0.00    -0.561 NA 
HETATM   40  H   UNL     1     -12.229   7.478  69.750  1.00  0.00     0.000 HD 
BRANCH  39  41
HETATM   41  O   UNL     1     -13.056   6.762  71.530  1.00  0.00    -0.310 OA 
HETATM   42  C   UNL     1     -14.266   7.493  71.464  1.00  0.00    -0.445 C  
ENDBRANCH  39  41
ENDBRANCH  30  39
ENDBRANCH  28  30
ENDBRANCH   6  26
TORSDOF 8
ENDMDL
MODEL       11
REMARK 921   NORMALIZED FREE ENERGY PREDICTED BY IDOCK:   -7.32 KCAL/MOL
REMARK 922        TOTAL FREE ENERGY PREDICTED BY IDOCK:  -12.00 KCAL/MOL
REMARK 923 INTER-LIGAND FREE ENERGY PREDICTED BY IDOCK:  -10.56 KCAL/MOL
REMARK 924 INTRA-LIGAND FREE ENERGY PREDICTED BY IDOCK:   -1.44 KCAL/MOL
REMARK 927      BINDING AFFINITY PREDICTED BY RF-SCORE:    0.00 PKD
ROOT
HETATM    1  C   UNL     1     -12.744  11.275  70.653  1.00  0.00    -0.227 C  
HETATM    2  S   UNL     1     -13.226  12.427  71.911  1.00  0.00    -0.260 SA 
HETATM    3  C   UNL     1     -12.704  14.053  71.250  1.00  0.00    -0.365 C  
HETATM    4  C   UNL     1     -12.105  14.132  69.874  1.00  0.00    -0.405 C  
HETATM    5  CA  UNL     1     -11.880  13.049  69.070  1.00  0.00    -0.316 C  
HETATM    6  CA  UNL     1     -11.744  10.040  70.658  1.00  0.00    -0.337 C  
HETATM    7  C   UNL     1     -11.450  10.568  69.220  1.00  0.00    -0.256 C  
HETATM    8  N   UNL     1     -12.040  11.760  69.502  1.00  0.00    -0.280 N  
HETATM    9  C   UNL     1     -11.427  13.276  67.651  1.00  0.00    -0.321 C  
HETATM   10  O   UNL     1     -10.722  10.194  68.332  1.00  0.00    -0.204 OA 
HETATM   11  O   UNL     1     -10.521  12.421  67.136  1.00  0.00    -0.218 OA 
HETATM   12  OXT UNL     1     -11.867  14.187  66.967  1.00  0.00    -0.388 OA 
ENDROOT
BRANCH   4  13
HETATM   13  C   UNL     1     -11.660  15.554  69.415  1.00  0.00    -0.355 C  
BRANCH  13  14
HETATM   14  S   UNL     1      -9.877  15.978  69.292  1.00  0.00    -0.254 SA 
BRANCH  14  15
HETATM   15  C   UNL     1      -9.737  17.222  68.026  1.00  0.00    -0.277 C  
HETATM   16  N   UNL     1     -10.647  17.175  67.118  1.00  0.00    -0.286 N  
HETATM   17  H   UNL     1     -11.448  16.548  67.194  1.00  0.00     0.000 HD 
HETATM   18  C   UNL     1      -7.493  18.046  68.917  1.00  0.00    -0.227 C  
HETATM   19  C   UNL     1     -10.488  18.015  66.035  1.00  0.00    -0.313 C  
HETATM   20  N   UNL     1      -8.634  18.081  68.020  1.00  0.00    -0.258 NA 
HETATM   21  C   UNL     1      -9.562  19.228  66.100  1.00  0.00    -0.306 C  
HETATM   22  O   UNL     1     -10.981  17.792  64.928  1.00  0.00    -0.866 OA 
HETATM   23  H   UNL     1      -7.686  19.613  66.903  1.00  0.00     0.000 HD 
HETATM   24  N   UNL     1      -8.531  19.048  66.987  1.00  0.00    -0.278 N  
HETATM   25  O   UNL     1      -9.689  20.223  65.405  1.00  0.00    -0.101 OA 
ENDBRANCH  14  15
ENDBRANCH  13  14
ENDBRANCH   4  13
BRANCH   6  26
HETATM   26  N   UNL     1     -10.449   9.698  71.409  1.00  0.00    -0.201 N  
HETATM   27  O   UNL     1      -8.874   8.594  72.628  1.00  0.00    -0.371 OA 
HETATM   28  C   UNL     1      -9.953   8.545  72.039  1.00  0.00    -0.313 C  
HETATM   29  H   UNL     1      -9.804  10.485  71.461  1.00  0.00     0.000 HD 
BRANCH  28  30
HETATM   30  C   UNL     1     -10.587   7.192  71.865  1.00  0.00    -0.213 C  
BRANCH  30  31
HETATM   31  C   UNL     1     -10.587   6.425  70.612  1.00  0.00    -0.237 A  
HETATM   32  H2  UNL     1     -10.598   5.886  66.367  1.00  0.00     0.000 HD 
HETATM   33  C   UNL     1      -9.792   5.302  70.450  1.00  0.00    -0.213 A  
HETATM   34  H1  UNL     1     -11.582   7.263  66.865  1.00  0.00     0.000 HD 
HETATM   35  N   UNL     1     -11.091   6.937  69.405  1.00  0.00    -0.231 NA 
HETATM   36  N   UNL     1     -10.980   6.476  67.107  1.00  0.00    -0.397 NA 
HETATM   37  S   UNL     1      -9.671   4.883  68.796  1.00  0.00    -0.159 SA 
HETATM   38  C   UNL     1     -10.686   6.209  68.388  1.00  0.00    -0.293 A  
ENDBRANCH  30  31
BRANCH  30  39
HETATM   39  N   UNL     1     -11.388   6.667  72.732  1.00  0.00    -0.425 NA 
HETATM   40  H   UNL     1     -12.385   6.871  72.672  1.00  0.00     0.000 HD 
BRANCH  39  41
HETATM   41  O   UNL     1     -10.929   5.831  73.751  1.00  0.00    -0.212 OA 
HETATM   42  C   UNL     1     -11.279   4.462  73.818  1.00  0.00    -0.192 C  
ENDBRANCH  39  41
ENDBRANCH  30  39
ENDBRANCH  28  30
ENDBRANCH   6  26
TORSDOF 8
ENDMDL
MODEL       12
REMARK 921   NORMALIZED FREE ENERGY PREDICTED BY IDOCK:   -7.27 KCAL/MOL
REMARK 922        TOTAL FREE ENERGY PREDICTED BY IDOCK:  -11.93 KCAL/MOL
REMARK 923 INTER-LIGAND FREE ENERGY PREDICTED BY IDOCK:  -10.41 KCAL/MOL
REMARK 924 INTRA-LIGAND FREE ENERGY PREDICTED BY IDOCK:   -1.52 KCAL/MOL
REMARK 927      BINDING AFFINITY PREDICTED BY RF-SCORE:    0.00 PKD
ROOT
HETATM    1  C   UNL     1     -11.875  13.364  69.125  1.00  0.00    -0.336 C  
HETATM    2  S   UNL     1     -11.318  14.905  69.798  1.00  0.00    -0.297 SA 
HETATM    3  C   UNL     1     -10.835  15.885  68.328  1.00  0.00    -0.315 C  
HETATM    4  C   UNL     1     -11.052  15.312  66.956  1.00  0.00    -0.305 C  
HETATM    5  CA  UNL     1     -11.564  14.067  66.715  1.00  0.00    -0.386 C  
HETATM    6  CA  UNL     1     -11.369  11.869  69.309  1.00  0.00    -0.277 C  
HETATM    7  C   UNL     1     -11.755  11.797  67.799  1.00  0.00    -0.267 C  
HETATM    8  N   UNL     1     -11.789  13.153  67.710  1.00  0.00    -0.355 N  
HETATM    9  C   UNL     1     -11.885  13.673  65.297  1.00  0.00    -0.349 C  
HETATM   10  O   UNL     1     -11.724  10.913  66.977  1.00  0.00    -0.330 OA 
HETATM   11  O   UNL     1     -11.634  12.402  64.926  1.00  0.00    -0.321 OA 
HETATM   12  OXT UNL     1     -12.376  14.458  64.500  1.00  0.00    -0.535 OA 
ENDROOT
BRANCH   4  13
HETATM   13  C   UNL     1     -10.577  16.206  65.771  1.00  0.00    -0.334 C  
BRANCH  13  14
HETATM   14  S   UNL     1     -10.370  18.018  65.995  1.00  0.00    -0.245 SA 
BRANCH  14  15
HETATM   15  C   UNL     1      -8.818  18.251  66.836  1.00  0.00    -0.275 C  
HETATM   16  N   UNL     1      -7.816  17.647  66.301  1.00  0.00    -0.277 N  
HETATM   17  H   UNL     1      -7.894  17.175  65.400  1.00  0.00     0.000 HD 
HETATM   18  C   UNL     1      -9.918  19.494  68.773  1.00  0.00    -0.463 C  
HETATM   19  C   UNL     1      -6.629  17.668  67.004  1.00  0.00    -0.167 C  
HETATM   20  N   UNL     1      -8.784  18.957  68.043  1.00  0.00    -0.291 NA 
HETATM   21  C   UNL     1      -6.378  18.696  68.107  1.00  0.00    -0.207 C  
HETATM   22  O   UNL     1      -5.752  16.813  66.877  1.00  0.00    -0.180 OA 
HETATM   23  H   UNL     1      -7.509  19.527  69.636  1.00  0.00     0.000 HD 
HETATM   24  N   UNL     1      -7.540  19.108  68.706  1.00  0.00    -0.344 N  
HETATM   25  O   UNL     1      -5.269  19.068  68.454  1.00  0.00    -0.179 OA 
ENDBRANCH  14  15
ENDBRANCH  13  14
ENDBRANCH   4  13
BRANCH   6  26
HETATM   26  N   UNL     1     -10.008  11.212  69.574  1.00  0.00    -0.422 N  
HETATM   27  O   UNL     1      -8.395   9.677  70.052  1.00  0.00    -0.151 OA 
HETATM   28  C   UNL     1      -9.578   9.894  69.800  1.00  0.00    -0.231 C  
HETATM   29  H   UNL     1      -9.241  11.884  69.590  1.00  0.00     0.000 HD 
BRANCH  28  30
HETATM   30  C   UNL     1     -10.466   8.703  69.558  1.00  0.00    -0.220 C  
BRANCH  30  31
HETATM   31  C   UNL     1     -10.401   7.843  68.369  1.00  0.00    -0.199 A  
HETATM   32  H2  UNL     1      -8.559   6.031  64.958  1.00  0.00     0.000 HD 
HETATM   33  C   UNL     1     -10.969   6.579  68.357  1.00  0.00    -0.281 A  
HETATM   34  H1  UNL     1      -8.026   7.696  65.196  1.00  0.00     0.000 HD 
HETATM   35  N   UNL     1      -9.499   8.065  67.315  1.00  0.00    -0.149 NA 
HETATM   36  N   UNL     1      -8.601   6.904  65.484  1.00  0.00    -0.118 NA 
HETATM   37  S   UNL     1     -10.380   5.666  67.036  1.00  0.00    -0.281 SA 
HETATM   38  C   UNL     1      -9.411   7.001  66.549  1.00  0.00    -0.150 A  
ENDBRANCH  30  31
BRANCH  30  39
HETATM   39  N   UNL     1     -11.519   8.449  70.261  1.00  0.00    -0.454 NA 
HETATM   40  H   UNL     1     -12.063   7.612  70.052  1.00  0.00     0.000 HD 
BRANCH  39  41
HETATM   41  O   UNL     1     -11.935   9.285  71.297  1.00  0.00    -0.300 OA 
HETATM   42  C   UNL     1     -13.230   9.202  71.860  1.00  0.00    -0.416 C  
ENDBRANCH  39  41
ENDBRANCH  30  39
ENDBRANCH  28  30
ENDBRANCH   6  26
TORSDOF 8
ENDMDL
MODEL       13
REMARK 921   NORMALIZED FREE ENERGY PREDICTED BY IDOCK:   -7.25 KCAL/MOL
REMARK 922        TOTAL FREE ENERGY PREDICTED BY IDOCK:  -11.91 KCAL/MOL
REMARK 923 INTER-LIGAND FREE ENERGY PREDICTED BY IDOCK:  -10.73 KCAL/MOL
REMARK 924 INTRA-LIGAND FREE ENERGY PREDICTED BY IDOCK:   -1.17 KCAL/MOL
REMARK 927      BINDING AFFINITY PREDICTED BY RF-SCORE:    0.00 PKD
ROOT
HETATM    1  C   UNL     1     -11.441  12.651  68.662  1.00  0.00    -0.308 C  
HETATM    2  S   UNL     1     -10.600  11.216  68.051  1.00  0.00    -0.213 SA 
HETATM    3  C   UNL     1     -10.797   9.981  69.389  1.00  0.00    -0.239 C  
HETATM    4  C   UNL     1     -11.619  10.328  70.598  1.00  0.00    -0.435 C  
HETATM    5  CA  UNL     1     -12.218  11.541  70.798  1.00  0.00    -0.363 C  
HETATM    6  CA  UNL     1     -10.947  14.127  68.983  1.00  0.00    -0.261 C  
HETATM    7  C   UNL     1     -11.967  13.967  70.153  1.00  0.00    -0.332 C  
HETATM    8  N   UNL     1     -12.000  12.619  69.982  1.00  0.00    -0.341 N  
HETATM    9  C   UNL     1     -13.148  11.710  71.971  1.00  0.00    -0.328 C  
HETATM   10  O   UNL     1     -12.330  14.698  71.042  1.00  0.00    -0.290 OA 
HETATM   11  O   UNL     1     -13.123  12.886  72.629  1.00  0.00    -0.320 OA 
HETATM   12  OXT UNL     1     -13.921  10.830  72.319  1.00  0.00     0.132 OA 
ENDROOT
BRANCH   4  13
HETATM   13  C   UNL     1     -11.698   9.225  71.696  1.00  0.00    -0.392 C  
BRANCH  13  14
HETATM   14  S   UNL     1     -12.632   7.673  71.392  1.00  0.00    -0.312 SA 
BRANCH  14  15
HETATM   15  C   UNL     1     -11.507   6.552  70.587  1.00  0.00    -0.374 C  
HETATM   16  N   UNL     1     -11.397   6.715  69.316  1.00  0.00    -0.574 N  
HETATM   17  H   UNL     1     -11.832   7.505  68.838  1.00  0.00     0.000 HD 
HETATM   18  C   UNL     1     -11.149   5.193  72.716  1.00  0.00    -0.266 C  
HETATM   19  C   UNL     1     -10.661   5.771  68.629  1.00  0.00    -0.233 C  
HETATM   20  N   UNL     1     -10.908   5.525  71.323  1.00  0.00    -0.219 NA 
HETATM   21  C   UNL     1      -9.676   4.853  69.351  1.00  0.00    -0.191 C  
HETATM   22  O   UNL     1     -10.823   5.528  67.433  1.00  0.00    -0.205 OA 
HETATM   23  H   UNL     1      -9.671   3.814  71.147  1.00  0.00     0.000 HD 
HETATM   24  N   UNL     1     -10.035   4.630  70.655  1.00  0.00    -0.226 N  
HETATM   25  O   UNL     1      -8.710   4.333  68.816  1.00  0.00    -0.090 OA 
ENDBRANCH  14  15
ENDBRANCH  13  14
ENDBRANCH   4  13
BRANCH   6  26
HETATM   26  N   UNL     1      -9.628  14.746  69.467  1.00  0.00    -0.426 N  
HETATM   27  O   UNL     1      -7.608  15.798  69.504  1.00  0.00    -0.227 OA 
HETATM   28  C   UNL     1      -8.602  15.482  68.852  1.00  0.00    -0.209 C  
HETATM   29  H   UNL     1      -9.458  14.587  70.460  1.00  0.00     0.000 HD 
BRANCH  28  30
HETATM   30  C   UNL     1      -8.746  16.074  67.476  1.00  0.00    -0.182 C  
BRANCH  30  31
HETATM   31  C   UNL     1      -9.221  17.436  67.200  1.00  0.00    -0.237 A  
HETATM   32  H2  UNL     1     -11.623  20.419  65.291  1.00  0.00     0.000 HD 
HETATM   33  C   UNL     1      -9.429  18.352  68.219  1.00  0.00    -0.324 A  
HETATM   34  H1  UNL     1     -11.177  19.117  64.187  1.00  0.00     0.000 HD 
HETATM   35  N   UNL     1      -9.820  17.803  65.983  1.00  0.00    -0.534 NA 
HETATM   36  N   UNL     1     -11.134  19.541  65.114  1.00  0.00    -0.189 NA 
HETATM   37  S   UNL     1     -10.369  19.668  67.664  1.00  0.00    -0.457 SA 
HETATM   38  C   UNL     1     -10.441  18.954  66.102  1.00  0.00    -0.457 A  
ENDBRANCH  30  31
BRANCH  30  39
HETATM   39  N   UNL     1      -8.680  15.374  66.393  1.00  0.00    -0.391 NA 
HETATM   40  H   UNL     1      -7.971  15.605  65.697  1.00  0.00     0.000 HD 
BRANCH  39  41
HETATM   41  O   UNL     1      -9.549  14.311  66.145  1.00  0.00    -0.301 OA 
HETATM   42  C   UNL     1     -10.380  14.267  65.001  1.00  0.00    -0.421 C  
ENDBRANCH  39  41
ENDBRANCH  30  39
ENDBRANCH  28  30
ENDBRANCH   6  26
TORSDOF 8
ENDMDL
MODEL       14
REMARK 921   NORMALIZED FREE ENERGY PREDICTED BY IDOCK:   -7.22 KCAL/MOL
REMARK 922        TOTAL FREE ENERGY PREDICTED BY IDOCK:  -11.86 KCAL/MOL
REMARK 923 INTER-LIGAND FREE ENERGY PREDICTED BY IDOCK:  -10.20 KCAL/MOL
REMARK 924 INTRA-LIGAND FREE ENERGY PREDICTED BY IDOCK:   -1.66 KCAL/MOL
REMARK 927      BINDING AFFINITY PREDICTED BY RF-SCORE:    0.00 PKD
ROOT
HETATM    1  C   UNL     1     -12.086  13.821  68.683  1.00  0.00    -0.298 C  
HETATM    2  S   UNL     1     -11.606  15.099  69.812  1.00  0.00    -0.336 SA 
HETATM    3  C   UNL     1     -10.745  16.325  68.758  1.00  0.00    -0.309 C  
HETATM    4  C   UNL     1     -10.678  16.104  67.274  1.00  0.00    -0.277 C  
HETATM    5  CA  UNL     1     -11.194  15.009  66.635  1.00  0.00    -0.311 C  
HETATM    6  CA  UNL     1     -11.724  12.277  68.597  1.00  0.00    -0.328 C  
HETATM    7  C   UNL     1     -11.759  12.590  67.068  1.00  0.00    -0.367 C  
HETATM    8  N   UNL     1     -11.692  13.926  67.308  1.00  0.00    -0.363 N  
HETATM    9  C   UNL     1     -11.206  14.983  65.129  1.00  0.00    -0.388 C  
HETATM   10  O   UNL     1     -11.594  11.916  66.080  1.00  0.00    -0.415 OA 
HETATM   11  O   UNL     1     -10.953  13.809  64.519  1.00  0.00    -0.387 OA 
HETATM   12  OXT UNL     1     -11.456  15.977  64.464  1.00  0.00    -0.427 OA 
ENDROOT
BRANCH   4  13
HETATM   13  C   UNL     1      -9.894  17.183  66.468  1.00  0.00    -0.296 C  
BRANCH  13  14
HETATM   14  S   UNL     1      -8.081  17.024  66.215  1.00  0.00    -0.265 SA 
BRANCH  14  15
HETATM   15  C   UNL     1      -7.507  15.822  67.396  1.00  0.00    -0.194 C  
HETATM   16  N   UNL     1      -7.764  14.598  67.091  1.00  0.00    -0.315 N  
HETATM   17  H   UNL     1      -8.157  14.343  66.185  1.00  0.00     0.000 HD 
HETATM   18  C   UNL     1      -6.792  17.620  69.058  1.00  0.00    -0.240 C  
HETATM   19  C   UNL     1      -7.481  13.646  68.050  1.00  0.00    -0.133 C  
HETATM   20  N   UNL     1      -6.930  16.250  68.595  1.00  0.00    -0.140 NA 
HETATM   21  C   UNL     1      -6.526  13.943  69.205  1.00  0.00    -0.115 C  
HETATM   22  O   UNL     1      -8.048  12.555  68.106  1.00  0.00    -0.150 OA 
HETATM   23  H   UNL     1      -6.177  15.565  70.453  1.00  0.00     0.000 HD 
HETATM   24  N   UNL     1      -6.503  15.274  69.531  1.00  0.00    -0.141 N  
HETATM   25  O   UNL     1      -5.897  13.088  69.808  1.00  0.00    -0.104 OA 
ENDBRANCH  14  15
ENDBRANCH  13  14
ENDBRANCH   4  13
BRANCH   6  26
HETATM   26  N   UNL     1     -10.499  11.429  68.969  1.00  0.00    -0.309 N  
HETATM   27  O   UNL     1      -9.115   9.962  70.027  1.00  0.00    -0.225 OA 
HETATM   28  C   UNL     1     -10.248  10.427  69.921  1.00  0.00    -0.141 C  
HETATM   29  H   UNL     1      -9.683  11.642  68.396  1.00  0.00     0.000 HD 
BRANCH  28  30
HETATM   30  C   UNL     1     -11.350   9.751  70.692  1.00  0.00    -0.330 C  
BRANCH  30  31
HETATM   31  C   UNL     1     -11.240   8.428  71.318  1.00  0.00    -0.259 A  
HETATM   32  H2  UNL     1     -10.761   5.670  74.555  1.00  0.00     0.000 HD 
HETATM   33  C   UNL     1     -12.059   7.376  70.941  1.00  0.00    -0.257 A  
HETATM   34  H1  UNL     1      -9.781   7.121  74.768  1.00  0.00     0.000 HD 
HETATM   35  N   UNL     1     -10.577   8.214  72.538  1.00  0.00    -0.318 NA 
HETATM   36  N   UNL     1     -10.442   6.577  74.213  1.00  0.00    -0.283 NA 
HETATM   37  S   UNL     1     -12.007   6.123  72.104  1.00  0.00    -0.158 SA 
HETATM   38  C   UNL     1     -10.894   7.041  73.039  1.00  0.00    -0.309 A  
ENDBRANCH  30  31
BRANCH  30  39
HETATM   39  N   UNL     1     -12.573  10.166  70.690  1.00  0.00    -0.459 NA 
HETATM   40  H   UNL     1     -13.130  10.063  69.842  1.00  0.00     0.000 HD 
BRANCH  39  41
HETATM   41  O   UNL     1     -13.157  10.753  71.814  1.00  0.00    -0.458 OA 
HETATM   42  C   UNL     1     -13.266  12.155  71.962  1.00  0.00    -0.391 C  
ENDBRANCH  39  41
ENDBRANCH  30  39
ENDBRANCH  28  30
ENDBRANCH   6  26
TORSDOF 8
ENDMDL
MODEL       15
REMARK 921   NORMALIZED FREE ENERGY PREDICTED BY IDOCK:   -7.20 KCAL/MOL
REMARK 922        TOTAL FREE ENERGY PREDICTED BY IDOCK:  -11.84 KCAL/MOL
REMARK 923 INTER-LIGAND FREE ENERGY PREDICTED BY IDOCK:  -10.36 KCAL/MOL
REMARK 924 INTRA-LIGAND FREE ENERGY PREDICTED BY IDOCK:   -1.48 KCAL/MOL
REMARK 927      BINDING AFFINITY PREDICTED BY RF-SCORE:    0.00 PKD
ROOT
HETATM    1  C   UNL     1     -12.018  11.899  68.972  1.00  0.00    -0.262 C  
HETATM    2  S   UNL     1     -12.035  13.530  69.663  1.00  0.00    -0.323 SA 
HETATM    3  C   UNL     1     -11.150  14.548  68.424  1.00  0.00    -0.256 C  
HETATM    4  C   UNL     1     -10.692  13.915  67.141  1.00  0.00    -0.282 C  
HETATM    5  CA  UNL     1     -10.858  12.593  66.834  1.00  0.00    -0.254 C  
HETATM    6  CA  UNL     1     -11.405  10.525  69.484  1.00  0.00    -0.278 C  
HETATM    7  C   UNL     1     -11.120  10.351  67.959  1.00  0.00    -0.298 C  
HETATM    8  N   UNL     1     -11.326  11.676  67.737  1.00  0.00    -0.269 N  
HETATM    9  C   UNL     1     -10.503  12.116  65.450  1.00  0.00    -0.270 C  
HETATM   10  O   UNL     1     -10.617   9.469  67.306  1.00  0.00    -0.264 OA 
HETATM   11  O   UNL     1      -9.926  10.904  65.332  1.00  0.00    -0.233 OA 
HETATM   12  OXT UNL     1     -10.739  12.781  64.453  1.00  0.00    -0.329 OA 
ENDROOT
BRANCH   4  13
HETATM   13  C   UNL     1      -9.919  14.854  66.166  1.00  0.00    -0.303 C  
BRANCH  13  14
HETATM   14  S   UNL     1     -10.363  16.632  66.036  1.00  0.00    -0.307 SA 
BRANCH  14  15
HETATM   15  C   UNL     1      -9.271  17.510  67.134  1.00  0.00    -0.243 C  
HETATM   16  N   UNL     1      -8.303  16.809  67.610  1.00  0.00    -0.181 N  
HETATM   17  H   UNL     1      -8.117  15.861  67.282  1.00  0.00     0.000 HD 
HETATM   18  C   UNL     1     -10.746  19.592  67.129  1.00  0.00    -0.482 C  
HETATM   19  C   UNL     1      -7.527  17.401  68.586  1.00  0.00    -0.263 C  
HETATM   20  N   UNL     1      -9.567  18.828  67.496  1.00  0.00    -0.297 NA 
HETATM   21  C   UNL     1      -7.516  18.916  68.780  1.00  0.00    -0.325 C  
HETATM   22  O   UNL     1      -6.891  16.762  69.424  1.00  0.00    -0.230 OA 
HETATM   23  H   UNL     1      -8.947  20.420  68.750  1.00  0.00     0.000 HD 
HETATM   24  N   UNL     1      -8.696  19.499  68.392  1.00  0.00    -0.348 N  
HETATM   25  O   UNL     1      -6.587  19.535  69.273  1.00  0.00    -0.310 OA 
ENDBRANCH  14  15
ENDBRANCH  13  14
ENDBRANCH   4  13
BRANCH   6  26
HETATM   26  N   UNL     1     -10.188  10.131  70.332  1.00  0.00    -0.412 N  
HETATM   27  O   UNL     1      -8.824   9.049  71.800  1.00  0.00    -0.348 OA 
HETATM   28  C   UNL     1      -9.893   9.062  71.194  1.00  0.00    -0.300 C  
HETATM   29  H   UNL     1      -9.420  10.797  70.253  1.00  0.00     0.000 HD 
BRANCH  28  30
HETATM   30  C   UNL     1     -10.745   7.823  71.265  1.00  0.00    -0.228 C  
BRANCH  30  31
HETATM   31  C   UNL     1     -10.680   6.710  70.310  1.00  0.00    -0.246 A  
HETATM   32  H2  UNL     1     -10.331   4.894  66.451  1.00  0.00     0.000 HD 
HETATM   33  C   UNL     1      -9.951   5.563  70.582  1.00  0.00    -0.207 A  
HETATM   34  H1  UNL     1     -11.262   6.392  66.399  1.00  0.00     0.000 HD 
HETATM   35  N   UNL     1     -11.033   6.844  68.957  1.00  0.00    -0.209 NA 
HETATM   36  N   UNL     1     -10.740   5.696  66.932  1.00  0.00    -0.294 NA 
HETATM   37  S   UNL     1      -9.705   4.653  69.156  1.00  0.00    -0.171 SA 
HETATM   38  C   UNL     1     -10.585   5.825  68.258  1.00  0.00    -0.217 A  
ENDBRANCH  30  31
BRANCH  30  39
HETATM   39  N   UNL     1     -11.773   7.714  72.040  1.00  0.00    -0.286 NA 
HETATM   40  H   UNL     1     -12.114   6.784  72.281  1.00  0.00     0.000 HD 
BRANCH  39  41
HETATM   41  O   UNL     1     -12.431   8.830  72.557  1.00  0.00    -0.382 OA 
HETATM   42  C   UNL     1     -13.643   9.312  72.010  1.00  0.00    -0.452 C  
ENDBRANCH  39  41
ENDBRANCH  30  39
ENDBRANCH  28  30
ENDBRANCH   6  26
TORSDOF 8
ENDMDL
MODEL       16
REMARK 921   NORMALIZED FREE ENERGY PREDICTED BY IDOCK:   -7.20 KCAL/MOL
REMARK 922        TOTAL FREE ENERGY PREDICTED BY IDOCK:  -11.83 KCAL/MOL
REMARK 923 INTER-LIGAND FREE ENERGY PREDICTED BY IDOCK:  -10.35 KCAL/MOL
REMARK 924 INTRA-LIGAND FREE ENERGY PREDICTED BY IDOCK:   -1.48 KCAL/MOL
REMARK 927      BINDING AFFINITY PREDICTED BY RF-SCORE:    0.00 PKD
ROOT
HETATM    1  C   UNL     1     -11.533  14.977  68.723  1.00  0.00    -0.319 C  
HETATM    2  S   UNL     1     -11.147  16.158  69.987  1.00  0.00    -0.349 SA 
HETATM    3  C   UNL     1     -10.368  17.544  69.078  1.00  0.00    -0.303 C  
HETATM    4  C   UNL     1     -10.280  17.487  67.579  1.00  0.00    -0.340 C  
HETATM    5  CA  UNL     1     -10.717  16.434  66.823  1.00  0.00    -0.180 C  
HETATM    6  CA  UNL     1     -11.065  13.479  68.478  1.00  0.00    -0.272 C  
HETATM    7  C   UNL     1     -11.117  13.949  66.991  1.00  0.00    -0.301 C  
HETATM    8  N   UNL     1     -11.142  15.254  67.372  1.00  0.00    -0.326 N  
HETATM    9  C   UNL     1     -10.722  16.567  65.323  1.00  0.00    -0.254 C  
HETATM   10  O   UNL     1     -10.902  13.397  65.939  1.00  0.00    -0.273 OA 
HETATM   11  O   UNL     1     -10.386  15.484  64.595  1.00  0.00    -0.318 OA 
HETATM   12  OXT UNL     1     -11.036  17.607  64.764  1.00  0.00    -0.915 OA 
ENDROOT
BRANCH   4  13
HETATM   13  C   UNL     1      -9.569  18.697  66.901  1.00  0.00    -0.310 C  
BRANCH  13  14
HETATM   14  S   UNL     1      -7.791  18.599  66.450  1.00  0.00    -0.274 SA 
BRANCH  14  15
HETATM   15  C   UNL     1      -6.880  18.562  67.980  1.00  0.00    -0.221 C  
HETATM   16  N   UNL     1      -7.125  19.540  68.780  1.00  0.00    -0.335 N  
HETATM   17  H   UNL     1      -7.871  20.210  68.593  1.00  0.00     0.000 HD 
HETATM   18  C   UNL     1      -5.473  16.570  67.231  1.00  0.00    -0.131 C  
HETATM   19  C   UNL     1      -6.329  19.638  69.902  1.00  0.00    -0.318 C  
HETATM   20  N   UNL     1      -5.908  17.578  68.182  1.00  0.00    -0.151 NA 
HETATM   21  C   UNL     1      -5.519  18.446  70.408  1.00  0.00    -0.242 C  
HETATM   22  O   UNL     1      -6.130  20.697  70.499  1.00  0.00    -0.516 OA 
HETATM   23  H   UNL     1      -4.396  16.941  69.522  1.00  0.00     0.000 HD 
HETATM   24  N   UNL     1      -5.179  17.583  69.398  1.00  0.00    -0.170 N  
HETATM   25  O   UNL     1      -5.166  18.302  71.568  1.00  0.00    -0.467 OA 
ENDBRANCH  14  15
ENDBRANCH  13  14
ENDBRANCH   4  13
BRANCH   6  26
HETATM   26  N   UNL     1      -9.787  12.681  68.773  1.00  0.00    -0.421 N  
HETATM   27  O   UNL     1      -8.300  10.973  69.005  1.00  0.00    -0.147 OA 
HETATM   28  C   UNL     1      -9.402  11.341  68.605  1.00  0.00    -0.164 C  
HETATM   29  H   UNL     1      -9.051  13.255  69.184  1.00  0.00     0.000 HD 
BRANCH  28  30
HETATM   30  C   UNL     1     -10.201  10.369  67.779  1.00  0.00    -0.193 C  
BRANCH  30  31
HETATM   31  C   UNL     1      -9.859   9.959  66.411  1.00  0.00    -0.227 A  
HETATM   32  H2  UNL     1      -9.246  10.502  62.211  1.00  0.00     0.000 HD 
HETATM   33  C   UNL     1      -8.787   9.120  66.153  1.00  0.00    -0.158 A  
HETATM   34  H1  UNL     1     -10.603  11.454  62.814  1.00  0.00     0.000 HD 
HETATM   35  N   UNL     1     -10.338  10.627  65.272  1.00  0.00    -0.279 NA 
HETATM   36  N   UNL     1      -9.849  10.788  62.983  1.00  0.00    -0.330 NA 
HETATM   37  S   UNL     1      -8.373   9.163  64.494  1.00  0.00    -0.175 SA 
HETATM   38  C   UNL     1      -9.644  10.285  64.209  1.00  0.00    -0.313 A  
ENDBRANCH  30  31
BRANCH  30  39
HETATM   39  N   UNL     1     -11.386   9.970  68.104  1.00  0.00    -0.530 NA 
HETATM   40  H   UNL     1     -11.960   9.504  67.402  1.00  0.00     0.000 HD 
BRANCH  39  41
HETATM   41  O   UNL     1     -11.904  10.157  69.386  1.00  0.00    -0.107 OA 
HETATM   42  C   UNL     1     -11.846   9.150  70.377  1.00  0.00    -0.020 C  
ENDBRANCH  39  41
ENDBRANCH  30  39
ENDBRANCH  28  30
ENDBRANCH   6  26
TORSDOF 8
ENDMDL
MODEL       17
REMARK 921   NORMALIZED FREE ENERGY PREDICTED BY IDOCK:   -7.20 KCAL/MOL
REMARK 922        TOTAL FREE ENERGY PREDICTED BY IDOCK:  -11.83 KCAL/MOL
REMARK 923 INTER-LIGAND FREE ENERGY PREDICTED BY IDOCK:  -10.48 KCAL/MOL
REMARK 924 INTRA-LIGAND FREE ENERGY PREDICTED BY IDOCK:   -1.34 KCAL/MOL
REMARK 927      BINDING AFFINITY PREDICTED BY RF-SCORE:    0.00 PKD
ROOT
HETATM    1  C   UNL     1     -12.200  11.574  69.392  1.00  0.00    -0.207 C  
HETATM    2  S   UNL     1     -12.280  13.206  70.079  1.00  0.00    -0.199 SA 
HETATM    3  C   UNL     1     -11.604  14.279  68.759  1.00  0.00    -0.322 C  
HETATM    4  C   UNL     1     -11.224  13.673  67.438  1.00  0.00    -0.323 C  
HETATM    5  CA  UNL     1     -11.313  12.339  67.150  1.00  0.00    -0.335 C  
HETATM    6  CA  UNL     1     -11.433  10.258  69.843  1.00  0.00    -0.273 C  
HETATM    7  C   UNL     1     -11.284  10.093  68.299  1.00  0.00    -0.183 C  
HETATM    8  N   UNL     1     -11.616  11.396  68.096  1.00  0.00    -0.298 N  
HETATM    9  C   UNL     1     -11.056  11.879  65.739  1.00  0.00    -0.317 C  
HETATM   10  O   UNL     1     -10.778   9.248  67.600  1.00  0.00    -0.269 OA 
HETATM   11  O   UNL     1     -10.398  10.716  65.567  1.00  0.00    -0.266 OA 
HETATM   12  OXT UNL     1     -11.439  12.514  64.769  1.00  0.00    -0.304 OA 
ENDROOT
BRANCH   4  13
HETATM   13  C   UNL     1     -10.626  14.661  66.391  1.00  0.00    -0.301 C  
BRANCH  13  14
HETATM   14  S   UNL     1      -8.957  15.389  66.644  1.00  0.00    -0.306 SA 
BRANCH  14  15
HETATM   15  C   UNL     1      -9.183  17.151  66.756  1.00  0.00    -0.254 C  
HETATM   16  N   UNL     1     -10.278  17.591  66.242  1.00  0.00    -0.355 N  
HETATM   17  H   UNL     1     -11.004  16.957  65.908  1.00  0.00     0.000 HD 
HETATM   18  C   UNL     1      -6.839  17.512  67.694  1.00  0.00    -0.163 C  
HETATM   19  C   UNL     1     -10.422  18.961  66.164  1.00  0.00    -0.457 C  
HETATM   20  N   UNL     1      -8.159  17.948  67.276  1.00  0.00    -0.210 NA 
HETATM   21  C   UNL     1      -9.570  19.898  67.017  1.00  0.00    -0.388 C  
HETATM   22  O   UNL     1     -11.148  19.518  65.340  1.00  0.00    -0.415 OA 
HETATM   23  H   UNL     1      -7.581  19.959  67.608  1.00  0.00     0.000 HD 
HETATM   24  N   UNL     1      -8.352  19.352  67.332  1.00  0.00    -0.285 N  
HETATM   25  O   UNL     1      -9.908  21.026  67.339  1.00  0.00    -0.393 OA 
ENDBRANCH  14  15
ENDBRANCH  13  14
ENDBRANCH   4  13
BRANCH   6  26
HETATM   26  N   UNL     1     -10.112   9.970  70.570  1.00  0.00    -0.383 N  
HETATM   27  O   UNL     1      -8.558   9.079  71.976  1.00  0.00    -0.367 OA 
HETATM   28  C   UNL     1      -9.697   9.020  71.518  1.00  0.00    -0.295 C  
HETATM   29  H   UNL     1      -9.367  10.614  70.305  1.00  0.00     0.000 HD 
BRANCH  28  30
HETATM   30  C   UNL     1     -10.521   7.808  71.860  1.00  0.00    -0.220 C  
BRANCH  30  31
HETATM   31  C   UNL     1     -10.480   6.537  71.125  1.00  0.00    -0.220 A  
HETATM   32  H2  UNL     1      -9.602   3.969  67.818  1.00  0.00     0.000 HD 
HETATM   33  C   UNL     1     -10.139   5.349  71.750  1.00  0.00    -0.196 A  
HETATM   34  H1  UNL     1     -10.105   5.577  67.295  1.00  0.00     0.000 HD 
HETATM   35  N   UNL     1     -10.435   6.469  69.723  1.00  0.00    -0.197 NA 
HETATM   36  N   UNL     1      -9.916   4.912  68.046  1.00  0.00    -0.140 NA 
HETATM   37  S   UNL     1      -9.761   4.147  70.595  1.00  0.00    -0.187 SA 
HETATM   38  C   UNL     1     -10.079   5.267  69.330  1.00  0.00    -0.230 A  
ENDBRANCH  30  31
BRANCH  30  39
HETATM   39  N   UNL     1     -11.507   7.834  72.694  1.00  0.00    -0.441 NA 
HETATM   40  H   UNL     1     -11.515   7.173  73.471  1.00  0.00     0.000 HD 
BRANCH  39  41
HETATM   41  O   UNL     1     -12.561   8.738  72.565  1.00  0.00    -0.391 OA 
HETATM   42  C   UNL     1     -13.771   8.399  71.916  1.00  0.00    -0.394 C  
ENDBRANCH  39  41
ENDBRANCH  30  39
ENDBRANCH  28  30
ENDBRANCH   6  26
TORSDOF 8
ENDMDL
MODEL       18
REMARK 921   NORMALIZED FREE ENERGY PREDICTED BY IDOCK:   -7.20 KCAL/MOL
REMARK 922        TOTAL FREE ENERGY PREDICTED BY IDOCK:  -11.82 KCAL/MOL
REMARK 923 INTER-LIGAND FREE ENERGY PREDICTED BY IDOCK:   -9.90 KCAL/MOL
REMARK 924 INTRA-LIGAND FREE ENERGY PREDICTED BY IDOCK:   -1.93 KCAL/MOL
REMARK 927      BINDING AFFINITY PREDICTED BY RF-SCORE:    0.00 PKD
ROOT
HETATM    1  C   UNL     1     -11.735  14.134  68.298  1.00  0.00    -0.348 C  
HETATM    2  S   UNL     1     -11.256  15.304  69.540  1.00  0.00    -0.305 SA 
HETATM    3  C   UNL     1     -10.519  16.686  68.590  1.00  0.00    -0.323 C  
HETATM    4  C   UNL     1     -10.525  16.634  67.088  1.00  0.00    -0.300 C  
HETATM    5  CA  UNL     1     -11.021  15.590  66.357  1.00  0.00    -0.238 C  
HETATM    6  CA  UNL     1     -11.301  12.631  68.019  1.00  0.00    -0.290 C  
HETATM    7  C   UNL     1     -11.439  13.110  66.540  1.00  0.00    -0.338 C  
HETATM    8  N   UNL     1     -11.426  14.413  66.927  1.00  0.00    -0.351 N  
HETATM    9  C   UNL     1     -11.119  15.730  64.860  1.00  0.00    -0.399 C  
HETATM   10  O   UNL     1     -11.297  12.560  65.474  1.00  0.00    -0.305 OA 
HETATM   11  O   UNL     1     -10.841  14.647  64.108  1.00  0.00     0.047 OA 
HETATM   12  OXT UNL     1     -11.455  16.776  64.326  1.00  0.00    -1.125 OA 
ENDROOT
BRANCH   4  13
HETATM   13  C   UNL     1      -9.844  17.839  66.371  1.00  0.00    -0.324 C  
BRANCH  13  14
HETATM   14  S   UNL     1      -8.024  17.866  66.120  1.00  0.00    -0.147 SA 
BRANCH  14  15
HETATM   15  C   UNL     1      -7.341  16.649  67.225  1.00  0.00    -0.171 C  
HETATM   16  N   UNL     1      -7.446  15.431  66.822  1.00  0.00    -0.200 N  
HETATM   17  H   UNL     1      -7.787  15.204  65.888  1.00  0.00     0.000 HD 
HETATM   18  C   UNL     1      -6.876  18.382  69.038  1.00  0.00    -0.265 C  
HETATM   19  C   UNL     1      -7.076  14.446  67.714  1.00  0.00    -0.176 C  
HETATM   20  N   UNL     1      -6.844  17.046  68.470  1.00  0.00    -0.171 NA 
HETATM   21  C   UNL     1      -6.188  14.759  68.918  1.00  0.00    -0.086 C  
HETATM   22  O   UNL     1      -7.514  13.296  67.672  1.00  0.00    -0.142 OA 
HETATM   23  H   UNL     1      -6.058  16.308  70.294  1.00  0.00     0.000 HD 
HETATM   24  N   UNL     1      -6.327  16.055  69.343  1.00  0.00    -0.158 N  
HETATM   25  O   UNL     1      -5.477  13.938  69.474  1.00  0.00    -0.083 OA 
ENDBRANCH  14  15
ENDBRANCH  13  14
ENDBRANCH   4  13
BRANCH   6  26
HETATM   26  N   UNL     1     -10.016  11.818  68.230  1.00  0.00    -0.195 N  
HETATM   27  O   UNL     1      -8.541  10.236  68.943  1.00  0.00    -0.131 OA 
HETATM   28  C   UNL     1      -9.708  10.618  68.891  1.00  0.00    -0.202 C  
HETATM   29  H   UNL     1      -9.202  12.246  67.790  1.00  0.00     0.000 HD 
BRANCH  28  30
HETATM   30  C   UNL     1     -10.770   9.668  69.377  1.00  0.00    -0.228 C  
BRANCH  30  31
HETATM   31  C   UNL     1     -11.618   9.897  70.554  1.00  0.00    -0.309 A  
HETATM   32  H2  UNL     1     -14.503  11.966  72.943  1.00  0.00     0.000 HD 
HETATM   33  C   UNL     1     -12.298   8.859  71.170  1.00  0.00    -0.235 A  
HETATM   34  H1  UNL     1     -13.459  13.075  72.053  1.00  0.00     0.000 HD 
HETATM   35  N   UNL     1     -12.079  11.171  70.926  1.00  0.00    -0.344 NA 
HETATM   36  N   UNL     1     -13.725  12.122  72.302  1.00  0.00    -0.213 NA 
HETATM   37  S   UNL     1     -13.512   9.466  72.211  1.00  0.00    -0.426 SA 
HETATM   38  C   UNL     1     -13.062  11.072  71.793  1.00  0.00    -0.449 A  
ENDBRANCH  30  31
BRANCH  30  39
HETATM   39  N   UNL     1     -10.891   8.458  68.943  1.00  0.00    -0.425 NA 
HETATM   40  H   UNL     1     -11.052   7.706  69.612  1.00  0.00     0.000 HD 
BRANCH  39  41
HETATM   41  O   UNL     1     -10.809   8.148  67.585  1.00  0.00    -0.167 OA 
HETATM   42  C   UNL     1     -10.759   6.814  67.117  1.00  0.00    -0.371 C  
ENDBRANCH  39  41
ENDBRANCH  30  39
ENDBRANCH  28  30
ENDBRANCH   6  26
TORSDOF 8
ENDMDL
MODEL       19
REMARK 921   NORMALIZED FREE ENERGY PREDICTED BY IDOCK:   -7.19 KCAL/MOL
REMARK 922        TOTAL FREE ENERGY PREDICTED BY IDOCK:  -11.82 KCAL/MOL
REMARK 923 INTER-LIGAND FREE ENERGY PREDICTED BY IDOCK:  -10.48 KCAL/MOL
REMARK 924 INTRA-LIGAND FREE ENERGY PREDICTED BY IDOCK:   -1.33 KCAL/MOL
REMARK 927      BINDING AFFINITY PREDICTED BY RF-SCORE:    0.00 PKD
ROOT
HETATM    1  C   UNL     1     -11.463  13.120  69.805  1.00  0.00    -0.145 C  
HETATM    2  S   UNL     1     -12.767  12.880  70.980  1.00  0.00    -0.164 SA 
HETATM    3  C   UNL     1     -12.782  11.071  71.267  1.00  0.00    -0.432 C  
HETATM    4  C   UNL     1     -11.746  10.211  70.600  1.00  0.00    -0.425 C  
HETATM    5  CA  UNL     1     -10.789  10.682  69.744  1.00  0.00    -0.261 C  
HETATM    6  CA  UNL     1     -11.445  13.710  68.330  1.00  0.00    -0.313 C  
HETATM    7  C   UNL     1     -10.379  12.586  68.141  1.00  0.00    -0.232 C  
HETATM    8  N   UNL     1     -10.776  11.973  69.288  1.00  0.00    -0.088 N  
HETATM    9  C   UNL     1      -9.710   9.745  69.270  1.00  0.00    -0.196 C  
HETATM   10  O   UNL     1      -9.703  12.234  67.205  1.00  0.00    -0.196 OA 
HETATM   11  O   UNL     1      -9.295   9.858  67.993  1.00  0.00    -0.131 OA 
HETATM   12  OXT UNL     1      -9.200   8.916  70.007  1.00  0.00    -0.159 OA 
ENDROOT
BRANCH   4  13
HETATM   13  C   UNL     1     -11.863   8.681  70.878  1.00  0.00    -0.225 C  
BRANCH  13  14
HETATM   14  S   UNL     1     -12.160   8.064  72.583  1.00  0.00    -0.121 SA 
BRANCH  14  15
HETATM   15  C   UNL     1     -11.115   6.639  72.797  1.00  0.00    -0.249 C  
HETATM   16  N   UNL     1     -11.735   5.512  72.827  1.00  0.00    -0.468 N  
HETATM   17  H   UNL     1     -12.732   5.444  72.622  1.00  0.00     0.000 HD 
HETATM   18  C   UNL     1      -9.039   8.072  73.181  1.00  0.00    -0.275 C  
HETATM   19  C   UNL     1     -10.986   4.399  73.149  1.00  0.00    -0.247 C  
HETATM   20  N   UNL     1      -9.746   6.813  73.022  1.00  0.00    -0.157 NA 
HETATM   21  C   UNL     1      -9.462   4.409  73.042  1.00  0.00    -0.128 C  
HETATM   22  O   UNL     1     -11.469   3.379  73.642  1.00  0.00    -0.199 OA 
HETATM   23  H   UNL     1      -7.960   5.772  73.484  1.00  0.00     0.000 HD 
HETATM   24  N   UNL     1      -8.937   5.664  73.215  1.00  0.00    -0.128 N  
HETATM   25  O   UNL     1      -8.782   3.409  72.876  1.00  0.00    -0.084 OA 
ENDBRANCH  14  15
ENDBRANCH  13  14
ENDBRANCH   4  13
BRANCH   6  26
HETATM   26  N   UNL     1     -12.443  13.741  67.164  1.00  0.00    -0.413 N  
HETATM   27  O   UNL     1     -13.405  14.148  65.140  1.00  0.00    -0.684 OA 
HETATM   28  C   UNL     1     -12.395  14.204  65.839  1.00  0.00    -0.463 C  
HETATM   29  H   UNL     1     -13.346  13.334  67.407  1.00  0.00     0.000 HD 
BRANCH  28  30
HETATM   30  C   UNL     1     -11.106  14.592  65.165  1.00  0.00    -0.370 C  
BRANCH  30  31
HETATM   31  C   UNL     1     -10.358  15.825  65.442  1.00  0.00    -0.389 A  
HETATM   32  H2  UNL     1      -9.881  19.961  66.428  1.00  0.00     0.000 HD 
HETATM   33  C   UNL     1      -9.210  15.819  66.217  1.00  0.00    -0.333 A  
HETATM   34  H1  UNL     1     -11.285  19.681  65.396  1.00  0.00     0.000 HD 
HETATM   35  N   UNL     1     -10.905  17.106  65.256  1.00  0.00    -0.543 NA 
HETATM   36  N   UNL     1     -10.474  19.321  65.899  1.00  0.00    -0.493 NA 
HETATM   37  S   UNL     1      -8.811  17.404  66.717  1.00  0.00    -0.261 SA 
HETATM   38  C   UNL     1     -10.178  18.012  65.870  1.00  0.00    -0.229 A  
ENDBRANCH  30  31
BRANCH  30  39
HETATM   39  N   UNL     1     -10.644  13.990  64.120  1.00  0.00    -0.517 NA 
HETATM   40  H   UNL     1     -10.619  14.490  63.232  1.00  0.00     0.000 HD 
BRANCH  39  41
HETATM   41  O   UNL     1     -10.178  12.676  64.168  1.00  0.00    -0.373 OA 
HETATM   42  C   UNL     1     -10.701  11.658  63.336  1.00  0.00    -0.391 C  
ENDBRANCH  39  41
ENDBRANCH  30  39
ENDBRANCH  28  30
ENDBRANCH   6  26
TORSDOF 8
ENDMDL
MODEL       20
REMARK 921   NORMALIZED FREE ENERGY PREDICTED BY IDOCK:   -7.19 KCAL/MOL
REMARK 922        TOTAL FREE ENERGY PREDICTED BY IDOCK:  -11.81 KCAL/MOL
REMARK 923 INTER-LIGAND FREE ENERGY PREDICTED BY IDOCK:  -10.81 KCAL/MOL
REMARK 924 INTRA-LIGAND FREE ENERGY PREDICTED BY IDOCK:   -1.00 KCAL/MOL
REMARK 927      BINDING AFFINITY PREDICTED BY RF-SCORE:    0.00 PKD
ROOT
HETATM    1  C   UNL     1     -11.310  14.423  67.013  1.00  0.00    -0.346 C  
HETATM    2  S   UNL     1     -11.346  12.673  66.740  1.00  0.00    -0.340 SA 
HETATM    3  C   UNL     1     -11.731  11.972  68.387  1.00  0.00    -0.332 C  
HETATM    4  C   UNL     1     -12.007  12.899  69.537  1.00  0.00    -0.346 C  
HETATM    5  CA  UNL     1     -11.955  14.264  69.454  1.00  0.00    -0.337 C  
HETATM    6  CA  UNL     1     -10.166  15.511  66.840  1.00  0.00    -0.279 C  
HETATM    7  C   UNL     1     -10.843  16.092  68.120  1.00  0.00    -0.329 C  
HETATM    8  N   UNL     1     -11.495  14.921  68.345  1.00  0.00    -0.304 N  
HETATM    9  C   UNL     1     -12.411  15.083  70.633  1.00  0.00    -0.365 C  
HETATM   10  O   UNL     1     -10.630  17.066  68.801  1.00  0.00    -0.330 OA 
HETATM   11  O   UNL     1     -11.724  16.206  70.921  1.00  0.00    -0.398 OA 
HETATM   12  OXT UNL     1     -13.380  14.769  71.307  1.00  0.00    -0.359 OA 
ENDROOT
BRANCH   4  13
HETATM   13  C   UNL     1     -12.290  12.208  70.905  1.00  0.00    -0.273 C  
BRANCH  13  14
HETATM   14  S   UNL     1     -13.018  10.522  70.964  1.00  0.00    -0.347 SA 
BRANCH  14  15
HETATM   15  C   UNL     1     -11.668   9.395  71.240  1.00  0.00    -0.360 C  
HETATM   16  N   UNL     1     -10.497   9.901  71.070  1.00  0.00    -0.313 N  
HETATM   17  H   UNL     1     -10.363  10.899  70.908  1.00  0.00     0.000 HD 
HETATM   18  C   UNL     1     -13.234   7.402  71.527  1.00  0.00    -0.372 C  
HETATM   19  C   UNL     1      -9.430   9.027  71.117  1.00  0.00    -0.278 C  
HETATM   20  N   UNL     1     -11.934   8.049  71.509  1.00  0.00    -0.288 NA 
HETATM   21  C   UNL     1      -9.560   7.649  71.762  1.00  0.00    -0.149 C  
HETATM   22  O   UNL     1      -8.355   9.243  70.556  1.00  0.00    -0.172 OA 
HETATM   23  H   UNL     1     -11.010   6.164  71.794  1.00  0.00     0.000 HD 
HETATM   24  N   UNL     1     -10.842   7.165  71.701  1.00  0.00    -0.224 N  
HETATM   25  O   UNL     1      -8.623   7.023  72.231  1.00  0.00    -0.121 OA 
ENDBRANCH  14  15
ENDBRANCH  13  14
ENDBRANCH   4  13
BRANCH   6  26
HETATM   26  N   UNL     1      -8.636  15.504  66.966  1.00  0.00    -0.213 N  
HETATM   27  O   UNL     1      -6.446  16.120  66.859  1.00  0.00    -0.283 OA 
HETATM   28  C   UNL     1      -7.623  16.446  66.719  1.00  0.00    -0.255 C  
HETATM   29  H   UNL     1      -8.273  14.614  67.305  1.00  0.00     0.000 HD 
BRANCH  28  30
HETATM   30  C   UNL     1      -7.916  17.902  66.478  1.00  0.00    -0.270 C  
BRANCH  30  31
HETATM   31  C   UNL     1      -7.445  19.000  67.332  1.00  0.00    -0.229 A  
HETATM   32  H2  UNL     1      -5.678  20.757  70.810  1.00  0.00     0.000 HD 
HETATM   33  C   UNL     1      -6.760  20.084  66.806  1.00  0.00    -0.214 A  
HETATM   34  H1  UNL     1      -6.654  19.342  71.203  1.00  0.00     0.000 HD 
HETATM   35  N   UNL     1      -7.334  18.888  68.727  1.00  0.00    -0.313 NA 
HETATM   36  N   UNL     1      -6.286  19.995  70.511  1.00  0.00    -0.324 NA 
HETATM   37  S   UNL     1      -5.977  20.962  68.047  1.00  0.00    -0.346 SA 
HETATM   38  C   UNL     1      -6.597  19.862  69.213  1.00  0.00    -0.342 A  
ENDBRANCH  30  31
BRANCH  30  39
HETATM   39  N   UNL     1      -8.795  18.316  65.627  1.00  0.00    -0.076 NA 
HETATM   40  H   UNL     1      -8.518  18.446  64.654  1.00  0.00     0.000 HD 
BRANCH  39  41
HETATM   41  O   UNL     1     -10.112  18.591  65.998  1.00  0.00    -0.485 OA 
HETATM   42  C   UNL     1     -10.483  19.808  66.617  1.00  0.00    -0.497 C  
ENDBRANCH  39  41
ENDBRANCH  30  39
ENDBRANCH  28  30
ENDBRANCH   6  26
TORSDOF 8
ENDMDL
MODEL       21
REMARK 921   NORMALIZED FREE ENERGY PREDICTED BY IDOCK:   -7.18 KCAL/MOL
REMARK 922        TOTAL FREE ENERGY PREDICTED BY IDOCK:  -11.80 KCAL/MOL
REMARK 923 INTER-LIGAND FREE ENERGY PREDICTED BY IDOCK:  -10.67 KCAL/MOL
REMARK 924 INTRA-LIGAND FREE ENERGY PREDICTED BY IDOCK:   -1.13 KCAL/MOL
REMARK 927      BINDING AFFINITY PREDICTED BY RF-SCORE:    0.00 PKD
ROOT
HETATM    1  C   UNL     1     -11.788  13.865  68.742  1.00  0.00    -0.361 C  
HETATM    2  S   UNL     1     -11.721  12.234  68.052  1.00  0.00    -0.321 SA 
HETATM    3  C   UNL     1     -12.219  11.144  69.436  1.00  0.00    -0.259 C  
HETATM    4  C   UNL     1     -12.636  11.756  70.744  1.00  0.00    -0.344 C  
HETATM    5  CA  UNL     1     -12.638  13.100  70.998  1.00  0.00    -0.312 C  
HETATM    6  CA  UNL     1     -10.681  14.987  68.947  1.00  0.00    -0.240 C  
HETATM    7  C   UNL     1     -11.494  15.222  70.258  1.00  0.00    -0.297 C  
HETATM    8  N   UNL     1     -12.111  14.018  70.130  1.00  0.00    -0.330 N  
HETATM    9  C   UNL     1     -13.232  13.596  72.290  1.00  0.00    -0.469 C  
HETATM   10  O   UNL     1     -11.385  16.005  71.172  1.00  0.00    -0.387 OA 
HETATM   11  O   UNL     1     -12.623  14.629  72.905  1.00  0.00    -0.374 OA 
HETATM   12  OXT UNL     1     -14.242  13.106  72.771  1.00  0.00    -0.608 OA 
ENDROOT
BRANCH   4  13
HETATM   13  C   UNL     1     -13.009  10.745  71.871  1.00  0.00    -0.419 C  
BRANCH  13  14
HETATM   14  S   UNL     1     -13.027   8.939  71.534  1.00  0.00    -0.315 SA 
BRANCH  14  15
HETATM   15  C   UNL     1     -11.396   8.335  71.914  1.00  0.00    -0.308 C  
HETATM   16  N   UNL     1     -10.447   9.184  71.729  1.00  0.00    -0.350 N  
HETATM   17  H   UNL     1     -10.639  10.159  71.499  1.00  0.00     0.000 HD 
HETATM   18  C   UNL     1     -12.239   5.961  72.313  1.00  0.00     0.010 C  
HETATM   19  C   UNL     1      -9.157   8.713  71.857  1.00  0.00    -0.256 C  
HETATM   20  N   UNL     1     -11.221   6.995  72.273  1.00  0.00    -0.254 NA 
HETATM   21  C   UNL     1      -8.858   7.410  72.597  1.00  0.00    -0.129 C  
HETATM   22  O   UNL     1      -8.189   9.234  71.302  1.00  0.00    -0.324 OA 
HETATM   23  H   UNL     1      -9.747   5.537  72.707  1.00  0.00     0.000 HD 
HETATM   24  N   UNL     1      -9.909   6.531  72.547  1.00  0.00    -0.166 N  
HETATM   25  O   UNL     1      -7.788   7.155  73.125  1.00  0.00    -0.095 OA 
ENDBRANCH  14  15
ENDBRANCH  13  14
ENDBRANCH   4  13
BRANCH   6  26
HETATM   26  N   UNL     1      -9.170  14.981  69.215  1.00  0.00    -0.352 N  
HETATM   27  O   UNL     1      -6.972  15.577  69.268  1.00  0.00    -0.144 OA 
HETATM   28  C   UNL     1      -8.128  15.898  68.997  1.00  0.00    -0.229 C  
HETATM   29  H   UNL     1      -8.849  14.116  69.649  1.00  0.00     0.000 HD 
BRANCH  28  30
HETATM   30  C   UNL     1      -8.381  17.335  68.626  1.00  0.00    -0.255 C  
BRANCH  30  31
HETATM   31  C   UNL     1      -9.064  17.772  67.403  1.00  0.00    -0.244 A  
HETATM   32  H2  UNL     1     -11.754  17.416  64.094  1.00  0.00     0.000 HD 
HETATM   33  C   UNL     1      -9.540  19.066  67.262  1.00  0.00    -0.313 A  
HETATM   34  H1  UNL     1     -10.967  15.885  64.479  1.00  0.00     0.000 HD 
HETATM   35  N   UNL     1      -9.589  16.874  66.459  1.00  0.00    -0.264 NA 
HETATM   36  N   UNL     1     -11.099  16.879  64.663  1.00  0.00    -0.990 NA 
HETATM   37  S   UNL     1     -10.641  19.165  65.956  1.00  0.00    -0.359 SA 
HETATM   38  C   UNL     1     -10.418  17.488  65.646  1.00  0.00    -0.149 A  
ENDBRANCH  30  31
BRANCH  30  39
HETATM   39  N   UNL     1      -7.828  18.331  69.234  1.00  0.00     0.024 NA 
HETATM   40  H   UNL     1      -8.410  18.954  69.793  1.00  0.00     0.000 HD 
BRANCH  39  41
HETATM   41  O   UNL     1      -6.458  18.580  69.150  1.00  0.00    -0.249 OA 
HETATM   42  C   UNL     1      -5.707  19.052  70.252  1.00  0.00    -0.235 C  
ENDBRANCH  39  41
ENDBRANCH  30  39
ENDBRANCH  28  30
ENDBRANCH   6  26
TORSDOF 8
ENDMDL
MODEL       22
REMARK 921   NORMALIZED FREE ENERGY PREDICTED BY IDOCK:   -7.18 KCAL/MOL
REMARK 922        TOTAL FREE ENERGY PREDICTED BY IDOCK:  -11.79 KCAL/MOL
REMARK 923 INTER-LIGAND FREE ENERGY PREDICTED BY IDOCK:  -10.54 KCAL/MOL
REMARK 924 INTRA-LIGAND FREE ENERGY PREDICTED BY IDOCK:   -1.25 KCAL/MOL
REMARK 927      BINDING AFFINITY PREDICTED BY RF-SCORE:    0.00 PKD
ROOT
HETATM    1  C   UNL     1     -11.977  13.634  68.892  1.00  0.00    -0.356 C  
HETATM    2  S   UNL     1     -11.428  15.150  69.627  1.00  0.00    -0.317 SA 
HETATM    3  C   UNL     1     -10.948  16.190  68.198  1.00  0.00    -0.341 C  
HETATM    4  C   UNL     1     -11.161  15.671  66.804  1.00  0.00    -0.169 C  
HETATM    5  CA  UNL     1     -11.666  14.434  66.512  1.00  0.00    -0.391 C  
HETATM    6  CA  UNL     1     -11.463  12.136  69.016  1.00  0.00    -0.297 C  
HETATM    7  C   UNL     1     -11.847  12.122  67.504  1.00  0.00    -0.237 C  
HETATM    8  N   UNL     1     -11.887  13.480  67.469  1.00  0.00    -0.363 N  
HETATM    9  C   UNL     1     -11.983  14.096  65.079  1.00  0.00    -0.408 C  
HETATM   10  O   UNL     1     -11.810  11.272  66.647  1.00  0.00    -0.311 OA 
HETATM   11  O   UNL     1     -11.725  12.842  64.657  1.00  0.00    -0.327 OA 
HETATM   12  OXT UNL     1     -12.476  14.910  64.313  1.00  0.00    -0.670 OA 
ENDROOT
BRANCH   4  13
HETATM   13  C   UNL     1     -10.689  16.615  65.656  1.00  0.00    -0.214 C  
BRANCH  13  14
HETATM   14  S   UNL     1     -10.480  18.415  65.957  1.00  0.00    -0.255 SA 
BRANCH  14  15
HETATM   15  C   UNL     1      -8.908  18.616  66.769  1.00  0.00    -0.297 C  
HETATM   16  N   UNL     1      -7.914  18.061  66.168  1.00  0.00    -0.229 N  
HETATM   17  H   UNL     1      -8.012  17.648  65.241  1.00  0.00     0.000 HD 
HETATM   18  C   UNL     1      -9.969  19.714  68.812  1.00  0.00    -0.451 C  
HETATM   19  C   UNL     1      -6.708  18.054  66.839  1.00  0.00    -0.183 C  
HETATM   20  N   UNL     1      -8.849  19.242  68.017  1.00  0.00    -0.307 NA 
HETATM   21  C   UNL     1      -6.439  19.011  67.999  1.00  0.00    -0.224 C  
HETATM   22  O   UNL     1      -5.825  17.221  66.632  1.00  0.00    -0.175 OA 
HETATM   23  H   UNL     1      -7.538  19.725  69.609  1.00  0.00     0.000 HD 
HETATM   24  N   UNL     1      -7.589  19.368  68.656  1.00  0.00    -0.352 N  
HETATM   25  O   UNL     1      -5.326  19.376  68.339  1.00  0.00    -0.188 OA 
ENDBRANCH  14  15
ENDBRANCH  13  14
ENDBRANCH   4  13
BRANCH   6  26
HETATM   26  N   UNL     1     -10.099  11.475  69.257  1.00  0.00    -0.423 N  
HETATM   27  O   UNL     1      -8.484   9.975  69.832  1.00  0.00    -0.189 OA 
HETATM   28  C   UNL     1      -9.682  10.196  69.662  1.00  0.00    -0.221 C  
HETATM   29  H   UNL     1      -9.318  12.108  69.085  1.00  0.00     0.000 HD 
BRANCH  28  30
HETATM   30  C   UNL     1     -10.619   9.019  69.712  1.00  0.00    -0.228 C  
BRANCH  30  31
HETATM   31  C   UNL     1     -10.932   8.254  70.925  1.00  0.00    -0.246 A  
HETATM   32  H2  UNL     1     -11.498   4.721  73.273  1.00  0.00     0.000 HD 
HETATM   33  C   UNL     1     -10.460   8.641  72.169  1.00  0.00    -0.340 A  
HETATM   34  H1  UNL     1     -12.056   4.512  71.613  1.00  0.00     0.000 HD 
HETATM   35  N   UNL     1     -11.412   6.934  70.891  1.00  0.00    -0.303 NA 
HETATM   36  N   UNL     1     -11.646   5.101  72.338  1.00  0.00    -0.021 NA 
HETATM   37  S   UNL     1     -10.611   7.364  73.296  1.00  0.00    -0.378 SA 
HETATM   38  C   UNL     1     -11.302   6.371  72.074  1.00  0.00    -0.294 A  
ENDBRANCH  30  31
BRANCH  30  39
HETATM   39  N   UNL     1     -11.068   8.426  68.656  1.00  0.00    -0.361 NA 
HETATM   40  H   UNL     1     -12.076   8.319  68.540  1.00  0.00     0.000 HD 
BRANCH  39  41
HETATM   41  O   UNL     1     -10.217   7.928  67.669  1.00  0.00    -0.193 OA 
HETATM   42  C   UNL     1     -10.525   6.766  66.924  1.00  0.00    -0.280 C  
ENDBRANCH  39  41
ENDBRANCH  30  39
ENDBRANCH  28  30
ENDBRANCH   6  26
TORSDOF 8
ENDMDL
MODEL       23
REMARK 921   NORMALIZED FREE ENERGY PREDICTED BY IDOCK:   -7.16 KCAL/MOL
REMARK 922        TOTAL FREE ENERGY PREDICTED BY IDOCK:  -11.77 KCAL/MOL
REMARK 923 INTER-LIGAND FREE ENERGY PREDICTED BY IDOCK:  -10.56 KCAL/MOL
REMARK 924 INTRA-LIGAND FREE ENERGY PREDICTED BY IDOCK:   -1.22 KCAL/MOL
REMARK 927      BINDING AFFINITY PREDICTED BY RF-SCORE:    0.00 PKD
ROOT
HETATM    1  C   UNL     1     -12.089  13.699  68.421  1.00  0.00    -0.277 C  
HETATM    2  S   UNL     1     -11.568  12.126  67.794  1.00  0.00    -0.330 SA 
HETATM    3  C   UNL     1     -11.653  11.017  69.249  1.00  0.00    -0.314 C  
HETATM    4  C   UNL     1     -12.176  11.549  70.553  1.00  0.00    -0.469 C  
HETATM    5  CA  UNL     1     -12.570  12.844  70.752  1.00  0.00    -0.232 C  
HETATM    6  CA  UNL     1     -11.363  15.109  68.514  1.00  0.00    -0.309 C  
HETATM    7  C   UNL     1     -12.150  15.166  69.861  1.00  0.00    -0.336 C  
HETATM    8  N   UNL     1     -12.382  13.827  69.818  1.00  0.00    -0.298 N  
HETATM    9  C   UNL     1     -13.227  13.213  72.056  1.00  0.00    -0.446 C  
HETATM   10  O   UNL     1     -12.240  15.995  70.734  1.00  0.00    -0.374 OA 
HETATM   11  O   UNL     1     -12.930  14.413  72.592  1.00  0.00    -0.406 OA 
HETATM   12  OXT UNL     1     -14.021  12.473  72.616  1.00  0.00    -0.279 OA 
ENDROOT
BRANCH   4  13
HETATM   13  C   UNL     1     -12.177  10.539  71.740  1.00  0.00    -0.057 C  
BRANCH  13  14
HETATM   14  S   UNL     1     -12.950   8.883  71.553  1.00  0.00    -0.315 SA 
BRANCH  14  15
HETATM   15  C   UNL     1     -11.655   7.773  71.041  1.00  0.00    -0.283 C  
HETATM   16  N   UNL     1     -11.718   7.399  69.811  1.00  0.00    -0.438 N  
HETATM   17  H   UNL     1     -12.389   7.807  69.161  1.00  0.00     0.000 HD 
HETATM   18  C   UNL     1     -10.745   7.549  73.413  1.00  0.00    -0.332 C  
HETATM   19  C   UNL     1     -10.832   6.418  69.414  1.00  0.00    -0.321 C  
HETATM   20  N   UNL     1     -10.738   7.297  71.983  1.00  0.00    -0.208 NA 
HETATM   21  C   UNL     1      -9.574   6.109  70.224  1.00  0.00    -0.163 C  
HETATM   22  O   UNL     1     -11.041   5.663  68.464  1.00  0.00    -0.119 OA 
HETATM   23  H   UNL     1      -9.120   5.956  72.244  1.00  0.00     0.000 HD 
HETATM   24  N   UNL     1      -9.731   6.395  71.556  1.00  0.00    -0.169 N  
HETATM   25  O   UNL     1      -8.563   5.613  69.753  1.00  0.00    -0.118 OA 
ENDBRANCH  14  15
ENDBRANCH  13  14
ENDBRANCH   4  13
BRANCH   6  26
HETATM   26  N   UNL     1      -9.909  15.569  68.692  1.00  0.00    -0.201 N  
HETATM   27  O   UNL     1      -7.781  16.254  68.258  1.00  0.00    -0.149 OA 
HETATM   28  C   UNL     1      -8.901  16.005  67.816  1.00  0.00    -0.176 C  
HETATM   29  H   UNL     1      -9.607  15.554  69.665  1.00  0.00     0.000 HD 
BRANCH  28  30
HETATM   30  C   UNL     1      -9.179  16.372  66.383  1.00  0.00    -0.302 C  
BRANCH  30  31
HETATM   31  C   UNL     1     -10.007  15.580  65.465  1.00  0.00    -0.341 A  
HETATM   32  H2  UNL     1     -11.753  12.010  63.879  1.00  0.00     0.000 HD 
HETATM   33  C   UNL     1     -11.261  16.011  65.065  1.00  0.00    -0.261 A  
HETATM   34  H1  UNL     1     -10.104  11.748  64.446  1.00  0.00     0.000 HD 
HETATM   35  N   UNL     1      -9.770  14.220  65.206  1.00  0.00    -0.148 NA 
HETATM   36  N   UNL     1     -10.894  12.374  64.292  1.00  0.00    -0.327 NA 
HETATM   37  S   UNL     1     -12.147  14.726  64.367  1.00  0.00    -0.341 SA 
HETATM   38  C   UNL     1     -10.814  13.670  64.627  1.00  0.00    -0.407 A  
ENDBRANCH  30  31
BRANCH  30  39
HETATM   39  N   UNL     1      -8.538  17.299  65.752  1.00  0.00    -0.497 NA 
HETATM   40  H   UNL     1      -7.871  17.034  65.028  1.00  0.00     0.000 HD 
BRANCH  39  41
HETATM   41  O   UNL     1      -8.730  18.653  66.032  1.00  0.00    -0.491 OA 
HETATM   42  C   UNL     1      -7.676  19.593  65.968  1.00  0.00    -0.326 C  
ENDBRANCH  39  41
ENDBRANCH  30  39
ENDBRANCH  28  30
ENDBRANCH   6  26
TORSDOF 8
ENDMDL
MODEL       24
REMARK 921   NORMALIZED FREE ENERGY PREDICTED BY IDOCK:   -7.15 KCAL/MOL
REMARK 922        TOTAL FREE ENERGY PREDICTED BY IDOCK:  -11.76 KCAL/MOL
REMARK 923 INTER-LIGAND FREE ENERGY PREDICTED BY IDOCK:  -10.76 KCAL/MOL
REMARK 924 INTRA-LIGAND FREE ENERGY PREDICTED BY IDOCK:   -1.00 KCAL/MOL
REMARK 927      BINDING AFFINITY PREDICTED BY RF-SCORE:    0.00 PKD
ROOT
HETATM    1  C   UNL     1     -11.670  14.546  68.533  1.00  0.00    -0.318 C  
HETATM    2  S   UNL     1     -11.434  13.114  67.517  1.00  0.00    -0.349 SA 
HETATM    3  C   UNL     1     -11.815  11.710  68.630  1.00  0.00    -0.308 C  
HETATM    4  C   UNL     1     -12.293  11.986  70.028  1.00  0.00    -0.179 C  
HETATM    5  CA  UNL     1     -12.435  13.239  70.559  1.00  0.00    -0.260 C  
HETATM    6  CA  UNL     1     -10.686  15.706  68.993  1.00  0.00    -0.236 C  
HETATM    7  C   UNL     1     -11.519  15.575  70.307  1.00  0.00    -0.334 C  
HETATM    8  N   UNL     1     -12.007  14.369  69.915  1.00  0.00    -0.314 N  
HETATM    9  C   UNL     1     -13.076  13.387  71.913  1.00  0.00    -0.383 C  
HETATM   10  O   UNL     1     -11.491  16.153  71.367  1.00  0.00    -0.421 OA 
HETATM   11  O   UNL     1     -12.579  14.323  72.745  1.00  0.00    -0.300 OA 
HETATM   12  OXT UNL     1     -14.030  12.707  72.259  1.00  0.00    -0.361 OA 
ENDROOT
BRANCH   4  13
HETATM   13  C   UNL     1     -12.558  10.728  70.909  1.00  0.00    -0.401 C  
BRANCH  13  14
HETATM   14  S   UNL     1     -11.173   9.624  71.396  1.00  0.00    -0.289 SA 
BRANCH  14  15
HETATM   15  C   UNL     1     -11.063   8.362  70.144  1.00  0.00    -0.182 C  
HETATM   16  N   UNL     1     -10.604   8.763  69.010  1.00  0.00    -0.326 N  
HETATM   17  H   UNL     1     -10.224   9.702  68.888  1.00  0.00     0.000 HD 
HETATM   18  C   UNL     1     -12.253   6.642  71.604  1.00  0.00    -0.352 C  
HETATM   19  C   UNL     1     -10.652   7.862  67.967  1.00  0.00    -0.132 C  
HETATM   20  N   UNL     1     -11.561   7.082  70.406  1.00  0.00    -0.309 NA 
HETATM   21  C   UNL     1     -10.812   6.363  68.219  1.00  0.00    -0.309 C  
HETATM   22  O   UNL     1     -10.681   8.199  66.783  1.00  0.00    -0.278 OA 
HETATM   23  H   UNL     1     -11.935   5.196  69.517  1.00  0.00     0.000 HD 
HETATM   24  N   UNL     1     -11.485   6.102  69.384  1.00  0.00    -0.357 N  
HETATM   25  O   UNL     1     -10.433   5.497  67.447  1.00  0.00    -0.218 OA 
ENDBRANCH  14  15
ENDBRANCH  13  14
ENDBRANCH   4  13
BRANCH   6  26
HETATM   26  N   UNL     1      -9.182  15.798  69.286  1.00  0.00    -0.255 N  
HETATM   27  O   UNL     1      -7.017  16.503  69.322  1.00  0.00    -0.215 OA 
HETATM   28  C   UNL     1      -8.180  16.741  69.004  1.00  0.00    -0.172 C  
HETATM   29  H   UNL     1      -8.831  14.993  69.803  1.00  0.00     0.000 HD 
BRANCH  28  30
HETATM   30  C   UNL     1      -8.492  18.124  68.499  1.00  0.00    -0.299 C  
BRANCH  30  31
HETATM   31  C   UNL     1      -9.155  18.416  67.221  1.00  0.00    -0.266 A  
HETATM   32  H2  UNL     1     -11.759  17.656  63.912  1.00  0.00     0.000 HD 
HETATM   33  C   UNL     1      -9.651  19.677  66.934  1.00  0.00    -0.359 A  
HETATM   34  H1  UNL     1     -10.952  16.191  64.473  1.00  0.00     0.000 HD 
HETATM   35  N   UNL     1      -9.639  17.412  66.367  1.00  0.00    -0.305 NA 
HETATM   36  N   UNL     1     -11.107  17.196  64.548  1.00  0.00    -0.979 NA 
HETATM   37  S   UNL     1     -10.722  19.614  65.602  1.00  0.00    -0.132 SA 
HETATM   38  C   UNL     1     -10.461  17.920  65.476  1.00  0.00     0.004 A  
ENDBRANCH  30  31
BRANCH  30  39
HETATM   39  N   UNL     1      -8.010  19.198  69.031  1.00  0.00    -0.296 NA 
HETATM   40  H   UNL     1      -8.625  19.795  69.583  1.00  0.00     0.000 HD 
BRANCH  39  41
HETATM   41  O   UNL     1      -6.674  19.566  68.874  1.00  0.00    -0.283 OA 
HETATM   42  C   UNL     1      -5.824  19.814  69.977  1.00  0.00    -0.285 C  
ENDBRANCH  39  41
ENDBRANCH  30  39
ENDBRANCH  28  30
ENDBRANCH   6  26
TORSDOF 8
ENDMDL
MODEL       25
REMARK 921   NORMALIZED FREE ENERGY PREDICTED BY IDOCK:   -7.14 KCAL/MOL
REMARK 922        TOTAL FREE ENERGY PREDICTED BY IDOCK:  -11.73 KCAL/MOL
REMARK 923 INTER-LIGAND FREE ENERGY PREDICTED BY IDOCK:  -10.52 KCAL/MOL
REMARK 924 INTRA-LIGAND FREE ENERGY PREDICTED BY IDOCK:   -1.22 KCAL/MOL
REMARK 927      BINDING AFFINITY PREDICTED BY RF-SCORE:    0.00 PKD
ROOT
HETATM    1  C   UNL     1     -11.783  11.279  68.866  1.00  0.00    -0.341 C  
HETATM    2  S   UNL     1     -12.174  12.838  69.611  1.00  0.00    -0.043 SA 
HETATM    3  C   UNL     1     -12.012  14.041  68.239  1.00  0.00    -0.349 C  
HETATM    4  C   UNL     1     -11.698  13.544  66.857  1.00  0.00    -0.424 C  
HETATM    5  CA  UNL     1     -11.483  12.230  66.542  1.00  0.00    -0.381 C  
HETATM    6  CA  UNL     1     -10.642  10.212  69.152  1.00  0.00    -0.224 C  
HETATM    7  C   UNL     1     -10.697  10.079  67.598  1.00  0.00    -0.284 C  
HETATM    8  N   UNL     1     -11.381  11.249  67.491  1.00  0.00    -0.299 N  
HETATM    9  C   UNL     1     -11.338  11.842  65.094  1.00  0.00    -0.269 C  
HETATM   10  O   UNL     1     -10.104   9.390  66.804  1.00  0.00    -0.222 OA 
HETATM   11  O   UNL     1     -10.438  10.889  64.785  1.00  0.00    -0.328 OA 
HETATM   12  OXT UNL     1     -12.019  12.348  64.215  1.00  0.00    -0.362 OA 
ENDROOT
BRANCH   4  13
HETATM   13  C   UNL     1     -11.546  14.646  65.765  1.00  0.00    -0.328 C  
BRANCH  13  14
HETATM   14  S   UNL     1      -9.938  15.499  65.520  1.00  0.00    -0.313 SA 
BRANCH  14  15
HETATM   15  C   UNL     1      -9.918  16.878  66.645  1.00  0.00    -0.296 C  
HETATM   16  N   UNL     1     -10.394  17.974  66.168  1.00  0.00    -0.396 N  
HETATM   17  H   UNL     1     -10.854  18.006  65.258  1.00  0.00     0.000 HD 
HETATM   18  C   UNL     1      -8.602  15.578  68.402  1.00  0.00    -0.168 C  
HETATM   19  C   UNL     1     -10.253  19.104  66.946  1.00  0.00    -0.395 C  
HETATM   20  N   UNL     1      -9.313  16.740  67.898  1.00  0.00    -0.227 NA 
HETATM   21  C   UNL     1      -9.965  19.006  68.443  1.00  0.00    -0.408 C  
HETATM   22  O   UNL     1     -10.237  20.246  66.484  1.00  0.00    -0.430 OA 
HETATM   23  H   UNL     1      -8.761  17.812  69.641  1.00  0.00     0.000 HD 
HETATM   24  N   UNL     1      -9.287  17.859  68.768  1.00  0.00    -0.265 N  
HETATM   25  O   UNL     1     -10.254  19.873  69.253  1.00  0.00    -0.374 OA 
ENDBRANCH  14  15
ENDBRANCH  13  14
ENDBRANCH   4  13
BRANCH   6  26
HETATM   26  N   UNL     1      -9.195  10.283  69.660  1.00  0.00    -0.369 N  
HETATM   27  O   UNL     1      -7.289   9.899  70.847  1.00  0.00    -0.328 OA 
HETATM   28  C   UNL     1      -8.445   9.559  70.602  1.00  0.00    -0.115 C  
HETATM   29  H   UNL     1      -8.656  11.024  69.213  1.00  0.00     0.000 HD 
BRANCH  28  30
HETATM   30  C   UNL     1      -8.925   8.260  71.189  1.00  0.00    -0.158 C  
BRANCH  30  31
HETATM   31  C   UNL     1     -10.318   7.976  71.560  1.00  0.00    -0.209 A  
HETATM   32  H2  UNL     1     -14.430   8.907  72.286  1.00  0.00     0.000 HD 
HETATM   33  C   UNL     1     -10.967   6.834  71.118  1.00  0.00    -0.257 A  
HETATM   34  H1  UNL     1     -13.354  10.208  72.796  1.00  0.00     0.000 HD 
HETATM   35  N   UNL     1     -11.186   8.955  72.070  1.00  0.00    -0.368 NA 
HETATM   36  N   UNL     1     -13.487   9.280  72.395  1.00  0.00    -0.471 NA 
HETATM   37  S   UNL     1     -12.657   6.979  71.336  1.00  0.00    -0.361 SA 
HETATM   38  C   UNL     1     -12.433   8.544  72.011  1.00  0.00    -0.363 A  
ENDBRANCH  30  31
BRANCH  30  39
HETATM   39  N   UNL     1      -8.128   7.346  71.634  1.00  0.00    -0.098 NA 
HETATM   40  H   UNL     1      -7.630   6.757  70.967  1.00  0.00     0.000 HD 
BRANCH  39  41
HETATM   41  O   UNL     1      -7.928   7.139  72.999  1.00  0.00    -0.099 OA 
HETATM   42  C   UNL     1      -7.717   8.208  73.901  1.00  0.00    -0.192 C  
ENDBRANCH  39  41
ENDBRANCH  30  39
ENDBRANCH  28  30
ENDBRANCH   6  26
TORSDOF 8
ENDMDL
MODEL       26
REMARK 921   NORMALIZED FREE ENERGY PREDICTED BY IDOCK:   -7.13 KCAL/MOL
REMARK 922        TOTAL FREE ENERGY PREDICTED BY IDOCK:  -11.73 KCAL/MOL
REMARK 923 INTER-LIGAND FREE ENERGY PREDICTED BY IDOCK:  -10.30 KCAL/MOL
REMARK 924 INTRA-LIGAND FREE ENERGY PREDICTED BY IDOCK:   -1.43 KCAL/MOL
REMARK 927      BINDING AFFINITY PREDICTED BY RF-SCORE:    0.00 PKD
ROOT
HETATM    1  C   UNL     1     -12.625  12.572  70.194  1.00  0.00     0.114 C  
HETATM    2  S   UNL     1     -12.426  13.992  71.235  1.00  0.00    -0.360 SA 
HETATM    3  C   UNL     1     -11.640  15.237  70.146  1.00  0.00    -0.299 C  
HETATM    4  C   UNL     1     -11.407  14.908  68.699  1.00  0.00    -0.309 C  
HETATM    5  CA  UNL     1     -11.711  13.704  68.125  1.00  0.00    -0.357 C  
HETATM    6  CA  UNL     1     -12.054  11.091  70.281  1.00  0.00    -0.362 C  
HETATM    7  C   UNL     1     -11.989  11.272  68.733  1.00  0.00    -0.282 C  
HETATM    8  N   UNL     1     -12.122  12.619  68.852  1.00  0.00    -0.209 N  
HETATM    9  C   UNL     1     -11.580  13.555  66.631  1.00  0.00    -0.363 C  
HETATM   10  O   UNL     1     -11.645  10.550  67.828  1.00  0.00    -0.462 OA 
HETATM   11  O   UNL     1     -11.117  12.383  66.155  1.00  0.00    -0.277 OA 
HETATM   12  OXT UNL     1     -11.896  14.447  65.859  1.00  0.00    -0.368 OA 
ENDROOT
BRANCH   4  13
HETATM   13  C   UNL     1     -10.701  16.018  67.862  1.00  0.00    -0.316 C  
BRANCH  13  14
HETATM   14  S   UNL     1     -10.460  17.700  68.561  1.00  0.00    -0.293 SA 
BRANCH  14  15
HETATM   15  C   UNL     1      -9.015  18.376  67.771  1.00  0.00    -0.281 C  
HETATM   16  N   UNL     1      -7.898  18.065  68.327  1.00  0.00    -0.278 N  
HETATM   17  H   UNL     1      -7.849  17.386  69.087  1.00  0.00     0.000 HD 
HETATM   18  C   UNL     1     -10.408  19.782  66.161  1.00  0.00    -0.524 C  
HETATM   19  C   UNL     1      -6.767  18.693  67.847  1.00  0.00    -0.215 C  
HETATM   20  N   UNL     1      -9.164  19.261  66.699  1.00  0.00    -0.323 NA 
HETATM   21  C   UNL     1      -6.755  19.365  66.474  1.00  0.00    -0.190 C  
HETATM   22  O   UNL     1      -5.747  18.854  68.517  1.00  0.00    -0.203 OA 
HETATM   23  H   UNL     1      -8.086  20.532  65.390  1.00  0.00     0.000 HD 
HETATM   24  N   UNL     1      -7.999  19.807  66.101  1.00  0.00    -0.335 N  
HETATM   25  O   UNL     1      -5.748  19.539  65.808  1.00  0.00    -0.156 OA 
ENDBRANCH  14  15
ENDBRANCH  13  14
ENDBRANCH   4  13
BRANCH   6  26
HETATM   26  N   UNL     1     -10.768  10.457  70.829  1.00  0.00    -0.308 N  
HETATM   27  O   UNL     1      -9.205   8.932  71.477  1.00  0.00    -0.243 OA 
HETATM   28  C   UNL     1     -10.276   9.144  70.909  1.00  0.00    -0.282 C  
HETATM   29  H   UNL     1     -10.126  11.143  71.224  1.00  0.00     0.000 HD 
BRANCH  28  30
HETATM   30  C   UNL     1     -10.903   7.998  70.161  1.00  0.00    -0.242 C  
BRANCH  30  31
HETATM   31  C   UNL     1     -10.349   7.395  68.943  1.00  0.00    -0.206 A  
HETATM   32  H2  UNL     1     -10.466   5.178  65.284  1.00  0.00     0.000 HD 
HETATM   33  C   UNL     1      -9.429   8.067  68.155  1.00  0.00    -0.143 A  
HETATM   34  H1  UNL     1     -11.547   4.504  66.505  1.00  0.00     0.000 HD 
HETATM   35  N   UNL     1     -10.936   6.290  68.304  1.00  0.00    -0.322 NA 
HETATM   36  N   UNL     1     -10.857   5.202  66.226  1.00  0.00    -0.233 NA 
HETATM   37  S   UNL     1      -9.295   7.326  66.619  1.00  0.00    -0.169 SA 
HETATM   38  C   UNL     1     -10.458   6.150  67.088  1.00  0.00    -0.264 A  
ENDBRANCH  30  31
BRANCH  30  39
HETATM   39  N   UNL     1     -12.104   7.578  70.386  1.00  0.00    -0.510 NA 
HETATM   40  H   UNL     1     -12.547   6.961  69.706  1.00  0.00     0.000 HD 
BRANCH  39  41
HETATM   41  O   UNL     1     -12.812   7.943  71.531  1.00  0.00    -0.320 OA 
HETATM   42  C   UNL     1     -14.215   8.124  71.525  1.00  0.00    -0.409 C  
ENDBRANCH  39  41
ENDBRANCH  30  39
ENDBRANCH  28  30
ENDBRANCH   6  26
TORSDOF 8
ENDMDL
MODEL       27
REMARK 921   NORMALIZED FREE ENERGY PREDICTED BY IDOCK:   -7.13 KCAL/MOL
REMARK 922        TOTAL FREE ENERGY PREDICTED BY IDOCK:  -11.73 KCAL/MOL
REMARK 923 INTER-LIGAND FREE ENERGY PREDICTED BY IDOCK:   -9.47 KCAL/MOL
REMARK 924 INTRA-LIGAND FREE ENERGY PREDICTED BY IDOCK:   -2.26 KCAL/MOL
REMARK 927      BINDING AFFINITY PREDICTED BY RF-SCORE:    0.00 PKD
ROOT
HETATM    1  C   UNL     1      -7.580   9.932  70.071  1.00  0.00    -0.172 C  
HETATM    2  S   UNL     1      -7.194  11.236  68.935  1.00  0.00    -0.118 SA 
HETATM    3  C   UNL     1      -8.826  11.773  68.301  1.00  0.00    -0.172 C  
HETATM    4  C   UNL     1     -10.075  11.147  68.855  1.00  0.00    -0.199 C  
HETATM    5  CA  UNL     1     -10.085  10.154  69.797  1.00  0.00    -0.231 C  
HETATM    6  CA  UNL     1      -7.187   8.393  70.107  1.00  0.00    -0.050 C  
HETATM    7  C   UNL     1      -8.643   8.272  70.657  1.00  0.00    -0.136 C  
HETATM    8  N   UNL     1      -8.945   9.523  70.219  1.00  0.00    -0.238 N  
HETATM    9  C   UNL     1     -11.401   9.725  70.389  1.00  0.00    -0.297 C  
HETATM   10  O   UNL     1      -9.313   7.340  71.030  1.00  0.00    -0.158 OA 
HETATM   11  O   UNL     1     -11.578   8.414  70.645  1.00  0.00    -0.270 OA 
HETATM   12  OXT UNL     1     -12.285  10.525  70.655  1.00  0.00    -0.294 OA 
ENDROOT
BRANCH   4  13
HETATM   13  C   UNL     1     -11.412  11.644  68.228  1.00  0.00    -0.303 C  
BRANCH  13  14
HETATM   14  S   UNL     1     -12.024  13.343  68.565  1.00  0.00    -0.265 SA 
BRANCH  14  15
HETATM   15  C   UNL     1     -11.789  14.275  67.066  1.00  0.00    -0.428 C  
HETATM   16  N   UNL     1     -12.566  13.943  66.095  1.00  0.00    -0.432 N  
HETATM   17  H   UNL     1     -13.332  13.282  66.225  1.00  0.00     0.000 HD 
HETATM   18  C   UNL     1      -9.736  15.473  67.991  1.00  0.00    -0.207 C  
HETATM   19  C   UNL     1     -12.314  14.526  64.870  1.00  0.00    -0.370 C  
HETATM   20  N   UNL     1     -10.747  15.203  66.984  1.00  0.00    -0.302 NA 
HETATM   21  C   UNL     1     -11.477  15.798  64.754  1.00  0.00    -0.255 C  
HETATM   22  O   UNL     1     -12.641  14.015  63.799  1.00  0.00    -0.772 OA 
HETATM   23  H   UNL     1      -9.751  16.518  65.655  1.00  0.00     0.000 HD 
HETATM   24  N   UNL     1     -10.565  15.915  65.772  1.00  0.00    -0.348 N  
HETATM   25  O   UNL     1     -11.568  16.594  63.833  1.00  0.00    -1.204 OA 
ENDBRANCH  14  15
ENDBRANCH  13  14
ENDBRANCH   4  13
BRANCH   6  26
HETATM   26  N   UNL     1      -6.895   7.324  69.045  1.00  0.00    -0.062 N  
HETATM   27  O   UNL     1      -7.117   5.893  67.287  1.00  0.00    -0.070 OA 
HETATM   28  C   UNL     1      -7.594   6.823  67.935  1.00  0.00    -0.107 C  
HETATM   29  H   UNL     1      -5.989   6.876  69.175  1.00  0.00     0.000 HD 
BRANCH  28  30
HETATM   30  C   UNL     1      -8.817   7.500  67.378  1.00  0.00    -0.127 C  
BRANCH  30  31
HETATM   31  C   UNL     1      -8.801   8.494  66.296  1.00  0.00    -0.156 A  
HETATM   32  H2  UNL     1     -10.150  11.929  64.131  1.00  0.00     0.000 HD 
HETATM   33  C   UNL     1      -7.615   9.042  65.834  1.00  0.00    -0.094 A  
HETATM   34  H1  UNL     1     -11.489  11.008  64.817  1.00  0.00     0.000 HD 
HETATM   35  N   UNL     1      -9.944   9.207  65.898  1.00  0.00    -0.257 NA 
HETATM   36  N   UNL     1     -10.487  11.128  64.665  1.00  0.00    -0.327 NA 
HETATM   37  S   UNL     1      -7.922  10.445  64.905  1.00  0.00    -0.069 SA 
HETATM   38  C   UNL     1      -9.610  10.242  65.161  1.00  0.00    -0.277 A  
ENDBRANCH  30  31
BRANCH  30  39
HETATM   39  N   UNL     1      -9.977   7.445  67.943  1.00  0.00    -0.158 NA 
HETATM   40  H   UNL     1     -10.204   8.118  68.674  1.00  0.00     0.000 HD 
BRANCH  39  41
HETATM   41  O   UNL     1     -10.930   6.491  67.583  1.00  0.00    -0.304 OA 
HETATM   42  C   UNL     1     -10.708   5.557  66.544  1.00  0.00    -0.240 C  
ENDBRANCH  39  41
ENDBRANCH  30  39
ENDBRANCH  28  30
ENDBRANCH   6  26
TORSDOF 8
ENDMDL
MODEL       28
REMARK 921   NORMALIZED FREE ENERGY PREDICTED BY IDOCK:   -7.12 KCAL/MOL
REMARK 922        TOTAL FREE ENERGY PREDICTED BY IDOCK:  -11.71 KCAL/MOL
REMARK 923 INTER-LIGAND FREE ENERGY PREDICTED BY IDOCK:  -10.17 KCAL/MOL
REMARK 924 INTRA-LIGAND FREE ENERGY PREDICTED BY IDOCK:   -1.54 KCAL/MOL
REMARK 927      BINDING AFFINITY PREDICTED BY RF-SCORE:    0.00 PKD
ROOT
HETATM    1  C   UNL     1     -11.173  10.343  68.503  1.00  0.00    -0.251 C  
HETATM    2  S   UNL     1     -10.202   8.862  68.421  1.00  0.00    -0.201 SA 
HETATM    3  C   UNL     1     -10.458   8.071  70.053  1.00  0.00    -0.228 C  
HETATM    4  C   UNL     1     -11.408   8.696  71.035  1.00  0.00    -0.322 C  
HETATM    5  CA  UNL     1     -12.087   9.862  70.812  1.00  0.00    -0.308 C  
HETATM    6  CA  UNL     1     -10.790  11.881  68.396  1.00  0.00    -0.228 C  
HETATM    7  C   UNL     1     -11.907  11.996  69.481  1.00  0.00    -0.326 C  
HETATM    8  N   UNL     1     -11.851  10.660  69.725  1.00  0.00    -0.297 N  
HETATM    9  C   UNL     1     -13.132  10.297  71.806  1.00  0.00    -0.465 C  
HETATM   10  O   UNL     1     -12.391  12.928  70.076  1.00  0.00    -0.234 OA 
HETATM   11  O   UNL     1     -13.232  11.614  72.075  1.00  0.00    -0.501 OA 
HETATM   12  OXT UNL     1     -13.886   9.503  72.347  1.00  0.00    -0.424 OA 
ENDROOT
BRANCH   4  13
HETATM   13  C   UNL     1     -11.531   7.967  72.408  1.00  0.00    -0.389 C  
BRANCH  13  14
HETATM   14  S   UNL     1     -10.042   7.281  73.235  1.00  0.00    -0.331 SA 
BRANCH  14  15
HETATM   15  C   UNL     1      -9.972   5.554  72.807  1.00  0.00    -0.170 C  
HETATM   16  N   UNL     1     -10.933   4.840  73.279  1.00  0.00    -0.289 N  
HETATM   17  H   UNL     1     -11.729   5.263  73.756  1.00  0.00     0.000 HD 
HETATM   18  C   UNL     1      -7.680   5.795  71.715  1.00  0.00    -0.101 C  
HETATM   19  C   UNL     1     -10.836   3.475  73.107  1.00  0.00    -0.149 C  
HETATM   20  N   UNL     1      -8.870   5.060  72.103  1.00  0.00    -0.128 NA 
HETATM   21  C   UNL     1      -9.905   2.872  72.056  1.00  0.00    -0.172 C  
HETATM   22  O   UNL     1     -11.391   2.660  73.844  1.00  0.00    -0.191 OA 
HETATM   23  H   UNL     1      -7.986   3.277  71.377  1.00  0.00     0.000 HD 
HETATM   24  N   UNL     1      -8.825   3.676  71.795  1.00  0.00    -0.097 N  
HETATM   25  O   UNL     1     -10.070   1.775  71.546  1.00  0.00    -0.142 OA 
ENDBRANCH  14  15
ENDBRANCH  13  14
ENDBRANCH   4  13
BRANCH   6  26
HETATM   26  N   UNL     1      -9.558  12.719  68.766  1.00  0.00    -0.412 N  
HETATM   27  O   UNL     1      -8.110  14.460  69.006  1.00  0.00    -0.128 OA 
HETATM   28  C   UNL     1      -9.234  14.083  68.679  1.00  0.00    -0.119 C  
HETATM   29  H   UNL     1      -8.805  12.159  69.164  1.00  0.00     0.000 HD 
BRANCH  28  30
HETATM   30  C   UNL     1     -10.263  15.141  68.385  1.00  0.00    -0.221 C  
BRANCH  30  31
HETATM   31  C   UNL     1     -10.258  16.002  67.196  1.00  0.00    -0.278 A  
HETATM   32  H2  UNL     1     -11.697  17.493  63.452  1.00  0.00     0.000 HD 
HETATM   33  C   UNL     1      -9.973  17.355  67.281  1.00  0.00    -0.302 A  
HETATM   34  H1  UNL     1     -11.913  15.748  63.600  1.00  0.00     0.000 HD 
HETATM   35  N   UNL     1     -10.861  15.630  65.983  1.00  0.00    -0.305 NA 
HETATM   36  N   UNL     1     -11.585  16.632  63.989  1.00  0.00    -1.119 NA 
HETATM   37  S   UNL     1     -10.455  18.165  65.854  1.00  0.00    -0.136 SA 
HETATM   38  C   UNL     1     -11.008  16.674  65.199  1.00  0.00    -0.151 A  
ENDBRANCH  30  31
BRANCH  30  39
HETATM   39  N   UNL     1     -11.125  15.551  69.255  1.00  0.00    -0.264 NA 
HETATM   40  H   UNL     1     -12.093  15.691  68.965  1.00  0.00     0.000 HD 
BRANCH  39  41
HETATM   41  O   UNL     1     -10.774  15.808  70.581  1.00  0.00    -0.303 OA 
HETATM   42  C   UNL     1     -11.741  15.963  71.602  1.00  0.00    -0.485 C  
ENDBRANCH  39  41
ENDBRANCH  30  39
ENDBRANCH  28  30
ENDBRANCH   6  26
TORSDOF 8
ENDMDL
MODEL       29
REMARK 921   NORMALIZED FREE ENERGY PREDICTED BY IDOCK:   -7.11 KCAL/MOL
REMARK 922        TOTAL FREE ENERGY PREDICTED BY IDOCK:  -11.69 KCAL/MOL
REMARK 923 INTER-LIGAND FREE ENERGY PREDICTED BY IDOCK:   -9.32 KCAL/MOL
REMARK 924 INTRA-LIGAND FREE ENERGY PREDICTED BY IDOCK:   -2.37 KCAL/MOL
REMARK 927      BINDING AFFINITY PREDICTED BY RF-SCORE:    0.00 PKD
ROOT
HETATM    1  C   UNL     1     -12.259  12.730  69.644  1.00  0.00    -0.126 C  
HETATM    2  S   UNL     1     -11.940  14.274  70.452  1.00  0.00    -0.337 SA 
HETATM    3  C   UNL     1     -11.418  15.388  69.095  1.00  0.00    -0.333 C  
HETATM    4  C   UNL     1     -11.433  14.883  67.680  1.00  0.00    -0.366 C  
HETATM    5  CA  UNL     1     -11.783  13.610  67.321  1.00  0.00    -0.380 C  
HETATM    6  CA  UNL     1     -11.618  11.285  69.802  1.00  0.00    -0.333 C  
HETATM    7  C   UNL     1     -11.840  11.270  68.258  1.00  0.00    -0.229 C  
HETATM    8  N   UNL     1     -12.008  12.618  68.237  1.00  0.00    -0.290 N  
HETATM    9  C   UNL     1     -11.916  13.277  65.858  1.00  0.00    -0.419 C  
HETATM   10  O   UNL     1     -11.632  10.447  67.399  1.00  0.00    -0.295 OA 
HETATM   11  O   UNL     1     -11.495  12.063  65.450  1.00  0.00    -0.340 OA 
HETATM   12  OXT UNL     1     -12.404  14.057  65.055  1.00  0.00    -0.414 OA 
ENDROOT
BRANCH   4  13
HETATM   13  C   UNL     1     -10.939  15.894  66.600  1.00  0.00    -0.136 C  
BRANCH  13  14
HETATM   14  S   UNL     1      -9.169  15.943  66.112  1.00  0.00    -0.346 SA 
BRANCH  14  15
HETATM   15  C   UNL     1      -8.315  14.802  67.179  1.00  0.00    -0.214 C  
HETATM   16  N   UNL     1      -8.371  13.570  66.809  1.00  0.00    -0.419 N  
HETATM   17  H   UNL     1      -8.771  13.299  65.911  1.00  0.00     0.000 HD 
HETATM   18  C   UNL     1      -7.821  16.607  68.912  1.00  0.00    -0.240 C  
HETATM   19  C   UNL     1      -7.861  12.635  67.686  1.00  0.00    -0.162 C  
HETATM   20  N   UNL     1      -7.745  15.262  68.370  1.00  0.00    -0.120 NA 
HETATM   21  C   UNL     1      -6.901  13.035  68.804  1.00  0.00    -0.102 C  
HETATM   22  O   UNL     1      -8.222  11.458  67.703  1.00  0.00    -0.121 OA 
HETATM   23  H   UNL     1      -6.762  14.623  70.134  1.00  0.00     0.000 HD 
HETATM   24  N   UNL     1      -7.092  14.330  69.215  1.00  0.00    -0.125 N  
HETATM   25  O   UNL     1      -6.092  12.277  69.314  1.00  0.00    -0.079 OA 
ENDBRANCH  14  15
ENDBRANCH  13  14
ENDBRANCH   4  13
BRANCH   6  26
HETATM   26  N   UNL     1     -10.228  10.752  70.177  1.00  0.00    -0.310 N  
HETATM   27  O   UNL     1      -8.540   9.390  70.872  1.00  0.00    -0.233 OA 
HETATM   28  C   UNL     1      -9.726   9.499  70.567  1.00  0.00    -0.263 C  
HETATM   29  H   UNL     1      -9.505  11.470  70.132  1.00  0.00     0.000 HD 
BRANCH  28  30
HETATM   30  C   UNL     1     -10.531   8.233  70.445  1.00  0.00    -0.215 C  
BRANCH  30  31
HETATM   31  C   UNL     1     -10.660   7.222  71.502  1.00  0.00    -0.203 A  
HETATM   32  H2  UNL     1     -10.074   3.403  73.342  1.00  0.00     0.000 HD 
HETATM   33  C   UNL     1     -10.526   7.551  72.841  1.00  0.00    -0.318 A  
HETATM   34  H1  UNL     1     -10.307   3.272  71.598  1.00  0.00     0.000 HD 
HETATM   35  N   UNL     1     -10.579   5.842  71.250  1.00  0.00    -0.242 NA 
HETATM   36  N   UNL     1     -10.248   3.846  72.439  1.00  0.00    -0.173 NA 
HETATM   37  S   UNL     1     -10.297   6.145  73.787  1.00  0.00    -0.292 SA 
HETATM   38  C   UNL     1     -10.397   5.178  72.370  1.00  0.00    -0.204 A  
ENDBRANCH  30  31
BRANCH  30  39
HETATM   39  N   UNL     1     -11.005   7.801  69.324  1.00  0.00    -0.427 NA 
HETATM   40  H   UNL     1     -12.002   7.597  69.254  1.00  0.00     0.000 HD 
BRANCH  39  41
HETATM   41  O   UNL     1     -10.195   7.605  68.205  1.00  0.00    -0.183 OA 
HETATM   42  C   UNL     1     -10.613   6.830  67.098  1.00  0.00    -0.331 C  
ENDBRANCH  39  41
ENDBRANCH  30  39
ENDBRANCH  28  30
ENDBRANCH   6  26
TORSDOF 8
ENDMDL
MODEL       30
REMARK 921   NORMALIZED FREE ENERGY PREDICTED BY IDOCK:   -7.10 KCAL/MOL
REMARK 922        TOTAL FREE ENERGY PREDICTED BY IDOCK:  -11.68 KCAL/MOL
REMARK 923 INTER-LIGAND FREE ENERGY PREDICTED BY IDOCK:  -10.60 KCAL/MOL
REMARK 924 INTRA-LIGAND FREE ENERGY PREDICTED BY IDOCK:   -1.08 KCAL/MOL
REMARK 927      BINDING AFFINITY PREDICTED BY RF-SCORE:    0.00 PKD
ROOT
HETATM    1  C   UNL     1     -11.815  12.301  68.114  1.00  0.00    -0.311 C  
HETATM    2  S   UNL     1     -10.820  10.950  67.545  1.00  0.00    -0.290 SA 
HETATM    3  C   UNL     1     -10.687   9.850  69.003  1.00  0.00    -0.222 C  
HETATM    4  C   UNL     1     -11.432  10.198  70.260  1.00  0.00    -0.381 C  
HETATM    5  CA  UNL     1     -12.195  11.323  70.416  1.00  0.00    -0.365 C  
HETATM    6  CA  UNL     1     -11.533  13.859  68.242  1.00  0.00    -0.311 C  
HETATM    7  C   UNL     1     -12.397  13.676  69.528  1.00  0.00    -0.182 C  
HETATM    8  N   UNL     1     -12.231  12.327  69.485  1.00  0.00    -0.160 N  
HETATM    9  C   UNL     1     -13.022  11.476  71.665  1.00  0.00    -0.394 C  
HETATM   10  O   UNL     1     -12.784  14.436  70.383  1.00  0.00    -0.346 OA 
HETATM   11  O   UNL     1     -13.121  12.706  72.206  1.00  0.00    -0.398 OA 
HETATM   12  OXT UNL     1     -13.607  10.534  72.176  1.00  0.00    -0.308 OA 
ENDROOT
BRANCH   4  13
HETATM   13  C   UNL     1     -11.228   9.220  71.456  1.00  0.00    -0.386 C  
BRANCH  13  14
HETATM   14  S   UNL     1     -12.071   7.587  71.479  1.00  0.00    -0.330 SA 
BRANCH  14  15
HETATM   15  C   UNL     1     -11.076   6.488  70.494  1.00  0.00    -0.319 C  
HETATM   16  N   UNL     1     -11.176   6.660  69.222  1.00  0.00    -0.502 N  
HETATM   17  H   UNL     1     -11.694   7.445  68.828  1.00  0.00     0.000 HD 
HETATM   18  C   UNL     1     -10.357   5.124  72.526  1.00  0.00    -0.204 C  
HETATM   19  C   UNL     1     -10.549   5.730  68.418  1.00  0.00    -0.220 C  
HETATM   20  N   UNL     1     -10.351   5.466  71.115  1.00  0.00    -0.229 NA 
HETATM   21  C   UNL     1      -9.447   4.824  68.964  1.00  0.00    -0.148 C  
HETATM   22  O   UNL     1     -10.899   5.491  67.263  1.00  0.00    -0.216 OA 
HETATM   23  H   UNL     1      -9.135   3.775  70.728  1.00  0.00     0.000 HD 
HETATM   24  N   UNL     1      -9.585   4.588  70.307  1.00  0.00    -0.174 N  
HETATM   25  O   UNL     1      -8.573   4.321  68.276  1.00  0.00    -0.092 OA 
ENDBRANCH  14  15
ENDBRANCH  13  14
ENDBRANCH   4  13
BRANCH   6  26
HETATM   26  N   UNL     1     -10.289  14.716  68.516  1.00  0.00    -0.232 N  
HETATM   27  O   UNL     1      -8.489  16.083  68.235  1.00  0.00    -0.169 OA 
HETATM   28  C   UNL     1      -9.488  15.566  67.737  1.00  0.00    -0.204 C  
HETATM   29  H   UNL     1      -9.974  14.654  69.484  1.00  0.00     0.000 HD 
BRANCH  28  30
HETATM   30  C   UNL     1      -9.900  16.033  66.367  1.00  0.00    -0.288 C  
BRANCH  30  31
HETATM   31  C   UNL     1     -10.426  15.158  65.311  1.00  0.00    -0.409 A  
HETATM   32  H2  UNL     1     -11.342  11.424  63.433  1.00  0.00     0.000 HD 
HETATM   33  C   UNL     1     -11.630  15.426  64.680  1.00  0.00    -0.311 A  
HETATM   34  H1  UNL     1      -9.808  11.372  64.302  1.00  0.00     0.000 HD 
HETATM   35  N   UNL     1      -9.962  13.848  65.104  1.00  0.00    -0.275 NA 
HETATM   36  N   UNL     1     -10.633  11.890  64.000  1.00  0.00    -0.335 NA 
HETATM   37  S   UNL     1     -12.186  14.050  63.831  1.00  0.00    -0.138 SA 
HETATM   38  C   UNL     1     -10.795  13.177  64.341  1.00  0.00    -0.397 A  
ENDBRANCH  30  31
BRANCH  30  39
HETATM   39  N   UNL     1      -9.625  17.207  65.906  1.00  0.00    -0.529 NA 
HETATM   40  H   UNL     1      -8.866  17.309  65.232  1.00  0.00     0.000 HD 
BRANCH  39  41
HETATM   41  O   UNL     1     -10.334  18.342  66.301  1.00  0.00    -0.389 OA 
HETATM   42  C   UNL     1      -9.835  19.651  66.106  1.00  0.00    -0.436 C  
ENDBRANCH  39  41
ENDBRANCH  30  39
ENDBRANCH  28  30
ENDBRANCH   6  26
TORSDOF 8
ENDMDL
MODEL       31
REMARK 921   NORMALIZED FREE ENERGY PREDICTED BY IDOCK:   -7.07 KCAL/MOL
REMARK 922        TOTAL FREE ENERGY PREDICTED BY IDOCK:  -11.64 KCAL/MOL
REMARK 923 INTER-LIGAND FREE ENERGY PREDICTED BY IDOCK:  -10.41 KCAL/MOL
REMARK 924 INTRA-LIGAND FREE ENERGY PREDICTED BY IDOCK:   -1.23 KCAL/MOL
REMARK 927      BINDING AFFINITY PREDICTED BY RF-SCORE:    0.00 PKD
ROOT
HETATM    1  C   UNL     1     -11.318  11.576  68.370  1.00  0.00    -0.279 C  
HETATM    2  S   UNL     1     -10.311  10.199  67.891  1.00  0.00    -0.210 SA 
HETATM    3  C   UNL     1     -10.439   9.041  69.305  1.00  0.00    -0.228 C  
HETATM    4  C   UNL     1     -11.342   9.380  70.457  1.00  0.00    -0.328 C  
HETATM    5  CA  UNL     1     -12.069  10.535  70.550  1.00  0.00    -0.345 C  
HETATM    6  CA  UNL     1     -10.990  13.113  68.604  1.00  0.00    -0.265 C  
HETATM    7  C   UNL     1     -12.038  12.925  69.745  1.00  0.00    -0.245 C  
HETATM    8  N   UNL     1     -11.927  11.573  69.667  1.00  0.00    -0.332 N  
HETATM    9  C   UNL     1     -13.060  10.683  71.674  1.00  0.00    -0.450 C  
HETATM   10  O   UNL     1     -12.510  13.673  70.567  1.00  0.00    -0.338 OA 
HETATM   11  O   UNL     1     -13.183  11.897  72.248  1.00  0.00    -0.451 OA 
HETATM   12  OXT UNL     1     -13.754   9.754  72.055  1.00  0.00    -0.358 OA 
ENDROOT
BRANCH   4  13
HETATM   13  C   UNL     1     -11.356   8.350  71.626  1.00  0.00    -0.286 C  
BRANCH  13  14
HETATM   14  S   UNL     1     -12.102   6.687  71.394  1.00  0.00    -0.306 SA 
BRANCH  14  15
HETATM   15  C   UNL     1     -10.751   5.532  71.306  1.00  0.00    -0.218 C  
HETATM   16  N   UNL     1     -10.318   5.294  70.117  1.00  0.00    -0.281 N  
HETATM   17  H   UNL     1     -10.651   5.823  69.311  1.00  0.00     0.000 HD 
HETATM   18  C   UNL     1     -10.898   4.985  73.793  1.00  0.00    -0.304 C  
HETATM   19  C   UNL     1      -9.382   4.289  69.986  1.00  0.00    -0.164 C  
HETATM   20  N   UNL     1     -10.317   4.884  72.467  1.00  0.00    -0.195 NA 
HETATM   21  C   UNL     1      -8.577   3.792  71.186  1.00  0.00    -0.076 C  
HETATM   22  O   UNL     1      -9.211   3.657  68.943  1.00  0.00    -0.133 OA 
HETATM   23  H   UNL     1      -8.994   3.391  73.179  1.00  0.00     0.000 HD 
HETATM   24  N   UNL     1      -9.255   3.949  72.367  1.00  0.00    -0.110 N  
HETATM   25  O   UNL     1      -7.480   3.264  71.101  1.00  0.00    -0.039 OA 
ENDBRANCH  14  15
ENDBRANCH  13  14
ENDBRANCH   4  13
BRANCH   6  26
HETATM   26  N   UNL     1      -9.762  13.896  69.089  1.00  0.00    -0.408 N  
HETATM   27  O   UNL     1      -8.345  15.596  69.627  1.00  0.00    -0.219 OA 
HETATM   28  C   UNL     1      -9.473  15.259  69.272  1.00  0.00    -0.242 C  
HETATM   29  H   UNL     1      -8.980  13.290  69.335  1.00  0.00     0.000 HD 
BRANCH  28  30
HETATM   30  C   UNL     1     -10.538  16.321  69.242  1.00  0.00    -0.293 C  
BRANCH  30  31
HETATM   31  C   UNL     1     -10.611  17.401  68.249  1.00  0.00    -0.366 A  
HETATM   32  H2  UNL     1      -9.721  21.244  66.590  1.00  0.00     0.000 HD 
HETATM   33  C   UNL     1     -10.570  17.139  66.889  1.00  0.00    -0.209 A  
HETATM   34  H1  UNL     1      -9.862  21.295  68.347  1.00  0.00     0.000 HD 
HETATM   35  N   UNL     1     -10.378  18.749  68.569  1.00  0.00    -0.327 NA 
HETATM   36  N   UNL     1      -9.899  20.768  67.475  1.00  0.00    -0.384 NA 
HETATM   37  S   UNL     1     -10.242  18.568  66.009  1.00  0.00    -0.267 SA 
HETATM   38  C   UNL     1     -10.180  19.456  67.480  1.00  0.00    -0.425 A  
ENDBRANCH  30  31
BRANCH  30  39
HETATM   39  N   UNL     1     -11.365  16.524  70.213  1.00  0.00    -0.463 NA 
HETATM   40  H   UNL     1     -12.159  17.146  70.065  1.00  0.00     0.000 HD 
BRANCH  39  41
HETATM   41  O   UNL     1     -11.205  15.916  71.459  1.00  0.00    -0.326 OA 
HETATM   42  C   UNL     1     -11.973  16.292  72.585  1.00  0.00    -0.546 C  
ENDBRANCH  39  41
ENDBRANCH  30  39
ENDBRANCH  28  30
ENDBRANCH   6  26
TORSDOF 8
ENDMDL
MODEL       32
REMARK 921   NORMALIZED FREE ENERGY PREDICTED BY IDOCK:   -7.07 KCAL/MOL
REMARK 922        TOTAL FREE ENERGY PREDICTED BY IDOCK:  -11.64 KCAL/MOL
REMARK 923 INTER-LIGAND FREE ENERGY PREDICTED BY IDOCK:   -9.73 KCAL/MOL
REMARK 924 INTRA-LIGAND FREE ENERGY PREDICTED BY IDOCK:   -1.91 KCAL/MOL
REMARK 927      BINDING AFFINITY PREDICTED BY RF-SCORE:    0.00 PKD
ROOT
HETATM    1  C   UNL     1      -7.807  10.142  68.794  1.00  0.00    -0.098 C  
HETATM    2  S   UNL     1      -7.200   9.796  70.422  1.00  0.00    -0.119 SA 
HETATM    3  C   UNL     1      -7.605   8.029  70.683  1.00  0.00    -0.076 C  
HETATM    4  C   UNL     1      -8.230   7.243  69.565  1.00  0.00    -0.131 C  
HETATM    5  CA  UNL     1      -8.562   7.769  68.347  1.00  0.00    -0.128 C  
HETATM    6  CA  UNL     1      -8.903  11.156  68.251  1.00  0.00    -0.155 C  
HETATM    7  C   UNL     1      -9.189   9.967  67.281  1.00  0.00    -0.141 C  
HETATM    8  N   UNL     1      -8.497   9.110  68.077  1.00  0.00    -0.121 N  
HETATM    9  C   UNL     1      -9.030   6.842  67.256  1.00  0.00    -0.118 C  
HETATM   10  O   UNL     1      -9.967   9.809  66.372  1.00  0.00    -0.217 OA 
HETATM   11  O   UNL     1     -10.015   7.274  66.444  1.00  0.00    -0.144 OA 
HETATM   12  OXT UNL     1      -8.535   5.739  67.084  1.00  0.00    -0.108 OA 
ENDROOT
BRANCH   4  13
HETATM   13  C   UNL     1      -8.568   5.758  69.895  1.00  0.00    -0.127 C  
BRANCH  13  14
HETATM   14  S   UNL     1     -10.301   5.250  70.234  1.00  0.00    -0.259 SA 
BRANCH  14  15
HETATM   15  C   UNL     1     -11.105   6.653  70.978  1.00  0.00    -0.282 C  
HETATM   16  N   UNL     1     -11.459   7.575  70.152  1.00  0.00    -0.471 N  
HETATM   17  H   UNL     1     -11.388   7.445  69.143  1.00  0.00     0.000 HD 
HETATM   18  C   UNL     1     -10.661   5.806  73.343  1.00  0.00    -0.258 C  
HETATM   19  C   UNL     1     -11.940   8.747  70.698  1.00  0.00    -0.054 C  
HETATM   20  N   UNL     1     -11.210   6.734  72.370  1.00  0.00    -0.255 NA 
HETATM   21  C   UNL     1     -12.443   8.804  72.140  1.00  0.00    -0.393 C  
HETATM   22  O   UNL     1     -11.895   9.832  70.117  1.00  0.00    -0.196 OA 
HETATM   23  H   UNL     1     -11.827   8.001  73.952  1.00  0.00     0.000 HD 
HETATM   24  N   UNL     1     -11.833   7.873  72.940  1.00  0.00    -0.239 N  
HETATM   25  O   UNL     1     -13.255   9.619  72.548  1.00  0.00    -0.378 OA 
ENDBRANCH  14  15
ENDBRANCH  13  14
ENDBRANCH   4  13
BRANCH   6  26
HETATM   26  N   UNL     1     -10.202  11.749  68.814  1.00  0.00    -0.329 N  
HETATM   27  O   UNL     1     -12.120  12.957  69.034  1.00  0.00    -0.267 OA 
HETATM   28  C   UNL     1     -11.202  12.593  68.302  1.00  0.00    -0.272 C  
HETATM   29  H   UNL     1     -10.380  11.467  69.778  1.00  0.00     0.000 HD 
BRANCH  28  30
HETATM   30  C   UNL     1     -11.310  12.920  66.837  1.00  0.00    -0.312 C  
BRANCH  30  31
HETATM   31  C   UNL     1     -10.757  14.126  66.209  1.00  0.00    -0.293 A  
HETATM   32  H2  UNL     1     -10.909  17.979  64.354  1.00  0.00     0.000 HD 
HETATM   33  C   UNL     1      -9.616  14.740  66.698  1.00  0.00    -0.272 A  
HETATM   34  H1  UNL     1     -12.261  16.955  63.870  1.00  0.00     0.000 HD 
HETATM   35  N   UNL     1     -11.494  14.931  65.324  1.00  0.00    -0.349 NA 
HETATM   36  N   UNL     1     -11.401  17.087  64.402  1.00  0.00    -1.052 NA 
HETATM   37  S   UNL     1      -9.459  16.319  66.060  1.00  0.00    -0.304 SA 
HETATM   38  C   UNL     1     -10.909  16.097  65.163  1.00  0.00    -0.361 A  
ENDBRANCH  30  31
BRANCH  30  39
HETATM   39  N   UNL     1     -12.091  12.286  66.026  1.00  0.00    -0.630 NA 
HETATM   40  H   UNL     1     -13.042  12.070  66.322  1.00  0.00     0.000 HD 
BRANCH  39  41
HETATM   41  O   UNL     1     -11.671  11.888  64.756  1.00  0.00    -0.298 OA 
HETATM   42  C   UNL     1     -12.509  11.984  63.620  1.00  0.00    -0.525 C  
ENDBRANCH  39  41
ENDBRANCH  30  39
ENDBRANCH  28  30
ENDBRANCH   6  26
TORSDOF 8
ENDMDL
MODEL       33
REMARK 921   NORMALIZED FREE ENERGY PREDICTED BY IDOCK:   -7.06 KCAL/MOL
REMARK 922        TOTAL FREE ENERGY PREDICTED BY IDOCK:  -11.63 KCAL/MOL
REMARK 923 INTER-LIGAND FREE ENERGY PREDICTED BY IDOCK:   -9.75 KCAL/MOL
REMARK 924 INTRA-LIGAND FREE ENERGY PREDICTED BY IDOCK:   -1.88 KCAL/MOL
REMARK 927      BINDING AFFINITY PREDICTED BY RF-SCORE:    0.00 PKD
ROOT
HETATM    1  C   UNL     1     -10.370  10.854  69.154  1.00  0.00    -0.208 C  
HETATM    2  S   UNL     1     -11.507  10.479  70.460  1.00  0.00    -0.323 SA 
HETATM    3  C   UNL     1     -11.587   8.649  70.470  1.00  0.00    -0.139 C  
HETATM    4  C   UNL     1     -10.708   7.868  69.535  1.00  0.00    -0.195 C  
HETATM    5  CA  UNL     1      -9.855   8.434  68.627  1.00  0.00    -0.170 C  
HETATM    6  CA  UNL     1     -10.527  11.668  67.798  1.00  0.00    -0.187 C  
HETATM    7  C   UNL     1      -9.566  10.550  67.286  1.00  0.00    -0.163 C  
HETATM    8  N   UNL     1      -9.831   9.779  68.373  1.00  0.00    -0.149 N  
HETATM    9  C   UNL     1      -8.910   7.545  67.862  1.00  0.00    -0.126 C  
HETATM   10  O   UNL     1      -9.050  10.327  66.217  1.00  0.00    -0.149 OA 
HETATM   11  O   UNL     1      -8.674   7.844  66.569  1.00  0.00    -0.133 OA 
HETATM   12  OXT UNL     1      -8.350   6.593  68.382  1.00  0.00    -0.120 OA 
ENDROOT
BRANCH   4  13
HETATM   13  C   UNL     1     -10.873   6.319  69.593  1.00  0.00    -0.339 C  
BRANCH  13  14
HETATM   14  S   UNL     1     -10.202   5.363  71.012  1.00  0.00    -0.235 SA 
BRANCH  14  15
HETATM   15  C   UNL     1      -9.019   6.419  71.822  1.00  0.00    -0.139 C  
HETATM   16  N   UNL     1      -7.833   6.384  71.323  1.00  0.00    -0.102 N  
HETATM   17  H   UNL     1      -7.630   5.881  70.459  1.00  0.00     0.000 HD 
HETATM   18  C   UNL     1     -10.660   7.040  73.673  1.00  0.00    -0.345 C  
HETATM   19  C   UNL     1      -6.848   7.061  72.014  1.00  0.00    -0.057 C  
HETATM   20  N   UNL     1      -9.389   7.118  72.974  1.00  0.00    -0.145 NA 
HETATM   21  C   UNL     1      -7.196   8.141  73.037  1.00  0.00    -0.114 C  
HETATM   22  O   UNL     1      -5.653   6.774  71.941  1.00  0.00    -0.035 OA 
HETATM   23  H   UNL     1      -8.639   8.368  74.512  1.00  0.00     0.000 HD 
HETATM   24  N   UNL     1      -8.422   7.933  73.615  1.00  0.00    -0.217 N  
HETATM   25  O   UNL     1      -6.448   9.054  73.348  1.00  0.00    -0.319 OA 
ENDBRANCH  14  15
ENDBRANCH  13  14
ENDBRANCH   4  13
BRANCH   6  26
HETATM   26  N   UNL     1     -11.676  11.918  66.812  1.00  0.00    -0.282 N  
HETATM   27  O   UNL     1     -12.937  12.776  65.120  1.00  0.00    -0.768 OA 
HETATM   28  C   UNL     1     -11.848  12.745  65.689  1.00  0.00    -0.425 C  
HETATM   29  H   UNL     1     -12.502  11.357  67.018  1.00  0.00     0.000 HD 
BRANCH  28  30
HETATM   30  C   UNL     1     -10.698  13.456  65.027  1.00  0.00    -0.343 C  
BRANCH  30  31
HETATM   31  C   UNL     1     -10.143  14.740  65.474  1.00  0.00    -0.380 A  
HETATM   32  H2  UNL     1     -10.186  18.942  66.279  1.00  0.00     0.000 HD 
HETATM   33  C   UNL     1      -9.365  14.835  66.617  1.00  0.00    -0.268 A  
HETATM   34  H1  UNL     1     -11.098  18.535  64.825  1.00  0.00     0.000 HD 
HETATM   35  N   UNL     1     -10.618  15.979  65.012  1.00  0.00    -0.606 NA 
HETATM   36  N   UNL     1     -10.521  18.245  65.614  1.00  0.00    -0.623 NA 
HETATM   37  S   UNL     1      -9.226  16.464  67.118  1.00  0.00    -0.218 SA 
HETATM   38  C   UNL     1     -10.198  16.954  65.787  1.00  0.00    -0.268 A  
ENDBRANCH  30  31
BRANCH  30  39
HETATM   39  N   UNL     1     -10.231  13.122  63.870  1.00  0.00    -0.744 NA 
HETATM   40  H   UNL     1      -9.705  13.810  63.332  1.00  0.00     0.000 HD 
BRANCH  39  41
HETATM   41  O   UNL     1     -10.423  11.848  63.335  1.00  0.00    -0.410 OA 
HETATM   42  C   UNL     1      -9.400  11.158  62.645  1.00  0.00    -0.304 C  
ENDBRANCH  39  41
ENDBRANCH  30  39
ENDBRANCH  28  30
ENDBRANCH   6  26
TORSDOF 8
ENDMDL
MODEL       34
REMARK 921   NORMALIZED FREE ENERGY PREDICTED BY IDOCK:   -7.04 KCAL/MOL
REMARK 922        TOTAL FREE ENERGY PREDICTED BY IDOCK:  -11.60 KCAL/MOL
REMARK 923 INTER-LIGAND FREE ENERGY PREDICTED BY IDOCK:   -9.40 KCAL/MOL
REMARK 924 INTRA-LIGAND FREE ENERGY PREDICTED BY IDOCK:   -2.20 KCAL/MOL
REMARK 927      BINDING AFFINITY PREDICTED BY RF-SCORE:    0.00 PKD
ROOT
HETATM    1  C   UNL     1     -12.166  14.260  68.499  1.00  0.00    -0.159 C  
HETATM    2  S   UNL     1     -11.701  12.843  67.544  1.00  0.00    -0.356 SA 
HETATM    3  C   UNL     1     -11.770  11.457  68.740  1.00  0.00    -0.339 C  
HETATM    4  C   UNL     1     -12.240  11.717  70.143  1.00  0.00    -0.367 C  
HETATM    5  CA  UNL     1     -12.597  12.949  70.619  1.00  0.00    -0.177 C  
HETATM    6  CA  UNL     1     -11.404  15.607  68.858  1.00  0.00    -0.339 C  
HETATM    7  C   UNL     1     -12.148  15.397  70.213  1.00  0.00    -0.369 C  
HETATM    8  N   UNL     1     -12.414  14.101  69.902  1.00  0.00    -0.319 N  
HETATM    9  C   UNL     1     -13.206  13.050  71.993  1.00  0.00    -0.444 C  
HETATM   10  O   UNL     1     -12.193  16.029  71.241  1.00  0.00    -0.423 OA 
HETATM   11  O   UNL     1     -12.865  14.108  72.755  1.00  0.00    -0.402 OA 
HETATM   12  OXT UNL     1     -14.001  12.224  72.414  1.00  0.00    -0.160 OA 
ENDROOT
BRANCH   4  13
HETATM   13  C   UNL     1     -12.231  10.482  71.095  1.00  0.00    -0.391 C  
BRANCH  13  14
HETATM   14  S   UNL     1     -10.691   9.512  71.347  1.00  0.00    -0.166 SA 
BRANCH  14  15
HETATM   15  C   UNL     1     -10.719   8.195  70.150  1.00  0.00    -0.243 C  
HETATM   16  N   UNL     1     -10.208   8.491  69.006  1.00  0.00    -0.204 N  
HETATM   17  H   UNL     1      -9.721   9.373  68.850  1.00  0.00     0.000 HD 
HETATM   18  C   UNL     1     -12.110   6.687  71.665  1.00  0.00    -0.355 C  
HETATM   19  C   UNL     1     -10.351   7.557  68.001  1.00  0.00    -0.204 C  
HETATM   20  N   UNL     1     -11.363   6.993  70.458  1.00  0.00    -0.296 NA 
HETATM   21  C   UNL     1     -10.685   6.099  68.313  1.00  0.00    -0.290 C  
HETATM   22  O   UNL     1     -10.332   7.845  66.803  1.00  0.00    -0.309 OA 
HETATM   23  H   UNL     1     -11.946   5.126  69.644  1.00  0.00     0.000 HD 
HETATM   24  N   UNL     1     -11.393   5.967  69.479  1.00  0.00    -0.360 N  
HETATM   25  O   UNL     1     -10.403   5.163  67.583  1.00  0.00    -0.169 OA 
ENDBRANCH  14  15
ENDBRANCH  13  14
ENDBRANCH   4  13
BRANCH   6  26
HETATM   26  N   UNL     1      -9.935  15.995  69.077  1.00  0.00    -0.229 N  
HETATM   27  O   UNL     1      -7.658  16.005  69.005  1.00  0.00    -0.183 OA 
HETATM   28  C   UNL     1      -8.707  15.519  68.587  1.00  0.00    -0.188 C  
HETATM   29  H   UNL     1      -9.825  16.775  69.724  1.00  0.00     0.000 HD 
BRANCH  28  30
HETATM   30  C   UNL     1      -8.616  14.567  67.425  1.00  0.00    -0.201 C  
BRANCH  30  31
HETATM   31  C   UNL     1      -8.141  13.181  67.517  1.00  0.00    -0.181 A  
HETATM   32  H2  UNL     1      -7.437   9.415  69.423  1.00  0.00     0.000 HD 
HETATM   33  C   UNL     1      -8.329  12.280  66.481  1.00  0.00     0.064 A  
HETATM   34  H1  UNL     1      -7.230  10.771  70.532  1.00  0.00     0.000 HD 
HETATM   35  N   UNL     1      -7.792  12.573  68.734  1.00  0.00    -0.032 NA 
HETATM   36  N   UNL     1      -7.440  10.420  69.598  1.00  0.00    -0.151 NA 
HETATM   37  S   UNL     1      -8.074  10.678  67.021  1.00  0.00    -0.124 SA 
HETATM   38  C   UNL     1      -7.719  11.269  68.596  1.00  0.00    -0.136 A  
ENDBRANCH  30  31
BRANCH  30  39
HETATM   39  N   UNL     1      -8.733  14.940  66.194  1.00  0.00    -0.419 NA 
HETATM   40  H   UNL     1      -8.140  14.507  65.487  1.00  0.00     0.000 HD 
BRANCH  39  41
HETATM   41  O   UNL     1      -9.648  15.918  65.801  1.00  0.00    -0.327 OA 
HETATM   42  C   UNL     1     -10.822  15.606  65.077  1.00  0.00    -0.450 C  
ENDBRANCH  39  41
ENDBRANCH  30  39
ENDBRANCH  28  30
ENDBRANCH   6  26
TORSDOF 8
ENDMDL
MODEL       35
REMARK 921   NORMALIZED FREE ENERGY PREDICTED BY IDOCK:   -7.04 KCAL/MOL
REMARK 922        TOTAL FREE ENERGY PREDICTED BY IDOCK:  -11.59 KCAL/MOL
REMARK 923 INTER-LIGAND FREE ENERGY PREDICTED BY IDOCK:  -10.50 KCAL/MOL
REMARK 924 INTRA-LIGAND FREE ENERGY PREDICTED BY IDOCK:   -1.09 KCAL/MOL
REMARK 927      BINDING AFFINITY PREDICTED BY RF-SCORE:    0.00 PKD
ROOT
HETATM    1  C   UNL     1     -11.198  15.235  66.300  1.00  0.00    -0.223 C  
HETATM    2  S   UNL     1     -11.456  13.835  65.244  1.00  0.00    -0.324 SA 
HETATM    3  C   UNL     1     -11.701  12.440  66.405  1.00  0.00    -0.391 C  
HETATM    4  C   UNL     1     -11.727  12.707  67.884  1.00  0.00    -0.412 C  
HETATM    5  CA  UNL     1     -11.540  13.940  68.446  1.00  0.00    -0.332 C  
HETATM    6  CA  UNL     1      -9.975  16.234  66.474  1.00  0.00    -0.277 C  
HETATM    7  C   UNL     1     -10.417  16.148  67.969  1.00  0.00    -0.281 C  
HETATM    8  N   UNL     1     -11.157  15.035  67.718  1.00  0.00    -0.299 N  
HETATM    9  C   UNL     1     -11.751  14.104  69.928  1.00  0.00    -0.309 C  
HETATM   10  O   UNL     1     -10.015  16.665  68.983  1.00  0.00    -0.258 OA 
HETATM   11  O   UNL     1     -10.916  14.926  70.594  1.00  0.00    -0.192 OA 
HETATM   12  OXT UNL     1     -12.654  13.537  70.523  1.00  0.00    -0.304 OA 
ENDROOT
BRANCH   4  13
HETATM   13  C   UNL     1     -11.906  11.452  68.791  1.00  0.00    -0.323 C  
BRANCH  13  14
HETATM   14  S   UNL     1     -10.442  10.503  69.367  1.00  0.00    -0.235 SA 
BRANCH  14  15
HETATM   15  C   UNL     1     -10.495   8.931  68.532  1.00  0.00    -0.182 C  
HETATM   16  N   UNL     1     -10.967   7.961  69.234  1.00  0.00    -0.429 N  
HETATM   17  H   UNL     1     -11.386   8.118  70.151  1.00  0.00     0.000 HD 
HETATM   18  C   UNL     1      -9.239   9.832  66.503  1.00  0.00    -0.156 C  
HETATM   19  C   UNL     1     -10.880   6.698  68.686  1.00  0.00    -0.262 C  
HETATM   20  N   UNL     1      -9.945   8.808  67.253  1.00  0.00    -0.200 NA 
HETATM   21  C   UNL     1     -10.658   6.496  67.188  1.00  0.00    -0.328 C  
HETATM   22  O   UNL     1     -10.861   5.668  69.362  1.00  0.00    -0.320 OA 
HETATM   23  H   UNL     1      -9.490   7.405  65.733  1.00  0.00     0.000 HD 
HETATM   24  N   UNL     1      -9.977   7.541  66.618  1.00  0.00    -0.222 N  
HETATM   25  O   UNL     1     -10.997   5.496  66.576  1.00  0.00    -0.250 OA 
ENDBRANCH  14  15
ENDBRANCH  13  14
ENDBRANCH   4  13
BRANCH   6  26
HETATM   26  N   UNL     1      -8.452  16.116  66.330  1.00  0.00    -0.332 N  
HETATM   27  O   UNL     1      -6.226  16.598  66.347  1.00  0.00    -0.266 OA 
HETATM   28  C   UNL     1      -7.365  16.948  66.647  1.00  0.00    -0.263 C  
HETATM   29  H   UNL     1      -8.162  15.234  65.908  1.00  0.00     0.000 HD 
BRANCH  28  30
HETATM   30  C   UNL     1      -7.510  18.168  67.516  1.00  0.00    -0.213 C  
BRANCH  30  31
HETATM   31  C   UNL     1      -6.579  18.544  68.588  1.00  0.00    -0.247 A  
HETATM   32  H2  UNL     1      -5.079  20.960  71.786  1.00  0.00     0.000 HD 
HETATM   33  C   UNL     1      -6.056  17.600  69.457  1.00  0.00    -0.250 A  
HETATM   34  H1  UNL     1      -5.790  21.931  70.496  1.00  0.00     0.000 HD 
HETATM   35  N   UNL     1      -6.422  19.867  69.032  1.00  0.00    -0.305 NA 
HETATM   36  N   UNL     1      -5.536  21.019  70.875  1.00  0.00    -0.489 NA 
HETATM   37  S   UNL     1      -5.370  18.358  70.828  1.00  0.00    -0.224 SA 
HETATM   38  C   UNL     1      -5.798  19.896  70.188  1.00  0.00    -0.308 A  
ENDBRANCH  30  31
BRANCH  30  39
HETATM   39  N   UNL     1      -8.583  18.886  67.556  1.00  0.00    -0.273 NA 
HETATM   40  H   UNL     1      -9.155  18.874  68.401  1.00  0.00     0.000 HD 
BRANCH  39  41
HETATM   41  O   UNL     1      -8.984  19.678  66.480  1.00  0.00    -0.334 OA 
HETATM   42  C   UNL     1     -10.346  19.874  66.154  1.00  0.00    -0.494 C  
ENDBRANCH  39  41
ENDBRANCH  30  39
ENDBRANCH  28  30
ENDBRANCH   6  26
TORSDOF 8
ENDMDL
MODEL       36
REMARK 921   NORMALIZED FREE ENERGY PREDICTED BY IDOCK:   -6.99 KCAL/MOL
REMARK 922        TOTAL FREE ENERGY PREDICTED BY IDOCK:  -11.51 KCAL/MOL
REMARK 923 INTER-LIGAND FREE ENERGY PREDICTED BY IDOCK:  -10.71 KCAL/MOL
REMARK 924 INTRA-LIGAND FREE ENERGY PREDICTED BY IDOCK:   -0.80 KCAL/MOL
REMARK 927      BINDING AFFINITY PREDICTED BY RF-SCORE:    0.00 PKD
ROOT
HETATM    1  C   UNL     1     -11.251  12.344  68.513  1.00  0.00    -0.279 C  
HETATM    2  S   UNL     1     -10.217  10.964  68.105  1.00  0.00    -0.184 SA 
HETATM    3  C   UNL     1     -10.426   9.818  69.518  1.00  0.00    -0.232 C  
HETATM    4  C   UNL     1     -11.394  10.165  70.613  1.00  0.00    -0.433 C  
HETATM    5  CA  UNL     1     -12.126  11.320  70.654  1.00  0.00    -0.383 C  
HETATM    6  CA  UNL     1     -10.937  13.883  68.754  1.00  0.00    -0.263 C  
HETATM    7  C   UNL     1     -12.049  13.704  69.833  1.00  0.00    -0.341 C  
HETATM    8  N   UNL     1     -11.933  12.351  69.774  1.00  0.00    -0.310 N  
HETATM    9  C   UNL     1     -13.181  11.476  71.718  1.00  0.00    -0.351 C  
HETATM   10  O   UNL     1     -12.569  14.457  70.621  1.00  0.00    -0.325 OA 
HETATM   11  O   UNL     1     -13.337  12.694  72.274  1.00  0.00    -0.533 OA 
HETATM   12  OXT UNL     1     -13.895  10.549  72.066  1.00  0.00    -0.094 OA 
ENDROOT
BRANCH   4  13
HETATM   13  C   UNL     1     -11.475   9.144  71.788  1.00  0.00    -0.381 C  
BRANCH  13  14
HETATM   14  S   UNL     1     -12.530   7.647  71.650  1.00  0.00    -0.344 SA 
BRANCH  14  15
HETATM   15  C   UNL     1     -11.460   6.246  71.902  1.00  0.00    -0.309 C  
HETATM   16  N   UNL     1     -11.288   5.911  73.133  1.00  0.00    -0.484 N  
HETATM   17  H   UNL     1     -11.823   6.345  73.885  1.00  0.00     0.000 HD 
HETATM   18  C   UNL     1     -10.825   6.136  69.435  1.00  0.00    -0.353 C  
HETATM   19  C   UNL     1     -10.345   4.936  73.385  1.00  0.00    -0.192 C  
HETATM   20  N   UNL     1     -10.802   5.673  70.810  1.00  0.00    -0.253 NA 
HETATM   21  C   UNL     1      -9.857   3.999  72.282  1.00  0.00    -0.160 C  
HETATM   22  O   UNL     1      -9.759   4.826  74.463  1.00  0.00    -0.129 OA 
HETATM   23  H   UNL     1      -9.367   4.209  70.276  1.00  0.00     0.000 HD 
HETATM   24  N   UNL     1      -9.936   4.574  71.040  1.00  0.00    -0.199 N  
HETATM   25  O   UNL     1      -9.399   2.886  72.484  1.00  0.00    -0.093 OA 
ENDBRANCH  14  15
ENDBRANCH  13  14
ENDBRANCH   4  13
BRANCH   6  26
HETATM   26  N   UNL     1      -9.740  14.672  69.303  1.00  0.00    -0.406 N  
HETATM   27  O   UNL     1      -7.806  15.867  69.441  1.00  0.00    -0.229 OA 
HETATM   28  C   UNL     1      -8.673  15.374  68.721  1.00  0.00    -0.195 C  
HETATM   29  H   UNL     1      -9.715  14.690  70.323  1.00  0.00     0.000 HD 
BRANCH  28  30
HETATM   30  C   UNL     1      -8.638  15.722  67.257  1.00  0.00    -0.188 C  
BRANCH  30  31
HETATM   31  C   UNL     1      -8.818  17.076  66.717  1.00  0.00    -0.242 A  
HETATM   32  H2  UNL     1     -10.690  20.903  66.321  1.00  0.00     0.000 HD 
HETATM   33  C   UNL     1      -7.739  17.916  66.494  1.00  0.00    -0.257 A  
HETATM   34  H1  UNL     1     -11.863  19.613  66.587  1.00  0.00     0.000 HD 
HETATM   35  N   UNL     1     -10.057  17.738  66.714  1.00  0.00    -0.333 NA 
HETATM   36  N   UNL     1     -10.897  19.914  66.465  1.00  0.00    -0.345 NA 
HETATM   37  S   UNL     1      -8.265  19.529  66.283  1.00  0.00    -0.336 SA 
HETATM   38  C   UNL     1      -9.895  19.022  66.490  1.00  0.00    -0.369 A  
ENDBRANCH  30  31
BRANCH  30  39
HETATM   39  N   UNL     1      -8.671  14.836  66.317  1.00  0.00    -0.449 NA 
HETATM   40  H   UNL     1      -7.818  14.640  65.793  1.00  0.00     0.000 HD 
BRANCH  39  41
HETATM   41  O   UNL     1      -9.836  14.140  65.997  1.00  0.00    -0.304 OA 
HETATM   42  C   UNL     1     -10.591  14.425  64.835  1.00  0.00    -0.434 C  
ENDBRANCH  39  41
ENDBRANCH  30  39
ENDBRANCH  28  30
ENDBRANCH   6  26
TORSDOF 8
ENDMDL
MODEL       37
REMARK 921   NORMALIZED FREE ENERGY PREDICTED BY IDOCK:   -6.97 KCAL/MOL
REMARK 922        TOTAL FREE ENERGY PREDICTED BY IDOCK:  -11.50 KCAL/MOL
REMARK 923 INTER-LIGAND FREE ENERGY PREDICTED BY IDOCK:  -10.54 KCAL/MOL
REMARK 924 INTRA-LIGAND FREE ENERGY PREDICTED BY IDOCK:   -0.96 KCAL/MOL
REMARK 927      BINDING AFFINITY PREDICTED BY RF-SCORE:    0.00 PKD
ROOT
HETATM    1  C   UNL     1     -12.754  11.327  70.426  1.00  0.00    -0.130 C  
HETATM    2  S   UNL     1     -13.142  12.550  71.648  1.00  0.00    -0.207 SA 
HETATM    3  C   UNL     1     -12.676  14.134  70.856  1.00  0.00    -0.361 C  
HETATM    4  C   UNL     1     -12.184  14.132  69.436  1.00  0.00    -0.329 C  
HETATM    5  CA  UNL     1     -12.019  13.004  68.681  1.00  0.00    -0.263 C  
HETATM    6  CA  UNL     1     -11.753  10.092  70.426  1.00  0.00    -0.308 C  
HETATM    7  C   UNL     1     -11.571  10.535  68.941  1.00  0.00    -0.196 C  
HETATM    8  N   UNL     1     -12.142  11.742  69.198  1.00  0.00    -0.274 N  
HETATM    9  C   UNL     1     -11.676  13.148  67.221  1.00  0.00    -0.374 C  
HETATM   10  O   UNL     1     -10.913  10.109  68.023  1.00  0.00    -0.265 OA 
HETATM   11  O   UNL     1     -10.811  12.263  66.689  1.00  0.00    -0.242 OA 
HETATM   12  OXT UNL     1     -12.170  14.018  66.521  1.00  0.00    -0.447 OA 
ENDROOT
BRANCH   4  13
HETATM   13  C   UNL     1     -11.780  15.524  68.863  1.00  0.00    -0.370 C  
BRANCH  13  14
HETATM   14  S   UNL     1     -10.476  16.527  69.682  1.00  0.00    -0.219 SA 
BRANCH  14  15
HETATM   15  C   UNL     1      -9.721  17.516  68.409  1.00  0.00    -0.316 C  
HETATM   16  N   UNL     1     -10.549  18.086  67.604  1.00  0.00    -0.413 N  
HETATM   17  H   UNL     1     -11.555  18.064  67.767  1.00  0.00     0.000 HD 
HETATM   18  C   UNL     1      -7.371  16.764  69.051  1.00  0.00    -0.231 C  
HETATM   19  C   UNL     1     -10.008  18.731  66.511  1.00  0.00    -0.380 C  
HETATM   20  N   UNL     1      -8.329  17.537  68.283  1.00  0.00    -0.256 NA 
HETATM   21  C   UNL     1      -8.535  19.135  66.476  1.00  0.00    -0.317 C  
HETATM   22  O   UNL     1     -10.628  18.922  65.464  1.00  0.00    -0.572 OA 
HETATM   23  H   UNL     1      -6.749  18.260  67.071  1.00  0.00     0.000 HD 
HETATM   24  N   UNL     1      -7.752  18.313  67.245  1.00  0.00    -0.217 N  
HETATM   25  O   UNL     1      -8.093  20.049  65.799  1.00  0.00    -0.310 OA 
ENDBRANCH  14  15
ENDBRANCH  13  14
ENDBRANCH   4  13
BRANCH   6  26
HETATM   26  N   UNL     1     -10.404   9.792  71.094  1.00  0.00    -0.279 N  
HETATM   27  O   UNL     1      -8.769   8.811  72.340  1.00  0.00    -0.392 OA 
HETATM   28  C   UNL     1      -9.909   8.742  71.885  1.00  0.00    -0.324 C  
HETATM   29  H   UNL     1      -9.710  10.519  70.924  1.00  0.00     0.000 HD 
BRANCH  28  30
HETATM   30  C   UNL     1     -10.642   7.437  72.045  1.00  0.00    -0.208 C  
BRANCH  30  31
HETATM   31  C   UNL     1     -10.108   6.127  71.649  1.00  0.00    -0.187 A  
HETATM   32  H2  UNL     1      -9.847   1.856  71.657  1.00  0.00     0.000 HD 
HETATM   33  C   UNL     1      -9.785   5.843  70.332  1.00  0.00    -0.174 A  
HETATM   34  H1  UNL     1     -10.226   2.502  73.254  1.00  0.00     0.000 HD 
HETATM   35  N   UNL     1     -10.209   4.986  72.462  1.00  0.00    -0.189 NA 
HETATM   36  N   UNL     1     -10.016   2.655  72.268  1.00  0.00    -0.159 NA 
HETATM   37  S   UNL     1      -9.608   4.158  70.104  1.00  0.00    -0.207 SA 
HETATM   38  C   UNL     1      -9.961   3.899  71.767  1.00  0.00    -0.163 A  
ENDBRANCH  30  31
BRANCH  30  39
HETATM   39  N   UNL     1     -11.897   7.361  72.338  1.00  0.00    -0.445 NA 
HETATM   40  H   UNL     1     -12.185   7.462  73.311  1.00  0.00     0.000 HD 
BRANCH  39  41
HETATM   41  O   UNL     1     -12.872   7.144  71.364  1.00  0.00    -0.376 OA 
HETATM   42  C   UNL     1     -14.248   7.360  71.613  1.00  0.00    -0.440 C  
ENDBRANCH  39  41
ENDBRANCH  30  39
ENDBRANCH  28  30
ENDBRANCH   6  26
TORSDOF 8
ENDMDL
MODEL       38
REMARK 921   NORMALIZED FREE ENERGY PREDICTED BY IDOCK:   -6.97 KCAL/MOL
REMARK 922        TOTAL FREE ENERGY PREDICTED BY IDOCK:  -11.49 KCAL/MOL
REMARK 923 INTER-LIGAND FREE ENERGY PREDICTED BY IDOCK:   -9.32 KCAL/MOL
REMARK 924 INTRA-LIGAND FREE ENERGY PREDICTED BY IDOCK:   -2.17 KCAL/MOL
REMARK 927      BINDING AFFINITY PREDICTED BY RF-SCORE:    0.00 PKD
ROOT
HETATM    1  C   UNL     1      -8.374   9.515  68.182  1.00  0.00    -0.118 C  
HETATM    2  S   UNL     1      -7.420  10.150  69.533  1.00  0.00    -0.149 SA 
HETATM    3  C   UNL     1      -6.888   8.654  70.446  1.00  0.00    -0.042 C  
HETATM    4  C   UNL     1      -7.237   7.297  69.904  1.00  0.00    -0.081 C  
HETATM    5  CA  UNL     1      -7.973   7.087  68.770  1.00  0.00    -0.120 C  
HETATM    6  CA  UNL     1      -9.892   9.711  67.757  1.00  0.00    -0.159 C  
HETATM    7  C   UNL     1      -9.734   8.211  67.357  1.00  0.00    -0.170 C  
HETATM    8  N   UNL     1      -8.598   8.102  68.095  1.00  0.00    -0.129 N  
HETATM    9  C   UNL     1      -8.116   5.683  68.243  1.00  0.00    -0.103 C  
HETATM   10  O   UNL     1     -10.480   7.403  66.858  1.00  0.00    -0.302 OA 
HETATM   11  O   UNL     1      -9.306   5.327  67.720  1.00  0.00    -0.113 OA 
HETATM   12  OXT UNL     1      -7.192   4.885  68.262  1.00  0.00    -0.061 OA 
ENDROOT
BRANCH   4  13
HETATM   13  C   UNL     1      -6.771   6.087  70.769  1.00  0.00    -0.057 C  
BRANCH  13  14
HETATM   14  S   UNL     1      -7.837   5.440  72.118  1.00  0.00    -0.107 SA 
BRANCH  14  15
HETATM   15  C   UNL     1      -9.424   6.225  71.933  1.00  0.00    -0.153 C  
HETATM   16  N   UNL     1     -10.159   5.745  70.993  1.00  0.00    -0.196 N  
HETATM   17  H   UNL     1      -9.893   4.904  70.482  1.00  0.00     0.000 HD 
HETATM   18  C   UNL     1      -8.864   8.029  73.647  1.00  0.00    -0.260 C  
HETATM   19  C   UNL     1     -11.327   6.424  70.709  1.00  0.00    -0.350 C  
HETATM   20  N   UNL     1      -9.736   7.346  72.709  1.00  0.00    -0.160 NA 
HETATM   21  C   UNL     1     -11.940   7.401  71.710  1.00  0.00    -0.305 C  
HETATM   22  O   UNL     1     -11.885   6.378  69.612  1.00  0.00    -0.323 OA 
HETATM   23  H   UNL     1     -11.202   8.846  73.005  1.00  0.00     0.000 HD 
HETATM   24  N   UNL     1     -10.996   7.969  72.526  1.00  0.00    -0.337 N  
HETATM   25  O   UNL     1     -13.126   7.688  71.746  1.00  0.00    -0.333 OA 
ENDBRANCH  14  15
ENDBRANCH  13  14
ENDBRANCH   4  13
BRANCH   6  26
HETATM   26  N   UNL     1     -11.206   9.957  68.513  1.00  0.00    -0.491 N  
HETATM   27  O   UNL     1     -12.930  10.979  69.593  1.00  0.00    -0.101 OA 
HETATM   28  C   UNL     1     -11.902  11.103  68.931  1.00  0.00    -0.337 C  
HETATM   29  H   UNL     1     -11.681   9.092  68.770  1.00  0.00     0.000 HD 
BRANCH  28  30
HETATM   30  C   UNL     1     -11.553  12.483  68.442  1.00  0.00    -0.322 C  
BRANCH  30  31
HETATM   31  C   UNL     1     -11.604  12.907  67.037  1.00  0.00    -0.362 A  
HETATM   32  H2  UNL     1     -13.083  12.941  63.022  1.00  0.00     0.000 HD 
HETATM   33  C   UNL     1     -11.463  14.237  66.676  1.00  0.00    -0.364 A  
HETATM   34  H1  UNL     1     -13.121  11.326  63.731  1.00  0.00     0.000 HD 
HETATM   35  N   UNL     1     -12.130  12.099  66.015  1.00  0.00    -0.586 NA 
HETATM   36  N   UNL     1     -12.898  12.318  63.808  1.00  0.00    -0.777 NA 
HETATM   37  S   UNL     1     -11.985  14.484  65.066  1.00  0.00    -0.385 SA 
HETATM   38  C   UNL     1     -12.362  12.811  64.935  1.00  0.00    -0.490 A  
ENDBRANCH  30  31
BRANCH  30  39
HETATM   39  N   UNL     1     -10.961  13.366  69.175  1.00  0.00    -0.391 NA 
HETATM   40  H   UNL     1      -9.972  13.558  69.017  1.00  0.00     0.000 HD 
BRANCH  39  41
HETATM   41  O   UNL     1     -11.633  14.066  70.177  1.00  0.00    -0.262 OA 
HETATM   42  C   UNL     1     -11.409  15.441  70.418  1.00  0.00    -0.327 C  
ENDBRANCH  39  41
ENDBRANCH  30  39
ENDBRANCH  28  30
ENDBRANCH   6  26
TORSDOF 8
ENDMDL
MODEL       39
REMARK 921   NORMALIZED FREE ENERGY PREDICTED BY IDOCK:   -6.96 KCAL/MOL
REMARK 922        TOTAL FREE ENERGY PREDICTED BY IDOCK:  -11.48 KCAL/MOL
REMARK 923 INTER-LIGAND FREE ENERGY PREDICTED BY IDOCK:   -9.90 KCAL/MOL
REMARK 924 INTRA-LIGAND FREE ENERGY PREDICTED BY IDOCK:   -1.59 KCAL/MOL
REMARK 927      BINDING AFFINITY PREDICTED BY RF-SCORE:    0.00 PKD
ROOT
HETATM    1  C   UNL     1     -12.401  11.114  70.405  1.00  0.00    -0.344 C  
HETATM    2  S   UNL     1     -12.879  12.335  71.596  1.00  0.00    -0.183 SA 
HETATM    3  C   UNL     1     -12.561  13.929  70.753  1.00  0.00    -0.354 C  
HETATM    4  C   UNL     1     -12.088  13.928  69.327  1.00  0.00    -0.383 C  
HETATM    5  CA  UNL     1     -11.835  12.796  68.602  1.00  0.00    -0.304 C  
HETATM    6  CA  UNL     1     -11.298   9.971  70.426  1.00  0.00    -0.320 C  
HETATM    7  C   UNL     1     -11.172  10.384  68.926  1.00  0.00    -0.235 C  
HETATM    8  N   UNL     1     -11.842  11.544  69.157  1.00  0.00    -0.324 N  
HETATM    9  C   UNL     1     -11.522  12.926  67.134  1.00  0.00    -0.336 C  
HETATM   10  O   UNL     1     -10.489   9.989  68.012  1.00  0.00    -0.189 OA 
HETATM   11  O   UNL     1     -10.589  12.103  66.615  1.00  0.00    -0.226 OA 
HETATM   12  OXT UNL     1     -12.097  13.729  66.416  1.00  0.00    -0.406 OA 
ENDROOT
BRANCH   4  13
HETATM   13  C   UNL     1     -11.812  15.332  68.708  1.00  0.00    -0.307 C  
BRANCH  13  14
HETATM   14  S   UNL     1     -10.846  16.587  69.639  1.00  0.00    -0.258 SA 
BRANCH  14  15
HETATM   15  C   UNL     1      -9.938  17.528  68.431  1.00  0.00    -0.335 C  
HETATM   16  N   UNL     1     -10.666  18.192  67.603  1.00  0.00    -0.399 N  
HETATM   17  H   UNL     1     -11.677  18.262  67.717  1.00  0.00     0.000 HD 
HETATM   18  C   UNL     1      -7.704  16.541  69.166  1.00  0.00    -0.205 C  
HETATM   19  C   UNL     1     -10.012  18.806  66.555  1.00  0.00    -0.380 C  
HETATM   20  N   UNL     1      -8.546  17.419  68.373  1.00  0.00    -0.264 NA 
HETATM   21  C   UNL     1      -8.508  19.068  66.602  1.00  0.00    -0.304 C  
HETATM   22  O   UNL     1     -10.558  19.078  65.485  1.00  0.00    -0.557 OA 
HETATM   23  H   UNL     1      -6.845  18.014  67.259  1.00  0.00     0.000 HD 
HETATM   24  N   UNL     1      -7.846  18.159  67.386  1.00  0.00    -0.216 N  
HETATM   25  O   UNL     1      -7.949  19.951  65.972  1.00  0.00    -0.338 OA 
ENDBRANCH  14  15
ENDBRANCH  13  14
ENDBRANCH   4  13
BRANCH   6  26
HETATM   26  N   UNL     1      -9.920   9.808  71.083  1.00  0.00    -0.221 N  
HETATM   27  O   UNL     1      -8.067   8.895  72.043  1.00  0.00    -0.355 OA 
HETATM   28  C   UNL     1      -9.135   8.707  71.464  1.00  0.00    -0.239 C  
HETATM   29  H   UNL     1      -9.473  10.701  71.289  1.00  0.00     0.000 HD 
BRANCH  28  30
HETATM   30  C   UNL     1      -9.447   7.302  71.024  1.00  0.00    -0.158 C  
BRANCH  30  31
HETATM   31  C   UNL     1      -9.256   6.793  69.659  1.00  0.00    -0.145 A  
HETATM   32  H2  UNL     1     -10.414   5.841  65.651  1.00  0.00     0.000 HD 
HETATM   33  C   UNL     1      -8.101   7.059  68.942  1.00  0.00    -0.121 A  
HETATM   34  H1  UNL     1     -11.718   5.558  66.805  1.00  0.00     0.000 HD 
HETATM   35  N   UNL     1     -10.315   6.320  68.866  1.00  0.00    -0.183 NA 
HETATM   36  N   UNL     1     -10.759   5.847  66.611  1.00  0.00    -0.286 NA 
HETATM   37  S   UNL     1      -8.332   6.723  67.281  1.00  0.00    -0.121 SA 
HETATM   38  C   UNL     1      -9.948   6.235  67.607  1.00  0.00    -0.131 A  
ENDBRANCH  30  31
BRANCH  30  39
HETATM   39  N   UNL     1     -10.122   6.467  71.743  1.00  0.00    -0.184 NA 
HETATM   40  H   UNL     1      -9.783   5.511  71.839  1.00  0.00     0.000 HD 
BRANCH  39  41
HETATM   41  O   UNL     1     -11.301   6.835  72.392  1.00  0.00    -0.257 OA 
HETATM   42  C   UNL     1     -12.559   6.801  71.747  1.00  0.00    -0.325 C  
ENDBRANCH  39  41
ENDBRANCH  30  39
ENDBRANCH  28  30
ENDBRANCH   6  26
TORSDOF 8
ENDMDL
MODEL       40
REMARK 921   NORMALIZED FREE ENERGY PREDICTED BY IDOCK:   -6.96 KCAL/MOL
REMARK 922        TOTAL FREE ENERGY PREDICTED BY IDOCK:  -11.48 KCAL/MOL
REMARK 923 INTER-LIGAND FREE ENERGY PREDICTED BY IDOCK:   -9.78 KCAL/MOL
REMARK 924 INTRA-LIGAND FREE ENERGY PREDICTED BY IDOCK:   -1.70 KCAL/MOL
REMARK 927      BINDING AFFINITY PREDICTED BY RF-SCORE:    0.00 PKD
ROOT
HETATM    1  C   UNL     1      -8.431   8.756  67.885  1.00  0.00    -0.126 C  
HETATM    2  S   UNL     1      -7.244   9.629  68.868  1.00  0.00    -0.073 SA 
HETATM    3  C   UNL     1      -7.240   8.730  70.464  1.00  0.00    -0.059 C  
HETATM    4  C   UNL     1      -8.081   7.495  70.617  1.00  0.00    -0.109 C  
HETATM    5  CA  UNL     1      -8.901   6.997  69.641  1.00  0.00    -0.141 C  
HETATM    6  CA  UNL     1      -9.796   9.202  67.206  1.00  0.00    -0.189 C  
HETATM    7  C   UNL     1     -10.209   7.756  67.623  1.00  0.00    -0.219 C  
HETATM    8  N   UNL     1      -9.153   7.666  68.473  1.00  0.00    -0.132 N  
HETATM    9  C   UNL     1      -9.566   5.664  69.860  1.00  0.00    -0.161 C  
HETATM   10  O   UNL     1     -11.221   7.111  67.487  1.00  0.00    -0.147 OA 
HETATM   11  O   UNL     1     -10.830   5.512  69.416  1.00  0.00    -0.298 OA 
HETATM   12  OXT UNL     1      -8.992   4.732  70.401  1.00  0.00    -0.099 OA 
ENDROOT
BRANCH   4  13
HETATM   13  C   UNL     1      -8.037   6.821  72.022  1.00  0.00    -0.101 C  
BRANCH  13  14
HETATM   14  S   UNL     1      -9.104   7.437  73.385  1.00  0.00    -0.211 SA 
BRANCH  14  15
HETATM   15  C   UNL     1     -10.768   7.472  72.751  1.00  0.00    -0.330 C  
HETATM   16  N   UNL     1     -11.198   8.640  72.422  1.00  0.00    -0.331 N  
HETATM   17  H   UNL     1     -10.583   9.454  72.416  1.00  0.00     0.000 HD 
HETATM   18  C   UNL     1     -11.147   5.005  73.278  1.00  0.00    -0.337 C  
HETATM   19  C   UNL     1     -12.530   8.737  72.078  1.00  0.00    -0.386 C  
HETATM   20  N   UNL     1     -11.531   6.300  72.745  1.00  0.00    -0.212 NA 
HETATM   21  C   UNL     1     -13.339   7.504  71.677  1.00  0.00    -0.358 C  
HETATM   22  O   UNL     1     -13.179   9.779  72.175  1.00  0.00    -0.433 OA 
HETATM   23  H   UNL     1     -13.467   5.542  72.343  1.00  0.00     0.000 HD 
HETATM   24  N   UNL     1     -12.862   6.358  72.259  1.00  0.00    -0.023 N  
HETATM   25  O   UNL     1     -14.330   7.539  70.965  1.00  0.00    -0.283 OA 
ENDBRANCH  14  15
ENDBRANCH  13  14
ENDBRANCH   4  13
BRANCH   6  26
HETATM   26  N   UNL     1     -10.893  10.221  67.547  1.00  0.00    -0.295 N  
HETATM   27  O   UNL     1     -12.183  12.098  67.564  1.00  0.00    -0.474 OA 
HETATM   28  C   UNL     1     -11.275  11.468  67.025  1.00  0.00    -0.300 C  
HETATM   29  H   UNL     1     -11.475   9.927  68.331  1.00  0.00     0.000 HD 
BRANCH  28  30
HETATM   30  C   UNL     1     -10.755  11.987  65.711  1.00  0.00    -0.279 C  
BRANCH  30  31
HETATM   31  C   UNL     1     -10.433  13.393  65.439  1.00  0.00    -0.302 A  
HETATM   32  H2  UNL     1     -11.264  17.446  64.346  1.00  0.00     0.000 HD 
HETATM   33  C   UNL     1      -9.561  14.107  66.245  1.00  0.00    -0.275 A  
HETATM   34  H1  UNL     1     -12.238  16.297  63.428  1.00  0.00     0.000 HD 
HETATM   35  N   UNL     1     -11.211  14.204  64.596  1.00  0.00    -0.373 NA 
HETATM   36  N   UNL     1     -11.522  16.483  64.130  1.00  0.00    -1.092 NA 
HETATM   37  S   UNL     1      -9.710  15.786  65.956  1.00  0.00    -0.365 SA 
HETATM   38  C   UNL     1     -10.916  15.473  64.772  1.00  0.00    -0.399 A  
ENDBRANCH  30  31
BRANCH  30  39
HETATM   39  N   UNL     1     -10.751  11.288  64.625  1.00  0.00    -0.321 NA 
HETATM   40  H   UNL     1     -11.641  11.022  64.205  1.00  0.00     0.000 HD 
BRANCH  39  41
HETATM   41  O   UNL     1      -9.566  10.885  64.009  1.00  0.00    -0.232 OA 
HETATM   42  C   UNL     1      -9.391  10.931  62.606  1.00  0.00    -0.314 C  
ENDBRANCH  39  41
ENDBRANCH  30  39
ENDBRANCH  28  30
ENDBRANCH   6  26
TORSDOF 8
ENDMDL
MODEL       41
REMARK 921   NORMALIZED FREE ENERGY PREDICTED BY IDOCK:   -6.96 KCAL/MOL
REMARK 922        TOTAL FREE ENERGY PREDICTED BY IDOCK:  -11.47 KCAL/MOL
REMARK 923 INTER-LIGAND FREE ENERGY PREDICTED BY IDOCK:  -10.16 KCAL/MOL
REMARK 924 INTRA-LIGAND FREE ENERGY PREDICTED BY IDOCK:   -1.30 KCAL/MOL
REMARK 927      BINDING AFFINITY PREDICTED BY RF-SCORE:    0.00 PKD
ROOT
HETATM    1  C   UNL     1     -10.519  10.714  67.407  1.00  0.00    -0.235 C  
HETATM    2  S   UNL     1     -11.374  11.999  66.538  1.00  0.00    -0.344 SA 
HETATM    3  C   UNL     1     -10.278  13.456  66.706  1.00  0.00    -0.259 C  
HETATM    4  C   UNL     1      -8.952  13.306  67.396  1.00  0.00    -0.215 C  
HETATM    5  CA  UNL     1      -8.504  12.141  67.955  1.00  0.00    -0.170 C  
HETATM    6  CA  UNL     1     -10.905   9.836  68.674  1.00  0.00    -0.188 C  
HETATM    7  C   UNL     1      -9.381  10.003  68.966  1.00  0.00    -0.181 C  
HETATM    8  N   UNL     1      -9.291  11.027  68.077  1.00  0.00    -0.158 N  
HETATM    9  C   UNL     1      -7.090  12.078  68.473  1.00  0.00    -0.098 C  
HETATM   10  O   UNL     1      -8.657   9.603  69.845  1.00  0.00    -0.168 OA 
HETATM   11  O   UNL     1      -6.867  11.383  69.605  1.00  0.00    -0.124 OA 
HETATM   12  OXT UNL     1      -6.161  12.614  67.890  1.00  0.00    -0.080 OA 
ENDROOT
BRANCH   4  13
HETATM   13  C   UNL     1      -8.106  14.610  67.519  1.00  0.00    -0.184 C  
BRANCH  13  14
HETATM   14  S   UNL     1      -8.661  15.980  68.610  1.00  0.00    -0.219 SA 
BRANCH  14  15
HETATM   15  C   UNL     1      -9.292  17.257  67.541  1.00  0.00    -0.236 C  
HETATM   16  N   UNL     1     -10.196  16.870  66.711  1.00  0.00    -0.299 N  
HETATM   17  H   UNL     1     -10.596  15.933  66.754  1.00  0.00     0.000 HD 
HETATM   18  C   UNL     1      -7.582  18.960  68.367  1.00  0.00    -0.308 C  
HETATM   19  C   UNL     1     -10.598  17.784  65.759  1.00  0.00    -0.175 C  
HETATM   20  N   UNL     1      -8.724  18.534  67.578  1.00  0.00    -0.261 NA 
HETATM   21  C   UNL     1     -10.338  19.279  65.935  1.00  0.00    -0.421 C  
HETATM   22  O   UNL     1     -11.083  17.461  64.674  1.00  0.00    -1.029 OA 
HETATM   23  H   UNL     1      -8.760  20.431  66.636  1.00  0.00     0.000 HD 
HETATM   24  N   UNL     1      -9.227  19.527  66.700  1.00  0.00    -0.335 N  
HETATM   25  O   UNL     1     -11.007  20.155  65.411  1.00  0.00    -0.238 OA 
ENDBRANCH  14  15
ENDBRANCH  13  14
ENDBRANCH   4  13
BRANCH   6  26
HETATM   26  N   UNL     1     -11.749  10.068  69.935  1.00  0.00    -0.422 N  
HETATM   27  O   UNL     1     -12.947   9.718  71.840  1.00  0.00    -0.385 OA 
HETATM   28  C   UNL     1     -12.218   9.243  70.971  1.00  0.00    -0.255 C  
HETATM   29  H   UNL     1     -12.034  11.041  70.046  1.00  0.00     0.000 HD 
BRANCH  28  30
HETATM   30  C   UNL     1     -11.711   7.842  71.180  1.00  0.00    -0.284 C  
BRANCH  30  31
HETATM   31  C   UNL     1     -10.695   7.460  72.170  1.00  0.00    -0.225 A  
HETATM   32  H2  UNL     1      -7.737   8.139  75.186  1.00  0.00     0.000 HD 
HETATM   33  C   UNL     1     -10.882   6.383  73.021  1.00  0.00    -0.259 A  
HETATM   34  H1  UNL     1      -7.700   9.376  73.928  1.00  0.00     0.000 HD 
HETATM   35  N   UNL     1      -9.658   8.320  72.568  1.00  0.00    -0.276 NA 
HETATM   36  N   UNL     1      -8.099   8.519  74.311  1.00  0.00    -0.350 NA 
HETATM   37  S   UNL     1      -9.768   6.440  74.318  1.00  0.00    -0.306 SA 
HETATM   38  C   UNL     1      -9.096   7.885  73.673  1.00  0.00    -0.273 A  
ENDBRANCH  30  31
BRANCH  30  39
HETATM   39  N   UNL     1     -11.952   6.872  70.361  1.00  0.00    -0.584 NA 
HETATM   40  H   UNL     1     -12.919   6.589  70.201  1.00  0.00     0.000 HD 
BRANCH  39  41
HETATM   41  O   UNL     1     -10.931   6.200  69.690  1.00  0.00    -0.316 OA 
HETATM   42  C   UNL     1     -10.848   6.170  68.278  1.00  0.00    -0.306 C  
ENDBRANCH  39  41
ENDBRANCH  30  39
ENDBRANCH  28  30
ENDBRANCH   6  26
TORSDOF 8
ENDMDL
MODEL       42
REMARK 921   NORMALIZED FREE ENERGY PREDICTED BY IDOCK:   -6.96 KCAL/MOL
REMARK 922        TOTAL FREE ENERGY PREDICTED BY IDOCK:  -11.47 KCAL/MOL
REMARK 923 INTER-LIGAND FREE ENERGY PREDICTED BY IDOCK:   -9.85 KCAL/MOL
REMARK 924 INTRA-LIGAND FREE ENERGY PREDICTED BY IDOCK:   -1.62 KCAL/MOL
REMARK 927      BINDING AFFINITY PREDICTED BY RF-SCORE:    0.00 PKD
ROOT
HETATM    1  C   UNL     1      -9.951   8.362  70.135  1.00  0.00    -0.187 C  
HETATM    2  S   UNL     1      -8.937   9.460  69.184  1.00  0.00    -0.154 SA 
HETATM    3  C   UNL     1      -9.937  10.989  69.052  1.00  0.00    -0.167 C  
HETATM    4  C   UNL     1     -11.256  11.070  69.767  1.00  0.00    -0.339 C  
HETATM    5  CA  UNL     1     -11.799  10.050  70.498  1.00  0.00    -0.303 C  
HETATM    6  CA  UNL     1     -10.588   6.942  69.812  1.00  0.00    -0.233 C  
HETATM    7  C   UNL     1     -11.759   7.533  70.657  1.00  0.00    -0.215 C  
HETATM    8  N   UNL     1     -11.261   8.791  70.526  1.00  0.00    -0.256 N  
HETATM    9  C   UNL     1     -13.048  10.312  71.299  1.00  0.00    -0.398 C  
HETATM   10  O   UNL     1     -12.828   7.097  71.010  1.00  0.00    -0.341 OA 
HETATM   11  O   UNL     1     -13.973   9.334  71.358  1.00  0.00    -0.318 OA 
HETATM   12  OXT UNL     1     -13.227  11.360  71.899  1.00  0.00    -0.484 OA 
ENDROOT
BRANCH   4  13
HETATM   13  C   UNL     1     -12.049  12.398  69.566  1.00  0.00    -0.189 C  
BRANCH  13  14
HETATM   14  S   UNL     1     -11.179  13.935  69.063  1.00  0.00    -0.284 SA 
BRANCH  14  15
HETATM   15  C   UNL     1     -11.495  14.153  67.324  1.00  0.00    -0.350 C  
HETATM   16  N   UNL     1     -12.309  13.298  66.811  1.00  0.00    -0.265 N  
HETATM   17  H   UNL     1     -12.819  12.630  67.390  1.00  0.00     0.000 HD 
HETATM   18  C   UNL     1      -9.734  15.985  67.111  1.00  0.00    -0.228 C  
HETATM   19  C   UNL     1     -12.460  13.329  65.440  1.00  0.00    -0.489 C  
HETATM   20  N   UNL     1     -10.792  15.127  66.610  1.00  0.00    -0.316 NA 
HETATM   21  C   UNL     1     -12.054  14.555  64.624  1.00  0.00    -0.473 C  
HETATM   22  O   UNL     1     -12.817  12.355  64.777  1.00  0.00    -0.728 OA 
HETATM   23  H   UNL     1     -10.469  15.895  64.662  1.00  0.00     0.000 HD 
HETATM   24  N   UNL     1     -11.044  15.265  65.221  1.00  0.00    -0.371 N  
HETATM   25  O   UNL     1     -12.533  14.843  63.540  1.00  0.00    -0.572 OA 
ENDBRANCH  14  15
ENDBRANCH  13  14
ENDBRANCH   4  13
BRANCH   6  26
HETATM   26  N   UNL     1     -11.103   6.250  68.542  1.00  0.00    -0.438 N  
HETATM   27  O   UNL     1     -11.381   5.629  66.369  1.00  0.00     0.063 OA 
HETATM   28  C   UNL     1     -10.716   6.255  67.192  1.00  0.00    -0.359 C  
HETATM   29  H   UNL     1     -11.909   5.651  68.719  1.00  0.00     0.000 HD 
BRANCH  28  30
HETATM   30  C   UNL     1      -9.407   6.836  66.729  1.00  0.00    -0.160 C  
BRANCH  30  31
HETATM   31  C   UNL     1      -8.093   6.464  67.268  1.00  0.00    -0.113 A  
HETATM   32  H2  UNL     1      -5.281   3.991  69.339  1.00  0.00     0.000 HD 
HETATM   33  C   UNL     1      -6.930   6.657  66.540  1.00  0.00    -0.066 A  
HETATM   34  H1  UNL     1      -6.876   3.957  70.090  1.00  0.00     0.000 HD 
HETATM   35  N   UNL     1      -7.934   5.598  68.363  1.00  0.00    -0.099 NA 
HETATM   36  N   UNL     1      -6.251   4.305  69.364  1.00  0.00    -0.027 NA 
HETATM   37  S   UNL     1      -5.640   5.760  67.215  1.00  0.00    -0.013 SA 
HETATM   38  C   UNL     1      -6.693   5.173  68.440  1.00  0.00    -0.054 A  
ENDBRANCH  30  31
BRANCH  30  39
HETATM   39  N   UNL     1      -9.323   7.878  65.971  1.00  0.00    -0.383 NA 
HETATM   40  H   UNL     1      -8.604   7.908  65.249  1.00  0.00     0.000 HD 
BRANCH  39  41
HETATM   41  O   UNL     1     -10.187   8.965  66.110  1.00  0.00    -0.259 OA 
HETATM   42  C   UNL     1      -9.899  10.233  65.554  1.00  0.00    -0.282 C  
ENDBRANCH  39  41
ENDBRANCH  30  39
ENDBRANCH  28  30
ENDBRANCH   6  26
TORSDOF 8
ENDMDL
MODEL       43
REMARK 921   NORMALIZED FREE ENERGY PREDICTED BY IDOCK:   -6.95 KCAL/MOL
REMARK 922        TOTAL FREE ENERGY PREDICTED BY IDOCK:  -11.46 KCAL/MOL
REMARK 923 INTER-LIGAND FREE ENERGY PREDICTED BY IDOCK:   -8.84 KCAL/MOL
REMARK 924 INTRA-LIGAND FREE ENERGY PREDICTED BY IDOCK:   -2.62 KCAL/MOL
REMARK 927      BINDING AFFINITY PREDICTED BY RF-SCORE:    0.00 PKD
ROOT
HETATM    1  C   UNL     1     -10.906   7.612  69.456  1.00  0.00    -0.165 C  
HETATM    2  S   UNL     1     -11.305   8.620  70.858  1.00  0.00    -0.275 SA 
HETATM    3  C   UNL     1     -11.050  10.333  70.262  1.00  0.00    -0.319 C  
HETATM    4  C   UNL     1     -10.675  10.566  68.826  1.00  0.00    -0.249 C  
HETATM    5  CA  UNL     1     -10.469   9.569  67.913  1.00  0.00    -0.241 C  
HETATM    6  CA  UNL     1      -9.800   6.496  69.219  1.00  0.00    -0.148 C  
HETATM    7  C   UNL     1      -9.778   7.145  67.801  1.00  0.00    -0.138 C  
HETATM    8  N   UNL     1     -10.434   8.244  68.259  1.00  0.00    -0.191 N  
HETATM    9  C   UNL     1     -10.258   9.936  66.468  1.00  0.00    -0.222 C  
HETATM   10  O   UNL     1      -9.159   6.911  66.791  1.00  0.00    -0.134 OA 
HETATM   11  O   UNL     1      -9.360   9.220  65.762  1.00  0.00    -0.208 OA 
HETATM   12  OXT UNL     1     -10.883  10.836  65.928  1.00  0.00    -0.138 OA 
ENDROOT
BRANCH   4  13
HETATM   13  C   UNL     1     -10.447  12.055  68.424  1.00  0.00    -0.219 C  
BRANCH  13  14
HETATM   14  S   UNL     1     -11.850  13.241  68.409  1.00  0.00    -0.332 SA 
BRANCH  14  15
HETATM   15  C   UNL     1     -11.722  14.159  66.888  1.00  0.00    -0.414 C  
HETATM   16  N   UNL     1     -12.409  13.683  65.909  1.00  0.00    -0.462 N  
HETATM   17  H   UNL     1     -13.063  12.912  66.040  1.00  0.00     0.000 HD 
HETATM   18  C   UNL     1      -9.912  15.692  67.825  1.00  0.00    -0.223 C  
HETATM   19  C   UNL     1     -12.216  14.266  64.674  1.00  0.00    -0.454 C  
HETATM   20  N   UNL     1     -10.838  15.239  66.803  1.00  0.00    -0.312 NA 
HETATM   21  C   UNL     1     -11.588  15.652  64.539  1.00  0.00    -0.262 C  
HETATM   22  O   UNL     1     -12.427  13.681  63.611  1.00  0.00    -0.728 OA 
HETATM   23  H   UNL     1     -10.024  16.659  65.459  1.00  0.00     0.000 HD 
HETATM   24  N   UNL     1     -10.736  15.938  65.574  1.00  0.00    -0.375 N  
HETATM   25  O   UNL     1     -11.777  16.398  63.593  1.00  0.00    -0.933 OA 
ENDBRANCH  14  15
ENDBRANCH  13  14
ENDBRANCH   4  13
BRANCH   6  26
HETATM   26  N   UNL     1      -8.380   6.249  69.747  1.00  0.00    -0.124 N  
HETATM   27  O   UNL     1      -6.233   6.571  70.435  1.00  0.00    -0.033 OA 
HETATM   28  C   UNL     1      -7.299   7.078  70.090  1.00  0.00    -0.081 C  
HETATM   29  H   UNL     1      -8.175   5.259  69.879  1.00  0.00     0.000 HD 
BRANCH  28  30
HETATM   30  C   UNL     1      -7.441   8.568  70.242  1.00  0.00    -0.064 C  
BRANCH  30  31
HETATM   31  C   UNL     1      -6.889   9.558  69.308  1.00  0.00    -0.049 A  
HETATM   32  H2  UNL     1      -6.272  11.412  65.501  1.00  0.00     0.000 HD 
HETATM   33  C   UNL     1      -6.815  10.902  69.637  1.00  0.00    -0.137 A  
HETATM   34  H1  UNL     1      -6.375   9.655  65.376  1.00  0.00     0.000 HD 
HETATM   35  N   UNL     1      -6.727   9.305  67.936  1.00  0.00    -0.070 NA 
HETATM   36  N   UNL     1      -6.382  10.501  65.947  1.00  0.00    -0.119 NA 
HETATM   37  S   UNL     1      -6.545  11.850  68.240  1.00  0.00    -0.058 SA 
HETATM   38  C   UNL     1      -6.533  10.426  67.278  1.00  0.00    -0.067 A  
ENDBRANCH  30  31
BRANCH  30  39
HETATM   39  N   UNL     1      -7.867   9.132  71.323  1.00  0.00    -0.324 NA 
HETATM   40  H   UNL     1      -8.449   9.966  71.249  1.00  0.00     0.000 HD 
BRANCH  39  41
HETATM   41  O   UNL     1      -7.555   8.636  72.589  1.00  0.00    -0.325 OA 
HETATM   42  C   UNL     1      -8.538   8.095  73.450  1.00  0.00    -0.247 C  
ENDBRANCH  39  41
ENDBRANCH  30  39
ENDBRANCH  28  30
ENDBRANCH   6  26
TORSDOF 8
ENDMDL
MODEL       44
REMARK 921   NORMALIZED FREE ENERGY PREDICTED BY IDOCK:   -6.95 KCAL/MOL
REMARK 922        TOTAL FREE ENERGY PREDICTED BY IDOCK:  -11.46 KCAL/MOL
REMARK 923 INTER-LIGAND FREE ENERGY PREDICTED BY IDOCK:   -9.94 KCAL/MOL
REMARK 924 INTRA-LIGAND FREE ENERGY PREDICTED BY IDOCK:   -1.52 KCAL/MOL
REMARK 927      BINDING AFFINITY PREDICTED BY RF-SCORE:    0.00 PKD
ROOT
HETATM    1  C   UNL     1      -7.860  12.250  67.221  1.00  0.00    -0.171 C  
HETATM    2  S   UNL     1      -6.805  12.467  68.628  1.00  0.00    -0.092 SA 
HETATM    3  C   UNL     1      -6.987  10.904  69.566  1.00  0.00    -0.131 C  
HETATM    4  C   UNL     1      -7.833   9.799  69.000  1.00  0.00    -0.087 C  
HETATM    5  CA  UNL     1      -8.526   9.886  67.824  1.00  0.00    -0.118 C  
HETATM    6  CA  UNL     1      -9.136  13.044  66.707  1.00  0.00    -0.210 C  
HETATM    7  C   UNL     1      -9.587  11.604  66.312  1.00  0.00    -0.221 C  
HETATM    8  N   UNL     1      -8.640  11.053  67.116  1.00  0.00    -0.134 N  
HETATM    9  C   UNL     1      -9.205   8.654  67.286  1.00  0.00    -0.140 C  
HETATM   10  O   UNL     1     -10.571  11.163  65.768  1.00  0.00    -0.259 OA 
HETATM   11  O   UNL     1     -10.405   8.807  66.691  1.00  0.00    -0.279 OA 
HETATM   12  OXT UNL     1      -8.694   7.547  67.357  1.00  0.00    -0.124 OA 
ENDROOT
BRANCH   4  13
HETATM   13  C   UNL     1      -7.954   8.523  69.888  1.00  0.00    -0.106 C  
BRANCH  13  14
HETATM   14  S   UNL     1      -8.483   8.655  71.642  1.00  0.00    -0.145 SA 
BRANCH  14  15
HETATM   15  C   UNL     1     -10.245   8.911  71.623  1.00  0.00    -0.345 C  
HETATM   16  N   UNL     1     -10.639   9.914  70.920  1.00  0.00    -0.350 N  
HETATM   17  H   UNL     1      -9.995  10.438  70.328  1.00  0.00     0.000 HD 
HETATM   18  C   UNL     1     -10.647   7.097  73.371  1.00  0.00    -0.382 C  
HETATM   19  C   UNL     1     -11.976  10.245  71.004  1.00  0.00    -0.385 C  
HETATM   20  N   UNL     1     -11.069   8.114  72.424  1.00  0.00    -0.343 NA 
HETATM   21  C   UNL     1     -13.009   9.249  71.527  1.00  0.00    -0.359 C  
HETATM   22  O   UNL     1     -12.407  11.376  70.777  1.00  0.00    -0.365 OA 
HETATM   23  H   UNL     1     -13.072   7.856  73.064  1.00  0.00     0.000 HD 
HETATM   24  N   UNL     1     -12.466   8.353  72.412  1.00  0.00    -0.357 N  
HETATM   25  O   UNL     1     -14.194   9.278  71.235  1.00  0.00    -0.193 OA 
ENDBRANCH  14  15
ENDBRANCH  13  14
ENDBRANCH   4  13
BRANCH   6  26
HETATM   26  N   UNL     1     -10.272  13.824  67.385  1.00  0.00    -0.250 N  
HETATM   27  O   UNL     1     -11.668  15.504  68.031  1.00  0.00    -0.322 OA 
HETATM   28  C   UNL     1     -10.754  15.140  67.294  1.00  0.00    -0.305 C  
HETATM   29  H   UNL     1     -10.795  13.258  68.053  1.00  0.00     0.000 HD 
BRANCH  28  30
HETATM   30  C   UNL     1     -10.333  16.080  66.196  1.00  0.00    -0.328 C  
BRANCH  30  31
HETATM   31  C   UNL     1      -9.788  17.426  66.413  1.00  0.00    -0.302 A  
HETATM   32  H2  UNL     1      -7.058  20.671  65.841  1.00  0.00     0.000 HD 
HETATM   33  C   UNL     1     -10.614  18.535  66.513  1.00  0.00    -0.334 A  
HETATM   34  H1  UNL     1      -6.249  19.105  65.791  1.00  0.00     0.000 HD 
HETATM   35  N   UNL     1      -8.439  17.748  66.193  1.00  0.00    -0.493 NA 
HETATM   36  N   UNL     1      -7.101  19.654  65.905  1.00  0.00    -0.278 NA 
HETATM   37  S   UNL     1      -9.712  19.976  66.332  1.00  0.00    -0.436 SA 
HETATM   38  C   UNL     1      -8.276  19.051  66.140  1.00  0.00    -0.231 A  
ENDBRANCH  30  31
BRANCH  30  39
HETATM   39  N   UNL     1     -10.615  15.886  64.951  1.00  0.00    -0.651 NA 
HETATM   40  H   UNL     1     -10.587  16.677  64.308  1.00  0.00     0.000 HD 
BRANCH  39  41
HETATM   41  O   UNL     1     -10.958  14.627  64.458  1.00  0.00    -0.339 OA 
HETATM   42  C   UNL     1     -12.303  14.223  64.288  1.00  0.00    -0.377 C  
ENDBRANCH  39  41
ENDBRANCH  30  39
ENDBRANCH  28  30
ENDBRANCH   6  26
TORSDOF 8
ENDMDL
MODEL       45
REMARK 921   NORMALIZED FREE ENERGY PREDICTED BY IDOCK:   -6.89 KCAL/MOL
REMARK 922        TOTAL FREE ENERGY PREDICTED BY IDOCK:  -11.37 KCAL/MOL
REMARK 923 INTER-LIGAND FREE ENERGY PREDICTED BY IDOCK:   -8.87 KCAL/MOL
REMARK 924 INTRA-LIGAND FREE ENERGY PREDICTED BY IDOCK:   -2.51 KCAL/MOL
REMARK 927      BINDING AFFINITY PREDICTED BY RF-SCORE:    0.00 PKD
ROOT
HETATM    1  C   UNL     1     -10.068  10.562  66.604  1.00  0.00    -0.222 C  
HETATM    2  S   UNL     1      -9.750  11.114  68.257  1.00  0.00    -0.194 SA 
HETATM    3  C   UNL     1     -10.449  12.806  68.304  1.00  0.00    -0.241 C  
HETATM    4  C   UNL     1     -11.168  13.341  67.098  1.00  0.00    -0.327 C  
HETATM    5  CA  UNL     1     -11.314  12.655  65.923  1.00  0.00    -0.334 C  
HETATM    6  CA  UNL     1      -9.106  10.111  65.422  1.00  0.00    -0.188 C  
HETATM    7  C   UNL     1     -10.187  10.848  64.571  1.00  0.00    -0.356 C  
HETATM    8  N   UNL     1     -10.682  11.466  65.676  1.00  0.00    -0.261 N  
HETATM    9  C   UNL     1     -12.195  13.233  64.847  1.00  0.00    -0.420 C  
HETATM   10  O   UNL     1     -10.323  11.036  63.386  1.00  0.00    -0.355 OA 
HETATM   11  O   UNL     1     -11.798  13.091  63.567  1.00  0.00    -0.504 OA 
HETATM   12  OXT UNL     1     -13.247  13.798  65.102  1.00  0.00    -0.757 OA 
ENDROOT
BRANCH   4  13
HETATM   13  C   UNL     1     -11.697  14.802  67.223  1.00  0.00    -0.347 C  
BRANCH  13  14
HETATM   14  S   UNL     1     -10.924  15.975  68.406  1.00  0.00    -0.346 SA 
BRANCH  14  15
HETATM   15  C   UNL     1      -9.596  16.777  67.532  1.00  0.00    -0.240 C  
HETATM   16  N   UNL     1      -8.624  16.004  67.197  1.00  0.00    -0.182 N  
HETATM   17  H   UNL     1      -8.677  14.993  67.321  1.00  0.00     0.000 HD 
HETATM   18  C   UNL     1     -10.607  19.093  67.880  1.00  0.00    -0.365 C  
HETATM   19  C   UNL     1      -7.505  16.608  66.661  1.00  0.00    -0.276 C  
HETATM   20  N   UNL     1      -9.622  18.164  67.357  1.00  0.00    -0.271 NA 
HETATM   21  C   UNL     1      -7.566  18.023  66.086  1.00  0.00    -0.250 C  
HETATM   22  O   UNL     1      -6.380  16.111  66.708  1.00  0.00    -0.296 OA 
HETATM   23  H   UNL     1      -8.488  19.800  66.632  1.00  0.00     0.000 HD 
HETATM   24  N   UNL     1      -8.541  18.783  66.679  1.00  0.00    -0.293 N  
HETATM   25  O   UNL     1      -6.801  18.447  65.236  1.00  0.00    -0.520 OA 
ENDBRANCH  14  15
ENDBRANCH  13  14
ENDBRANCH   4  13
BRANCH   6  26
HETATM   26  N   UNL     1      -7.686  10.488  64.977  1.00  0.00    -0.302 N  
HETATM   27  O   UNL     1      -5.489  11.088  65.008  1.00  0.00    -0.152 OA 
HETATM   28  C   UNL     1      -6.477  10.734  65.649  1.00  0.00    -0.042 C  
HETATM   29  H   UNL     1      -7.601  10.581  63.965  1.00  0.00     0.000 HD 
BRANCH  28  30
HETATM   30  C   UNL     1      -6.277  10.398  67.102  1.00  0.00    -0.062 C  
BRANCH  30  31
HETATM   31  C   UNL     1      -5.997  11.382  68.155  1.00  0.00    -0.045 A  
HETATM   32  H2  UNL     1      -6.688  14.897  70.495  1.00  0.00     0.000 HD 
HETATM   33  C   UNL     1      -5.568  10.993  69.414  1.00  0.00    -0.042 A  
HETATM   34  H1  UNL     1      -7.129  15.128  68.803  1.00  0.00     0.000 HD 
HETATM   35  N   UNL     1      -6.457  12.708  68.101  1.00  0.00    -0.071 NA 
HETATM   36  N   UNL     1      -6.758  14.533  69.545  1.00  0.00    -0.142 NA 
HETATM   37  S   UNL     1      -5.738  12.277  70.531  1.00  0.00    -0.115 SA 
HETATM   38  C   UNL     1      -6.362  13.279  69.281  1.00  0.00    -0.108 A  
ENDBRANCH  30  31
BRANCH  30  39
HETATM   39  N   UNL     1      -6.110   9.192  67.533  1.00  0.00    -0.050 NA 
HETATM   40  H   UNL     1      -5.361   9.004  68.199  1.00  0.00     0.000 HD 
BRANCH  39  41
HETATM   41  O   UNL     1      -6.924   8.138  67.116  1.00  0.00    -0.072 OA 
HETATM   42  C   UNL     1      -7.950   7.607  67.932  1.00  0.00    -0.118 C  
ENDBRANCH  39  41
ENDBRANCH  30  39
ENDBRANCH  28  30
ENDBRANCH   6  26
TORSDOF 8
ENDMDL
MODEL       46
REMARK 921   NORMALIZED FREE ENERGY PREDICTED BY IDOCK:   -6.88 KCAL/MOL
REMARK 922        TOTAL FREE ENERGY PREDICTED BY IDOCK:  -11.36 KCAL/MOL
REMARK 923 INTER-LIGAND FREE ENERGY PREDICTED BY IDOCK:   -9.64 KCAL/MOL
REMARK 924 INTRA-LIGAND FREE ENERGY PREDICTED BY IDOCK:   -1.72 KCAL/MOL
REMARK 927      BINDING AFFINITY PREDICTED BY RF-SCORE:    0.00 PKD
ROOT
HETATM    1  C   UNL     1     -11.026  12.416  69.547  1.00  0.00     0.077 C  
HETATM    2  S   UNL     1     -12.344  12.185  70.708  1.00  0.00    -0.183 SA 
HETATM    3  C   UNL     1     -12.186  10.434  71.221  1.00  0.00    -0.389 C  
HETATM    4  C   UNL     1     -11.042   9.613  70.696  1.00  0.00    -0.384 C  
HETATM    5  CA  UNL     1     -10.105  10.075  69.813  1.00  0.00    -0.248 C  
HETATM    6  CA  UNL     1     -11.010  12.818  68.010  1.00  0.00    -0.239 C  
HETATM    7  C   UNL     1      -9.828  11.799  67.993  1.00  0.00    -0.183 C  
HETATM    8  N   UNL     1     -10.205  11.294  69.197  1.00  0.00    -0.154 N  
HETATM    9  C   UNL     1      -8.918   9.206  69.490  1.00  0.00    -0.151 C  
HETATM   10  O   UNL     1      -9.083  11.410  67.127  1.00  0.00    -0.159 OA 
HETATM   11  O   UNL     1      -8.466   9.206  68.220  1.00  0.00    -0.123 OA 
HETATM   12  OXT UNL     1      -8.355   8.533  70.340  1.00  0.00    -0.111 OA 
ENDROOT
BRANCH   4  13
HETATM   13  C   UNL     1     -11.013   8.126  71.162  1.00  0.00    -0.237 C  
BRANCH  13  14
HETATM   14  S   UNL     1     -11.713   6.802  70.098  1.00  0.00    -0.246 SA 
BRANCH  14  15
HETATM   15  C   UNL     1     -10.329   5.912  69.418  1.00  0.00    -0.247 C  
HETATM   16  N   UNL     1      -9.503   5.448  70.288  1.00  0.00    -0.156 N  
HETATM   17  H   UNL     1      -9.699   5.490  71.288  1.00  0.00     0.000 HD 
HETATM   18  C   UNL     1     -10.962   6.520  67.023  1.00  0.00    -0.396 C  
HETATM   19  C   UNL     1      -8.337   4.892  69.804  1.00  0.00    -0.076 C  
HETATM   20  N   UNL     1     -10.157   5.855  68.031  1.00  0.00    -0.148 NA 
HETATM   21  C   UNL     1      -8.216   4.443  68.349  1.00  0.00    -0.085 C  
HETATM   22  O   UNL     1      -7.298   4.821  70.461  1.00  0.00    -0.048 OA 
HETATM   23  H   UNL     1      -8.832   5.197  66.515  1.00  0.00     0.000 HD 
HETATM   24  N   UNL     1      -9.033   5.161  67.514  1.00  0.00    -0.109 N  
HETATM   25  O   UNL     1      -7.443   3.582  67.961  1.00  0.00    -0.060 OA 
ENDBRANCH  14  15
ENDBRANCH  13  14
ENDBRANCH   4  13
BRANCH   6  26
HETATM   26  N   UNL     1     -11.959  12.600  66.824  1.00  0.00    -0.359 N  
HETATM   27  O   UNL     1     -12.919  12.715  64.761  1.00  0.00    -0.816 OA 
HETATM   28  C   UNL     1     -11.961  13.000  65.477  1.00  0.00    -0.424 C  
HETATM   29  H   UNL     1     -12.774  12.037  67.068  1.00  0.00     0.000 HD 
BRANCH  28  30
HETATM   30  C   UNL     1     -10.751  13.599  64.812  1.00  0.00    -0.410 C  
BRANCH  30  31
HETATM   31  C   UNL     1     -10.184  14.914  65.138  1.00  0.00    -0.375 A  
HETATM   32  H2  UNL     1     -10.290  19.101  66.012  1.00  0.00     0.000 HD 
HETATM   33  C   UNL     1      -9.163  15.053  66.065  1.00  0.00    -0.210 A  
HETATM   34  H1  UNL     1     -11.496  18.642  64.809  1.00  0.00     0.000 HD 
HETATM   35  N   UNL     1     -10.831  16.121  64.827  1.00  0.00    -0.669 NA 
HETATM   36  N   UNL     1     -10.731  18.386  65.433  1.00  0.00    -0.525 NA 
HETATM   37  S   UNL     1      -9.008  16.686  66.550  1.00  0.00    -0.300 SA 
HETATM   38  C   UNL     1     -10.298  17.118  65.498  1.00  0.00    -0.115 A  
ENDBRANCH  30  31
BRANCH  30  39
HETATM   39  N   UNL     1     -10.223  13.117  63.736  1.00  0.00    -0.706 NA 
HETATM   40  H   UNL     1      -9.806  13.757  63.060  1.00  0.00     0.000 HD 
BRANCH  39  41
HETATM   41  O   UNL     1     -10.206  11.748  63.470  1.00  0.00    -0.370 OA 
HETATM   42  C   UNL     1      -9.080  11.102  62.908  1.00  0.00    -0.302 C  
ENDBRANCH  39  41
ENDBRANCH  30  39
ENDBRANCH  28  30
ENDBRANCH   6  26
TORSDOF 8
ENDMDL
MODEL       47
REMARK 921   NORMALIZED FREE ENERGY PREDICTED BY IDOCK:   -6.85 KCAL/MOL
REMARK 922        TOTAL FREE ENERGY PREDICTED BY IDOCK:  -11.32 KCAL/MOL
REMARK 923 INTER-LIGAND FREE ENERGY PREDICTED BY IDOCK:   -9.35 KCAL/MOL
REMARK 924 INTRA-LIGAND FREE ENERGY PREDICTED BY IDOCK:   -1.97 KCAL/MOL
REMARK 927      BINDING AFFINITY PREDICTED BY RF-SCORE:    0.00 PKD
ROOT
HETATM    1  C   UNL     1      -8.957   6.814  68.248  1.00  0.00    -0.123 C  
HETATM    2  S   UNL     1     -10.646   7.303  68.027  1.00  0.00    -0.161 SA 
HETATM    3  C   UNL     1     -10.534   8.910  67.155  1.00  0.00    -0.274 C  
HETATM    4  C   UNL     1      -9.186   9.434  66.745  1.00  0.00    -0.179 C  
HETATM    5  CA  UNL     1      -8.002   8.804  67.013  1.00  0.00    -0.095 C  
HETATM    6  CA  UNL     1      -8.086   6.531  69.546  1.00  0.00    -0.118 C  
HETATM    7  C   UNL     1      -6.981   7.200  68.669  1.00  0.00    -0.082 C  
HETATM    8  N   UNL     1      -7.916   7.701  67.819  1.00  0.00    -0.119 N  
HETATM    9  C   UNL     1      -6.735   9.348  66.407  1.00  0.00    -0.075 C  
HETATM   10  O   UNL     1      -5.812   7.438  68.850  1.00  0.00    -0.022 OA 
HETATM   11  O   UNL     1      -5.617   9.319  67.159  1.00  0.00    -0.040 OA 
HETATM   12  OXT UNL     1      -6.695   9.787  65.269  1.00  0.00    -0.087 OA 
ENDROOT
BRANCH   4  13
HETATM   13  C   UNL     1      -9.192  10.824  66.040  1.00  0.00    -0.187 C  
BRANCH  13  14
HETATM   14  S   UNL     1     -10.115  11.069  64.470  1.00  0.00    -0.346 SA 
BRANCH  14  15
HETATM   15  C   UNL     1     -10.651  12.767  64.455  1.00  0.00    -0.360 C  
HETATM   16  N   UNL     1      -9.796  13.608  64.922  1.00  0.00    -0.606 N  
HETATM   17  H   UNL     1      -8.846  13.327  65.165  1.00  0.00     0.000 HD 
HETATM   18  C   UNL     1     -13.006  12.142  63.702  1.00  0.00    -0.213 C  
HETATM   19  C   UNL     1     -10.227  14.910  65.078  1.00  0.00    -0.330 C  
HETATM   20  N   UNL     1     -11.954  13.077  64.058  1.00  0.00    -0.423 NA 
HETATM   21  C   UNL     1     -11.462  15.430  64.345  1.00  0.00    -0.255 C  
HETATM   22  O   UNL     1      -9.728  15.695  65.884  1.00  0.00    -0.307 OA 
HETATM   23  H   UNL     1     -13.341  14.671  63.894  1.00  0.00     0.000 HD 
HETATM   24  N   UNL     1     -12.366  14.434  64.078  1.00  0.00    -0.356 N  
HETATM   25  O   UNL     1     -11.651  16.605  64.074  1.00  0.00    -1.197 OA 
ENDBRANCH  14  15
ENDBRANCH  13  14
ENDBRANCH   4  13
BRANCH   6  26
HETATM   26  N   UNL     1      -8.071   7.075  70.982  1.00  0.00    -0.104 N  
HETATM   27  O   UNL     1      -8.204   8.473  72.775  1.00  0.00    -0.332 OA 
HETATM   28  C   UNL     1      -8.377   8.314  71.568  1.00  0.00    -0.138 C  
HETATM   29  H   UNL     1      -7.773   6.379  71.664  1.00  0.00     0.000 HD 
BRANCH  28  30
HETATM   30  C   UNL     1      -9.092   9.407  70.820  1.00  0.00    -0.204 C  
BRANCH  30  31
HETATM   31  C   UNL     1     -10.551   9.562  70.763  1.00  0.00    -0.317 A  
HETATM   32  H2  UNL     1     -14.555   9.390  72.264  1.00  0.00     0.000 HD 
HETATM   33  C   UNL     1     -11.141  10.669  70.175  1.00  0.00    -0.268 A  
HETATM   34  H1  UNL     1     -13.569   8.048  72.845  1.00  0.00     0.000 HD 
HETATM   35  N   UNL     1     -11.429   8.821  71.573  1.00  0.00    -0.282 NA 
HETATM   36  N   UNL     1     -13.663   8.894  72.285  1.00  0.00    -0.453 NA 
HETATM   37  S   UNL     1     -12.785  10.790  70.629  1.00  0.00    -0.301 SA 
HETATM   38  C   UNL     1     -12.626   9.362  71.574  1.00  0.00    -0.362 A  
ENDBRANCH  30  31
BRANCH  30  39
HETATM   39  N   UNL     1      -8.507  10.184  69.971  1.00  0.00    -0.364 NA 
HETATM   40  H   UNL     1      -9.051  10.575  69.201  1.00  0.00     0.000 HD 
BRANCH  39  41
HETATM   41  O   UNL     1      -7.153  10.506  70.073  1.00  0.00    -0.154 OA 
HETATM   42  C   UNL     1      -6.618  11.699  69.533  1.00  0.00    -0.111 C  
ENDBRANCH  39  41
ENDBRANCH  30  39
ENDBRANCH  28  30
ENDBRANCH   6  26
TORSDOF 8
ENDMDL
MODEL       48
REMARK 921   NORMALIZED FREE ENERGY PREDICTED BY IDOCK:   -6.80 KCAL/MOL
REMARK 922        TOTAL FREE ENERGY PREDICTED BY IDOCK:  -11.25 KCAL/MOL
REMARK 923 INTER-LIGAND FREE ENERGY PREDICTED BY IDOCK:   -9.17 KCAL/MOL
REMARK 924 INTRA-LIGAND FREE ENERGY PREDICTED BY IDOCK:   -2.07 KCAL/MOL
REMARK 927      BINDING AFFINITY PREDICTED BY RF-SCORE:    0.00 PKD
ROOT
HETATM    1  C   UNL     1      -9.596   5.454  70.074  1.00  0.00    -0.169 C  
HETATM    2  S   UNL     1     -11.147   6.125  69.544  1.00  0.00    -0.404 SA 
HETATM    3  C   UNL     1     -10.681   7.479  68.403  1.00  0.00    -0.067 C  
HETATM    4  C   UNL     1      -9.231   7.706  68.081  1.00  0.00    -0.138 C  
HETATM    5  CA  UNL     1      -8.202   6.981  68.617  1.00  0.00    -0.122 C  
HETATM    6  CA  UNL     1      -8.917   5.325  71.505  1.00  0.00    -0.135 C  
HETATM    7  C   UNL     1      -7.635   5.628  70.669  1.00  0.00    -0.090 C  
HETATM    8  N   UNL     1      -8.383   6.071  69.624  1.00  0.00    -0.117 N  
HETATM    9  C   UNL     1      -6.807   7.197  68.091  1.00  0.00    -0.074 C  
HETATM   10  O   UNL     1      -6.465   5.728  70.952  1.00  0.00    -0.037 OA 
HETATM   11  O   UNL     1      -5.790   7.164  68.974  1.00  0.00    -0.018 OA 
HETATM   12  OXT UNL     1      -6.581   7.377  66.904  1.00  0.00    -0.053 OA 
ENDROOT
BRANCH   4  13
HETATM   13  C   UNL     1      -8.932   8.903  67.129  1.00  0.00    -0.127 C  
BRANCH  13  14
HETATM   14  S   UNL     1      -9.409  10.613  67.604  1.00  0.00    -0.147 SA 
BRANCH  14  15
HETATM   15  C   UNL     1     -10.416  11.246  66.280  1.00  0.00    -0.258 C  
HETATM   16  N   UNL     1     -10.018  10.929  65.098  1.00  0.00    -0.263 N  
HETATM   17  H   UNL     1      -9.256  10.266  64.949  1.00  0.00     0.000 HD 
HETATM   18  C   UNL     1     -11.843  12.638  67.871  1.00  0.00    -0.332 C  
HETATM   19  C   UNL     1     -10.672  11.527  64.040  1.00  0.00    -0.384 C  
HETATM   20  N   UNL     1     -11.477  12.109  66.569  1.00  0.00    -0.380 NA 
HETATM   21  C   UNL     1     -12.048  12.167  64.217  1.00  0.00    -0.375 C  
HETATM   22  O   UNL     1     -10.160  11.685  62.932  1.00  0.00    -0.325 OA 
HETATM   23  H   UNL     1     -12.958  13.331  65.675  1.00  0.00     0.000 HD 
HETATM   24  N   UNL     1     -12.249  12.621  65.495  1.00  0.00    -0.460 N  
HETATM   25  O   UNL     1     -12.856  12.308  63.314  1.00  0.00    -0.719 OA 
ENDBRANCH  14  15
ENDBRANCH  13  14
ENDBRANCH   4  13
BRANCH   6  26
HETATM   26  N   UNL     1      -8.954   6.150  72.800  1.00  0.00    -0.127 N  
HETATM   27  O   UNL     1      -9.013   7.897  74.260  1.00  0.00    -0.195 OA 
HETATM   28  C   UNL     1      -9.082   7.518  73.092  1.00  0.00    -0.177 C  
HETATM   29  H   UNL     1      -8.865   5.574  73.637  1.00  0.00     0.000 HD 
BRANCH  28  30
HETATM   30  C   UNL     1      -9.497   8.529  72.058  1.00  0.00    -0.294 C  
BRANCH  30  31
HETATM   31  C   UNL     1     -10.889   8.846  71.712  1.00  0.00    -0.365 A  
HETATM   32  H2  UNL     1     -15.072   9.360  72.448  1.00  0.00     0.000 HD 
HETATM   33  C   UNL     1     -11.207   9.922  70.899  1.00  0.00    -0.360 A  
HETATM   34  H1  UNL     1     -14.400   8.005  73.354  1.00  0.00     0.000 HD 
HETATM   35  N   UNL     1     -11.987   8.334  72.423  1.00  0.00    -0.383 NA 
HETATM   36  N   UNL     1     -14.277   8.770  72.692  1.00  0.00    -0.534 NA 
HETATM   37  S   UNL     1     -12.870  10.299  71.021  1.00  0.00    -0.406 SA 
HETATM   38  C   UNL     1     -13.078   9.008  72.138  1.00  0.00    -0.435 A  
ENDBRANCH  30  31
BRANCH  30  39
HETATM   39  N   UNL     1      -8.674   9.057  71.214  1.00  0.00    -0.281 NA 
HETATM   40  H   UNL     1      -9.010   9.300  70.282  1.00  0.00     0.000 HD 
BRANCH  39  41
HETATM   41  O   UNL     1      -7.340   9.306  71.538  1.00  0.00    -0.323 OA 
HETATM   42  C   UNL     1      -6.466   9.993  70.663  1.00  0.00    -0.098 C  
ENDBRANCH  39  41
ENDBRANCH  30  39
ENDBRANCH  28  30
ENDBRANCH   6  26
TORSDOF 8
ENDMDL
MODEL       49
REMARK 921   NORMALIZED FREE ENERGY PREDICTED BY IDOCK:   -6.79 KCAL/MOL
REMARK 922        TOTAL FREE ENERGY PREDICTED BY IDOCK:  -11.23 KCAL/MOL
REMARK 923 INTER-LIGAND FREE ENERGY PREDICTED BY IDOCK:   -9.20 KCAL/MOL
REMARK 924 INTRA-LIGAND FREE ENERGY PREDICTED BY IDOCK:   -2.03 KCAL/MOL
REMARK 927      BINDING AFFINITY PREDICTED BY RF-SCORE:    0.00 PKD
ROOT
HETATM    1  C   UNL     1      -7.877  10.456  68.570  1.00  0.00    -0.107 C  
HETATM    2  S   UNL     1      -7.141  10.120  70.146  1.00  0.00    -0.136 SA 
HETATM    3  C   UNL     1      -7.564   8.368  70.472  1.00  0.00    -0.074 C  
HETATM    4  C   UNL     1      -8.302   7.581  69.426  1.00  0.00    -0.132 C  
HETATM    5  CA  UNL     1      -8.725   8.096  68.231  1.00  0.00    -0.133 C  
HETATM    6  CA  UNL     1      -8.991  11.489  68.106  1.00  0.00    -0.172 C  
HETATM    7  C   UNL     1      -9.389  10.293  67.185  1.00  0.00    -0.153 C  
HETATM    8  N   UNL     1      -8.651   9.431  67.933  1.00  0.00    -0.120 N  
HETATM    9  C   UNL     1      -9.308   7.165  67.202  1.00  0.00    -0.140 C  
HETATM   10  O   UNL     1     -10.246  10.140  66.348  1.00  0.00    -0.230 OA 
HETATM   11  O   UNL     1     -10.348   7.609  66.469  1.00  0.00    -0.222 OA 
HETATM   12  OXT UNL     1      -8.856   6.047  67.006  1.00  0.00    -0.113 OA 
ENDROOT
BRANCH   4  13
HETATM   13  C   UNL     1      -8.646   6.110  69.810  1.00  0.00    -0.132 C  
BRANCH  13  14
HETATM   14  S   UNL     1     -10.384   5.617  70.144  1.00  0.00    -0.294 SA 
BRANCH  14  15
HETATM   15  C   UNL     1     -11.183   7.032  70.871  1.00  0.00    -0.282 C  
HETATM   16  N   UNL     1     -11.479   7.972  70.042  1.00  0.00    -0.469 N  
HETATM   17  H   UNL     1     -11.369   7.851  69.035  1.00  0.00     0.000 HD 
HETATM   18  C   UNL     1     -10.859   6.148  73.241  1.00  0.00    -0.244 C  
HETATM   19  C   UNL     1     -11.952   9.150  70.582  1.00  0.00    -0.124 C  
HETATM   20  N   UNL     1     -11.344   7.100  72.258  1.00  0.00    -0.257 NA 
HETATM   21  C   UNL     1     -12.514   9.204  72.001  1.00  0.00    -0.382 C  
HETATM   22  O   UNL     1     -11.856  10.239  70.015  1.00  0.00    -0.256 OA 
HETATM   23  H   UNL     1     -11.994   8.365  73.828  1.00  0.00     0.000 HD 
HETATM   24  N   UNL     1     -11.961   8.249  72.815  1.00  0.00    -0.305 N  
HETATM   25  O   UNL     1     -13.321  10.034  72.386  1.00  0.00    -0.368 OA 
ENDBRANCH  14  15
ENDBRANCH  13  14
ENDBRANCH   4  13
BRANCH   6  26
HETATM   26  N   UNL     1     -10.222  12.124  68.767  1.00  0.00    -0.381 N  
HETATM   27  O   UNL     1     -11.881  13.585  69.315  1.00  0.00    -0.301 OA 
HETATM   28  C   UNL     1     -10.948  13.309  68.563  1.00  0.00    -0.266 C  
HETATM   29  H   UNL     1     -10.599  11.557  69.526  1.00  0.00     0.000 HD 
BRANCH  28  30
HETATM   30  C   UNL     1     -10.762  14.170  67.343  1.00  0.00    -0.284 C  
BRANCH  30  31
HETATM   31  C   UNL     1     -11.055  13.743  65.969  1.00  0.00    -0.291 A  
HETATM   32  H2  UNL     1     -10.402  11.593  62.327  1.00  0.00     0.000 HD 
HETATM   33  C   UNL     1     -12.345  13.441  65.563  1.00  0.00    -0.480 A  
HETATM   34  H1  UNL     1      -8.891  12.136  63.059  1.00  0.00     0.000 HD 
HETATM   35  N   UNL     1     -10.065  13.281  65.087  1.00  0.00    -0.266 NA 
HETATM   36  N   UNL     1      -9.910  12.086  63.073  1.00  0.00    -0.316 NA 
HETATM   37  S   UNL     1     -12.326  12.581  64.085  1.00  0.00    -0.454 SA 
HETATM   38  C   UNL     1     -10.609  12.664  64.062  1.00  0.00    -0.427 A  
ENDBRANCH  30  31
BRANCH  30  39
HETATM   39  N   UNL     1     -10.118  15.289  67.357  1.00  0.00    -0.231 NA 
HETATM   40  H   UNL     1      -9.226  15.340  67.849  1.00  0.00     0.000 HD 
BRANCH  39  41
HETATM   41  O   UNL     1     -10.605  16.431  66.721  1.00  0.00    -0.299 OA 
HETATM   42  C   UNL     1     -10.245  17.736  67.132  1.00  0.00    -0.353 C  
ENDBRANCH  39  41
ENDBRANCH  30  39
ENDBRANCH  28  30
ENDBRANCH   6  26
TORSDOF 8
ENDMDL
MODEL       50
REMARK 921   NORMALIZED FREE ENERGY PREDICTED BY IDOCK:   -6.78 KCAL/MOL
REMARK 922        TOTAL FREE ENERGY PREDICTED BY IDOCK:  -11.21 KCAL/MOL
REMARK 923 INTER-LIGAND FREE ENERGY PREDICTED BY IDOCK:   -9.89 KCAL/MOL
REMARK 924 INTRA-LIGAND FREE ENERGY PREDICTED BY IDOCK:   -1.32 KCAL/MOL
REMARK 927      BINDING AFFINITY PREDICTED BY RF-SCORE:    0.00 PKD
ROOT
HETATM    1  C   UNL     1     -10.994  15.596  67.381  1.00  0.00    -0.293 C  
HETATM    2  S   UNL     1     -10.347  15.236  65.771  1.00  0.00    -0.375 SA 
HETATM    3  C   UNL     1     -10.244  13.408  65.729  1.00  0.00    -0.295 C  
HETATM    4  C   UNL     1     -10.750  12.615  66.900  1.00  0.00    -0.264 C  
HETATM    5  CA  UNL     1     -11.264  13.169  68.041  1.00  0.00    -0.277 C  
HETATM    6  CA  UNL     1     -10.411  16.416  68.610  1.00  0.00    -0.293 C  
HETATM    7  C   UNL     1     -11.129  15.283  69.409  1.00  0.00    -0.280 C  
HETATM    8  N   UNL     1     -11.226  14.514  68.292  1.00  0.00    -0.265 N  
HETATM    9  C   UNL     1     -11.887  12.266  69.072  1.00  0.00    -0.305 C  
HETATM   10  O   UNL     1     -11.259  15.054  70.587  1.00  0.00    -0.272 OA 
HETATM   11  O   UNL     1     -11.687  12.563  70.371  1.00  0.00    -0.222 OA 
HETATM   12  OXT UNL     1     -12.572  11.302  68.764  1.00  0.00    -0.312 OA 
ENDROOT
BRANCH   4  13
HETATM   13  C   UNL     1     -10.588  11.069  66.785  1.00  0.00    -0.266 C  
BRANCH  13  14
HETATM   14  S   UNL     1      -9.209  10.210  67.644  1.00  0.00    -0.140 SA 
BRANCH  14  15
HETATM   15  C   UNL     1      -9.954   9.128  68.845  1.00  0.00    -0.180 C  
HETATM   16  N   UNL     1      -9.958   9.578  70.051  1.00  0.00    -0.221 N  
HETATM   17  H   UNL     1      -9.665  10.531  70.268  1.00  0.00     0.000 HD 
HETATM   18  C   UNL     1     -10.223   7.239  67.152  1.00  0.00    -0.269 C  
HETATM   19  C   UNL     1     -10.379   8.710  71.037  1.00  0.00    -0.217 C  
HETATM   20  N   UNL     1     -10.379   7.854  68.459  1.00  0.00    -0.206 NA 
HETATM   21  C   UNL     1     -11.202   7.467  70.702  1.00  0.00    -0.270 C  
HETATM   22  O   UNL     1     -10.037   8.808  72.216  1.00  0.00    -0.311 OA 
HETATM   23  H   UNL     1     -11.167   6.033  69.202  1.00  0.00     0.000 HD 
HETATM   24  N   UNL     1     -10.947   7.000  69.439  1.00  0.00    -0.226 N  
HETATM   25  O   UNL     1     -11.960   6.918  71.486  1.00  0.00    -0.303 OA 
ENDBRANCH  14  15
ENDBRANCH  13  14
ENDBRANCH   4  13
BRANCH   6  26
HETATM   26  N   UNL     1      -9.005  16.688  69.162  1.00  0.00    -0.202 N  
HETATM   27  O   UNL     1      -6.899  17.514  69.425  1.00  0.00    -0.233 OA 
HETATM   28  C   UNL     1      -7.968  17.572  68.821  1.00  0.00    -0.238 C  
HETATM   29  H   UNL     1      -8.770  16.093  69.956  1.00  0.00     0.000 HD 
BRANCH  28  30
HETATM   30  C   UNL     1      -8.168  18.725  67.874  1.00  0.00    -0.269 C  
BRANCH  30  31
HETATM   31  C   UNL     1      -7.166  19.196  66.909  1.00  0.00    -0.207 A  
HETATM   32  H2  UNL     1      -5.464  19.798  63.030  1.00  0.00     0.000 HD 
HETATM   33  C   UNL     1      -6.570  20.441  67.032  1.00  0.00    -0.237 A  
HETATM   34  H1  UNL     1      -6.278  18.238  63.164  1.00  0.00     0.000 HD 
HETATM   35  N   UNL     1      -6.992  18.611  65.644  1.00  0.00    -0.456 NA 
HETATM   36  N   UNL     1      -5.987  19.120  63.585  1.00  0.00    -0.357 NA 
HETATM   37  S   UNL     1      -5.795  20.885  65.574  1.00  0.00    -0.242 SA 
HETATM   38  C   UNL     1      -6.285  19.398  64.864  1.00  0.00    -0.276 A  
ENDBRANCH  30  31
BRANCH  30  39
HETATM   39  N   UNL     1      -9.153  19.555  67.967  1.00  0.00    -0.319 NA 
HETATM   40  H   UNL     1      -9.011  20.437  68.460  1.00  0.00     0.000 HD 
BRANCH  39  41
HETATM   41  O   UNL     1     -10.405  19.283  67.416  1.00  0.00    -0.379 OA 
HETATM   42  C   UNL     1     -10.735  19.632  66.085  1.00  0.00    -0.416 C  
ENDBRANCH  39  41
ENDBRANCH  30  39
ENDBRANCH  28  30
ENDBRANCH   6  26
TORSDOF 8
ENDMDL
MODEL       51
REMARK 921   NORMALIZED FREE ENERGY PREDICTED BY IDOCK:   -6.78 KCAL/MOL
REMARK 922        TOTAL FREE ENERGY PREDICTED BY IDOCK:  -11.21 KCAL/MOL
REMARK 923 INTER-LIGAND FREE ENERGY PREDICTED BY IDOCK:   -9.93 KCAL/MOL
REMARK 924 INTRA-LIGAND FREE ENERGY PREDICTED BY IDOCK:   -1.28 KCAL/MOL
REMARK 927      BINDING AFFINITY PREDICTED BY RF-SCORE:    0.00 PKD
ROOT
HETATM    1  C   UNL     1     -11.525  11.513  67.690  1.00  0.00    -0.285 C  
HETATM    2  S   UNL     1     -11.568  12.422  69.211  1.00  0.00    -0.322 SA 
HETATM    3  C   UNL     1     -11.081  14.120  68.729  1.00  0.00    -0.262 C  
HETATM    4  C   UNL     1     -10.842  14.436  67.279  1.00  0.00    -0.290 C  
HETATM    5  CA  UNL     1     -10.927  13.518  66.268  1.00  0.00    -0.289 C  
HETATM    6  CA  UNL     1     -10.674  10.258  67.217  1.00  0.00    -0.263 C  
HETATM    7  C   UNL     1     -10.703  11.038  65.866  1.00  0.00    -0.160 C  
HETATM    8  N   UNL     1     -11.091  12.178  66.497  1.00  0.00    -0.291 N  
HETATM    9  C   UNL     1     -10.826  13.993  64.843  1.00  0.00    -0.410 C  
HETATM   10  O   UNL     1     -10.259  10.809  64.767  1.00  0.00    -0.306 OA 
HETATM   11  O   UNL     1     -10.161  13.214  63.967  1.00  0.00    -0.369 OA 
HETATM   12  OXT UNL     1     -11.338  15.036  64.467  1.00  0.00    -0.354 OA 
ENDROOT
BRANCH   4  13
HETATM   13  C   UNL     1     -10.398  15.898  66.973  1.00  0.00    -0.297 C  
BRANCH  13  14
HETATM   14  S   UNL     1     -10.619  17.221  68.229  1.00  0.00    -0.363 SA 
BRANCH  14  15
HETATM   15  C   UNL     1      -9.360  18.439  67.912  1.00  0.00    -0.280 C  
HETATM   16  N   UNL     1      -8.415  18.481  68.784  1.00  0.00    -0.287 N  
HETATM   17  H   UNL     1      -8.341  17.786  69.527  1.00  0.00     0.000 HD 
HETATM   18  C   UNL     1     -10.646  19.430  65.945  1.00  0.00    -0.459 C  
HETATM   19  C   UNL     1      -7.505  19.511  68.666  1.00  0.00    -0.345 C  
HETATM   20  N   UNL     1      -9.508  19.324  66.840  1.00  0.00    -0.312 NA 
HETATM   21  C   UNL     1      -7.347  20.285  67.359  1.00  0.00    -0.306 C  
HETATM   22  O   UNL     1      -6.851  19.947  69.614  1.00  0.00    -0.340 OA 
HETATM   23  H   UNL     1      -8.642  21.021  65.913  1.00  0.00     0.000 HD 
HETATM   24  N   UNL     1      -8.503  20.301  66.622  1.00  0.00    -0.265 N  
HETATM   25  O   UNL     1      -6.327  20.869  67.029  1.00  0.00    -0.243 OA 
ENDBRANCH  14  15
ENDBRANCH  13  14
ENDBRANCH   4  13
BRANCH   6  26
HETATM   26  N   UNL     1      -9.269   9.721  67.527  1.00  0.00    -0.130 N  
HETATM   27  O   UNL     1      -7.556   8.494  68.391  1.00  0.00    -0.093 OA 
HETATM   28  C   UNL     1      -8.771   8.637  68.269  1.00  0.00    -0.142 C  
HETATM   29  H   UNL     1      -8.531  10.278  67.098  1.00  0.00     0.000 HD 
BRANCH  28  30
HETATM   30  C   UNL     1      -9.654   7.524  68.764  1.00  0.00    -0.149 C  
BRANCH  30  31
HETATM   31  C   UNL     1     -10.578   7.634  69.901  1.00  0.00    -0.235 A  
HETATM   32  H2  UNL     1     -13.504   9.530  72.382  1.00  0.00     0.000 HD 
HETATM   33  C   UNL     1     -11.372   6.570  70.295  1.00  0.00    -0.395 A  
HETATM   34  H1  UNL     1     -12.320  10.677  71.755  1.00  0.00     0.000 HD 
HETATM   35  N   UNL     1     -10.982   8.868  70.437  1.00  0.00    -0.240 NA 
HETATM   36  N   UNL     1     -12.668   9.722  71.829  1.00  0.00    -0.400 NA 
HETATM   37  S   UNL     1     -12.623   7.103  71.332  1.00  0.00    -0.382 SA 
HETATM   38  C   UNL     1     -12.036   8.714  71.207  1.00  0.00    -0.290 A  
ENDBRANCH  30  31
BRANCH  30  39
HETATM   39  N   UNL     1      -9.527   6.296  68.383  1.00  0.00    -0.119 NA 
HETATM   40  H   UNL     1      -9.218   5.598  69.060  1.00  0.00     0.000 HD 
BRANCH  39  41
HETATM   41  O   UNL     1      -9.799   5.896  67.075  1.00  0.00    -0.130 OA 
HETATM   42  C   UNL     1      -8.801   5.365  66.225  1.00  0.00    -0.131 C  
ENDBRANCH  39  41
ENDBRANCH  30  39
ENDBRANCH  28  30
ENDBRANCH   6  26
TORSDOF 8
ENDMDL
MODEL       52
REMARK 921   NORMALIZED FREE ENERGY PREDICTED BY IDOCK:   -6.78 KCAL/MOL
REMARK 922        TOTAL FREE ENERGY PREDICTED BY IDOCK:  -11.21 KCAL/MOL
REMARK 923 INTER-LIGAND FREE ENERGY PREDICTED BY IDOCK:  -10.24 KCAL/MOL
REMARK 924 INTRA-LIGAND FREE ENERGY PREDICTED BY IDOCK:   -0.97 KCAL/MOL
REMARK 927      BINDING AFFINITY PREDICTED BY RF-SCORE:    0.00 PKD
ROOT
HETATM    1  C   UNL     1     -11.233  10.468  67.828  1.00  0.00    -0.273 C  
HETATM    2  S   UNL     1     -10.309   8.957  67.896  1.00  0.00    -0.222 SA 
HETATM    3  C   UNL     1     -10.329   8.503  69.670  1.00  0.00    -0.218 C  
HETATM    4  C   UNL     1     -11.110   9.346  70.639  1.00  0.00    -0.351 C  
HETATM    5  CA  UNL     1     -11.797  10.477  70.294  1.00  0.00    -0.331 C  
HETATM    6  CA  UNL     1     -10.847  11.939  67.369  1.00  0.00    -0.243 C  
HETATM    7  C   UNL     1     -11.785  12.309  68.560  1.00  0.00    -0.331 C  
HETATM    8  N   UNL     1     -11.714  11.043  69.049  1.00  0.00    -0.312 N  
HETATM    9  C   UNL     1     -12.672  11.140  71.324  1.00  0.00    -0.426 C  
HETATM   10  O   UNL     1     -12.159  13.358  69.026  1.00  0.00    -0.325 OA 
HETATM   11  O   UNL     1     -12.711  12.487  71.343  1.00  0.00    -0.348 OA 
HETATM   12  OXT UNL     1     -13.349  10.498  72.113  1.00  0.00    -0.437 OA 
ENDROOT
BRANCH   4  13
HETATM   13  C   UNL     1     -11.036   8.898  72.130  1.00  0.00    -0.285 C  
BRANCH  13  14
HETATM   14  S   UNL     1      -9.492   8.171  72.810  1.00  0.00    -0.277 SA 
BRANCH  14  15
HETATM   15  C   UNL     1      -9.606   6.412  72.559  1.00  0.00    -0.152 C  
HETATM   16  N   UNL     1     -10.551   5.831  73.213  1.00  0.00    -0.238 N  
HETATM   17  H   UNL     1     -11.246   6.365  73.735  1.00  0.00     0.000 HD 
HETATM   18  C   UNL     1      -7.459   6.348  71.184  1.00  0.00    -0.085 C  
HETATM   19  C   UNL     1     -10.577   4.452  73.175  1.00  0.00    -0.200 C  
HETATM   20  N   UNL     1      -8.642   5.759  71.785  1.00  0.00    -0.131 NA 
HETATM   21  C   UNL     1      -9.834   3.674  72.090  1.00  0.00    -0.170 C  
HETATM   22  O   UNL     1     -11.094   3.762  74.053  1.00  0.00    -0.191 OA 
HETATM   23  H   UNL     1      -7.992   3.846  71.149  1.00  0.00     0.000 HD 
HETATM   24  N   UNL     1      -8.740   4.354  71.620  1.00  0.00    -0.116 N  
HETATM   25  O   UNL     1     -10.143   2.553  71.721  1.00  0.00    -0.160 OA 
ENDBRANCH  14  15
ENDBRANCH  13  14
ENDBRANCH   4  13
BRANCH   6  26
HETATM   26  N   UNL     1      -9.560  12.777  67.385  1.00  0.00    -0.194 N  
HETATM   27  O   UNL     1      -8.056  14.452  67.042  1.00  0.00    -0.177 OA 
HETATM   28  C   UNL     1      -9.220  14.066  66.945  1.00  0.00    -0.260 C  
HETATM   29  H   UNL     1      -8.775  12.285  67.811  1.00  0.00     0.000 HD 
BRANCH  28  30
HETATM   30  C   UNL     1     -10.254  15.080  66.537  1.00  0.00    -0.275 C  
BRANCH  30  31
HETATM   31  C   UNL     1     -10.090  16.534  66.657  1.00  0.00    -0.294 A  
HETATM   32  H2  UNL     1     -10.800  20.636  65.667  1.00  0.00     0.000 HD 
HETATM   33  C   UNL     1     -10.027  17.157  67.893  1.00  0.00    -0.292 A  
HETATM   34  H1  UNL     1     -10.796  19.599  64.240  1.00  0.00     0.000 HD 
HETATM   35  N   UNL     1     -10.331  17.419  65.593  1.00  0.00    -0.624 NA 
HETATM   36  N   UNL     1     -10.698  19.711  65.249  1.00  0.00    -0.350 NA 
HETATM   37  S   UNL     1     -10.267  18.842  67.732  1.00  0.00    -0.414 SA 
HETATM   38  C   UNL     1     -10.434  18.653  66.031  1.00  0.00    -0.414 A  
ENDBRANCH  30  31
BRANCH  30  39
HETATM   39  N   UNL     1     -11.475  14.770  66.248  1.00  0.00    -0.342 NA 
HETATM   40  H   UNL     1     -12.164  14.728  66.998  1.00  0.00     0.000 HD 
BRANCH  39  41
HETATM   41  O   UNL     1     -11.878  14.490  64.942  1.00  0.00    -0.380 OA 
HETATM   42  C   UNL     1     -12.131  13.172  64.497  1.00  0.00    -0.404 C  
ENDBRANCH  39  41
ENDBRANCH  30  39
ENDBRANCH  28  30
ENDBRANCH   6  26
TORSDOF 8
ENDMDL
MODEL       53
REMARK 921   NORMALIZED FREE ENERGY PREDICTED BY IDOCK:   -6.78 KCAL/MOL
REMARK 922        TOTAL FREE ENERGY PREDICTED BY IDOCK:  -11.21 KCAL/MOL
REMARK 923 INTER-LIGAND FREE ENERGY PREDICTED BY IDOCK:   -9.76 KCAL/MOL
REMARK 924 INTRA-LIGAND FREE ENERGY PREDICTED BY IDOCK:   -1.44 KCAL/MOL
REMARK 927      BINDING AFFINITY PREDICTED BY RF-SCORE:    0.00 PKD
ROOT
HETATM    1  C   UNL     1     -11.207  10.561  67.638  1.00  0.00    -0.265 C  
HETATM    2  S   UNL     1     -11.278  11.248  69.270  1.00  0.00    -0.293 SA 
HETATM    3  C   UNL     1     -11.537  13.039  68.989  1.00  0.00    -0.318 C  
HETATM    4  C   UNL     1     -11.713  13.548  67.586  1.00  0.00    -0.398 C  
HETATM    5  CA  UNL     1     -11.658  12.759  66.470  1.00  0.00    -0.376 C  
HETATM    6  CA  UNL     1     -10.071   9.771  66.858  1.00  0.00    -0.226 C  
HETATM    7  C   UNL     1     -10.640  10.597  65.662  1.00  0.00    -0.105 C  
HETATM    8  N   UNL     1     -11.282  11.443  66.511  1.00  0.00    -0.268 N  
HETATM    9  C   UNL     1     -12.012  13.360  65.135  1.00  0.00    -0.378 C  
HETATM   10  O   UNL     1     -10.366  10.652  64.487  1.00  0.00    -0.355 OA 
HETATM   11  O   UNL     1     -11.296  12.972  64.061  1.00  0.00    -0.374 OA 
HETATM   12  OXT UNL     1     -12.927  14.158  65.004  1.00  0.00    -0.721 OA 
ENDROOT
BRANCH   4  13
HETATM   13  C   UNL     1     -11.893  15.090  67.447  1.00  0.00    -0.148 C  
BRANCH  13  14
HETATM   14  S   UNL     1     -11.464  16.207  68.841  1.00  0.00    -0.280 SA 
BRANCH  14  15
HETATM   15  C   UNL     1     -10.324  17.411  68.195  1.00  0.00    -0.366 C  
HETATM   16  N   UNL     1     -10.865  18.357  67.510  1.00  0.00    -0.357 N  
HETATM   17  H   UNL     1     -11.878  18.463  67.451  1.00  0.00     0.000 HD 
HETATM   18  C   UNL     1      -8.292  16.076  68.965  1.00  0.00    -0.243 C  
HETATM   19  C   UNL     1     -10.009  19.221  66.858  1.00  0.00    -0.356 C  
HETATM   20  N   UNL     1      -8.949  17.221  68.361  1.00  0.00    -0.262 NA 
HETATM   21  C   UNL     1      -8.541  19.340  67.263  1.00  0.00    -0.292 C  
HETATM   22  O   UNL     1     -10.329  19.859  65.854  1.00  0.00    -0.495 OA 
HETATM   23  H   UNL     1      -7.054  18.009  67.834  1.00  0.00     0.000 HD 
HETATM   24  N   UNL     1      -8.059  18.182  67.816  1.00  0.00    -0.235 N  
HETATM   25  O   UNL     1      -7.858  20.333  67.070  1.00  0.00    -0.307 OA 
ENDBRANCH  14  15
ENDBRANCH  13  14
ENDBRANCH   4  13
BRANCH   6  26
HETATM   26  N   UNL     1      -8.536   9.785  66.872  1.00  0.00    -0.120 N  
HETATM   27  O   UNL     1      -6.372   9.820  67.581  1.00  0.00    -0.059 OA 
HETATM   28  C   UNL     1      -7.560   9.719  67.880  1.00  0.00    -0.086 C  
HETATM   29  H   UNL     1      -8.133   9.860  65.938  1.00  0.00     0.000 HD 
BRANCH  28  30
HETATM   30  C   UNL     1      -7.888   9.336  69.298  1.00  0.00    -0.085 C  
BRANCH  30  31
HETATM   31  C   UNL     1      -8.673   8.156  69.682  1.00  0.00    -0.142 A  
HETATM   32  H2  UNL     1     -12.241   5.901  70.385  1.00  0.00     0.000 HD 
HETATM   33  C   UNL     1      -8.306   6.880  69.284  1.00  0.00    -0.129 A  
HETATM   34  H1  UNL     1     -12.424   7.594  70.845  1.00  0.00     0.000 HD 
HETATM   35  N   UNL     1      -9.992   8.239  70.159  1.00  0.00    -0.185 NA 
HETATM   36  N   UNL     1     -11.847   6.837  70.478  1.00  0.00    -0.382 NA 
HETATM   37  S   UNL     1      -9.601   5.785  69.501  1.00  0.00    -0.147 SA 
HETATM   38  C   UNL     1     -10.573   7.061  70.119  1.00  0.00    -0.228 A  
ENDBRANCH  30  31
BRANCH  30  39
HETATM   39  N   UNL     1      -7.705  10.123  70.305  1.00  0.00    -0.389 NA 
HETATM   40  H   UNL     1      -8.232  10.995  70.354  1.00  0.00     0.000 HD 
BRANCH  39  41
HETATM   41  O   UNL     1      -6.809   9.818  71.329  1.00  0.00    -0.326 OA 
HETATM   42  C   UNL     1      -5.442  10.177  71.268  1.00  0.00    -0.066 C  
ENDBRANCH  39  41
ENDBRANCH  30  39
ENDBRANCH  28  30
ENDBRANCH   6  26
TORSDOF 8
ENDMDL
MODEL       54
REMARK 921   NORMALIZED FREE ENERGY PREDICTED BY IDOCK:   -6.76 KCAL/MOL
REMARK 922        TOTAL FREE ENERGY PREDICTED BY IDOCK:  -11.18 KCAL/MOL
REMARK 923 INTER-LIGAND FREE ENERGY PREDICTED BY IDOCK:   -9.37 KCAL/MOL
REMARK 924 INTRA-LIGAND FREE ENERGY PREDICTED BY IDOCK:   -1.82 KCAL/MOL
REMARK 927      BINDING AFFINITY PREDICTED BY RF-SCORE:    0.00 PKD
ROOT
HETATM    1  C   UNL     1      -9.769  11.244  63.942  1.00  0.00    -0.277 C  
HETATM    2  S   UNL     1      -8.045  10.901  63.721  1.00  0.00     0.395 SA 
HETATM    3  C   UNL     1      -7.543  10.104  65.291  1.00  0.00    -0.144 C  
HETATM    4  C   UNL     1      -8.581   9.829  66.343  1.00  0.00    -0.132 C  
HETATM    5  CA  UNL     1      -9.901  10.170  66.229  1.00  0.00    -0.229 C  
HETATM    6  CA  UNL     1     -10.600  12.598  63.946  1.00  0.00    -0.428 C  
HETATM    7  C   UNL     1     -11.386  11.843  65.064  1.00  0.00    -0.273 C  
HETATM    8  N   UNL     1     -10.381  10.938  65.202  1.00  0.00    -0.286 N  
HETATM    9  C   UNL     1     -10.869   9.694  67.280  1.00  0.00    -0.142 C  
HETATM   10  O   UNL     1     -12.343  12.129  65.742  1.00  0.00    -0.564 OA 
HETATM   11  O   UNL     1     -11.854  10.535  67.653  1.00  0.00    -0.297 OA 
HETATM   12  OXT UNL     1     -10.795   8.580  67.775  1.00  0.00    -0.148 OA 
ENDROOT
BRANCH   4  13
HETATM   13  C   UNL     1      -8.050   9.180  67.657  1.00  0.00    -0.104 C  
BRANCH  13  14
HETATM   14  S   UNL     1      -7.790  10.202  69.162  1.00  0.00    -0.133 SA 
BRANCH  14  15
HETATM   15  C   UNL     1      -8.895   9.566  70.405  1.00  0.00    -0.234 C  
HETATM   16  N   UNL     1     -10.121   9.940  70.282  1.00  0.00    -0.337 N  
HETATM   17  H   UNL     1     -10.442  10.460  69.465  1.00  0.00     0.000 HD 
HETATM   18  C   UNL     1      -6.987   8.529  71.742  1.00  0.00    -0.093 C  
HETATM   19  C   UNL     1     -10.979   9.604  71.309  1.00  0.00    -0.329 C  
HETATM   20  N   UNL     1      -8.383   8.816  71.467  1.00  0.00    -0.245 NA 
HETATM   21  C   UNL     1     -10.634   8.494  72.301  1.00  0.00    -0.338 C  
HETATM   22  O   UNL     1     -12.007  10.231  71.563  1.00  0.00    -0.358 OA 
HETATM   23  H   UNL     1      -8.916   7.884  73.294  1.00  0.00     0.000 HD 
HETATM   24  N   UNL     1      -9.280   8.342  72.458  1.00  0.00    -0.245 N  
HETATM   25  O   UNL     1     -11.464   7.853  72.924  1.00  0.00    -0.403 OA 
ENDBRANCH  14  15
ENDBRANCH  13  14
ENDBRANCH   4  13
BRANCH   6  26
HETATM   26  N   UNL     1     -10.304  14.049  64.349  1.00  0.00    -0.611 N  
HETATM   27  O   UNL     1      -9.837  15.909  65.577  1.00  0.00    -0.363 OA 
HETATM   28  C   UNL     1      -9.951  14.685  65.550  1.00  0.00    -0.352 C  
HETATM   29  H   UNL     1     -10.381  14.699  63.567  1.00  0.00     0.000 HD 
BRANCH  28  30
HETATM   30  C   UNL     1      -9.514  13.921  66.771  1.00  0.00    -0.279 C  
BRANCH  30  31
HETATM   31  C   UNL     1     -10.121  14.055  68.101  1.00  0.00    -0.244 A  
HETATM   32  H2  UNL     1     -12.039  16.110  71.326  1.00  0.00     0.000 HD 
HETATM   33  C   UNL     1     -10.971  13.087  68.610  1.00  0.00    -0.265 A  
HETATM   34  H1  UNL     1     -10.855  17.125  70.503  1.00  0.00     0.000 HD 
HETATM   35  N   UNL     1     -10.178  15.275  68.794  1.00  0.00    -0.220 NA 
HETATM   36  N   UNL     1     -11.332  16.229  70.601  1.00  0.00    -0.369 NA 
HETATM   37  S   UNL     1     -11.844  13.695  69.949  1.00  0.00    -0.307 SA 
HETATM   38  C   UNL     1     -11.039  15.205  69.784  1.00  0.00    -0.278 A  
ENDBRANCH  30  31
BRANCH  30  39
HETATM   39  N   UNL     1      -8.419  13.237  66.823  1.00  0.00    -0.428 NA 
HETATM   40  H   UNL     1      -8.288  12.463  66.172  1.00  0.00     0.000 HD 
BRANCH  39  41
HETATM   41  O   UNL     1      -7.411  13.525  67.743  1.00  0.00    -0.129 OA 
HETATM   42  C   UNL     1      -6.686  14.740  67.713  1.00  0.00    -0.174 C  
ENDBRANCH  39  41
ENDBRANCH  30  39
ENDBRANCH  28  30
ENDBRANCH   6  26
TORSDOF 8
ENDMDL
MODEL       55
REMARK 921   NORMALIZED FREE ENERGY PREDICTED BY IDOCK:   -6.76 KCAL/MOL
REMARK 922        TOTAL FREE ENERGY PREDICTED BY IDOCK:  -11.18 KCAL/MOL
REMARK 923 INTER-LIGAND FREE ENERGY PREDICTED BY IDOCK:  -10.05 KCAL/MOL
REMARK 924 INTRA-LIGAND FREE ENERGY PREDICTED BY IDOCK:   -1.13 KCAL/MOL
REMARK 927      BINDING AFFINITY PREDICTED BY RF-SCORE:    0.00 PKD
ROOT
HETATM    1  C   UNL     1     -11.435  12.296  68.623  1.00  0.00    -0.307 C  
HETATM    2  S   UNL     1     -10.501  10.900  68.059  1.00  0.00    -0.206 SA 
HETATM    3  C   UNL     1     -10.653   9.683  69.420  1.00  0.00    -0.225 C  
HETATM    4  C   UNL     1     -11.517  10.007  70.606  1.00  0.00    -0.425 C  
HETATM    5  CA  UNL     1     -12.190  11.187  70.768  1.00  0.00    -0.385 C  
HETATM    6  CA  UNL     1     -11.034  13.804  68.920  1.00  0.00    -0.252 C  
HETATM    7  C   UNL     1     -12.066  13.609  70.074  1.00  0.00    -0.348 C  
HETATM    8  N   UNL     1     -12.018  12.258  69.932  1.00  0.00    -0.327 N  
HETATM    9  C   UNL     1     -13.151  11.326  71.919  1.00  0.00    -0.405 C  
HETATM   10  O   UNL     1     -12.489  14.337  70.940  1.00  0.00    -0.308 OA 
HETATM   11  O   UNL     1     -13.208  12.515  72.551  1.00  0.00    -0.360 OA 
HETATM   12  OXT UNL     1     -13.879  10.410  72.271  1.00  0.00    -0.110 OA 
ENDROOT
BRANCH   4  13
HETATM   13  C   UNL     1     -11.554   8.924  71.726  1.00  0.00    -0.352 C  
BRANCH  13  14
HETATM   14  S   UNL     1     -12.539   7.389  71.506  1.00  0.00    -0.375 SA 
BRANCH  14  15
HETATM   15  C   UNL     1     -11.396   6.030  71.628  1.00  0.00    -0.252 C  
HETATM   16  N   UNL     1     -11.068   5.704  72.829  1.00  0.00    -0.272 N  
HETATM   17  H   UNL     1     -11.527   6.118  73.640  1.00  0.00     0.000 HD 
HETATM   18  C   UNL     1     -11.050   5.940  69.102  1.00  0.00    -0.258 C  
HETATM   19  C   UNL     1     -10.067   4.765  72.966  1.00  0.00    -0.160 C  
HETATM   20  N   UNL     1     -10.849   5.480  70.465  1.00  0.00    -0.243 NA 
HETATM   21  C   UNL     1      -9.677   3.845  71.811  1.00  0.00    -0.173 C  
HETATM   22  O   UNL     1      -9.355   4.678  73.967  1.00  0.00    -0.116 OA 
HETATM   23  H   UNL     1      -9.433   4.069  69.762  1.00  0.00     0.000 HD 
HETATM   24  N   UNL     1      -9.922   4.414  70.588  1.00  0.00    -0.208 N  
HETATM   25  O   UNL     1      -9.157   2.750  71.955  1.00  0.00    -0.081 OA 
ENDBRANCH  14  15
ENDBRANCH  13  14
ENDBRANCH   4  13
BRANCH   6  26
HETATM   26  N   UNL     1      -9.763  14.509  69.415  1.00  0.00    -0.424 N  
HETATM   27  O   UNL     1      -7.913  15.833  69.512  1.00  0.00    -0.232 OA 
HETATM   28  C   UNL     1      -8.924  15.507  68.893  1.00  0.00    -0.220 C  
HETATM   29  H   UNL     1      -9.459  14.177  70.331  1.00  0.00     0.000 HD 
BRANCH  28  30
HETATM   30  C   UNL     1      -9.306  16.339  67.699  1.00  0.00    -0.218 C  
BRANCH  30  31
HETATM   31  C   UNL     1      -9.739  15.794  66.406  1.00  0.00    -0.282 A  
HETATM   32  H2  UNL     1     -10.976  12.741  63.676  1.00  0.00     0.000 HD 
HETATM   33  C   UNL     1     -10.663  16.456  65.614  1.00  0.00    -0.270 A  
HETATM   34  H1  UNL     1      -9.751  12.165  64.806  1.00  0.00     0.000 HD 
HETATM   35  N   UNL     1      -9.542  14.453  66.039  1.00  0.00    -0.292 NA 
HETATM   36  N   UNL     1     -10.342  12.918  64.455  1.00  0.00    -0.380 NA 
HETATM   37  S   UNL     1     -11.287  15.410  64.413  1.00  0.00    -0.136 SA 
HETATM   38  C   UNL     1     -10.291  14.140  65.006  1.00  0.00    -0.418 A  
ENDBRANCH  30  31
BRANCH  30  39
HETATM   39  N   UNL     1      -9.077  17.608  67.618  1.00  0.00    -0.239 NA 
HETATM   40  H   UNL     1      -8.551  17.966  66.821  1.00  0.00     0.000 HD 
BRANCH  39  41
HETATM   41  O   UNL     1      -9.528  18.504  68.588  1.00  0.00    -0.333 OA 
HETATM   42  C   UNL     1     -10.094  19.757  68.253  1.00  0.00    -0.458 C  
ENDBRANCH  39  41
ENDBRANCH  30  39
ENDBRANCH  28  30
ENDBRANCH   6  26
TORSDOF 8
ENDMDL
MODEL       56
REMARK 921   NORMALIZED FREE ENERGY PREDICTED BY IDOCK:   -6.75 KCAL/MOL
REMARK 922        TOTAL FREE ENERGY PREDICTED BY IDOCK:  -11.17 KCAL/MOL
REMARK 923 INTER-LIGAND FREE ENERGY PREDICTED BY IDOCK:   -9.12 KCAL/MOL
REMARK 924 INTRA-LIGAND FREE ENERGY PREDICTED BY IDOCK:   -2.05 KCAL/MOL
REMARK 927      BINDING AFFINITY PREDICTED BY RF-SCORE:    0.00 PKD
ROOT
HETATM    1  C   UNL     1      -8.094  10.711  68.943  1.00  0.00    -0.139 C  
HETATM    2  S   UNL     1      -6.924  11.877  68.304  1.00  0.00    -0.084 SA 
HETATM    3  C   UNL     1      -7.956  13.281  67.739  1.00  0.00    -0.166 C  
HETATM    4  C   UNL     1      -9.440  13.244  67.969  1.00  0.00    -0.219 C  
HETATM    5  CA  UNL     1     -10.102  12.199  68.552  1.00  0.00    -0.187 C  
HETATM    6  CA  UNL     1      -8.454   9.219  68.532  1.00  0.00    -0.123 C  
HETATM    7  C   UNL     1      -9.890   9.710  68.898  1.00  0.00    -0.174 C  
HETATM    8  N   UNL     1      -9.493  11.009  68.847  1.00  0.00    -0.184 N  
HETATM    9  C   UNL     1     -11.566  12.352  68.874  1.00  0.00    -0.316 C  
HETATM   10  O   UNL     1     -10.971   9.173  68.908  1.00  0.00    -0.124 OA 
HETATM   11  O   UNL     1     -12.364  11.282  68.695  1.00  0.00    -0.534 OA 
HETATM   12  OXT UNL     1     -12.031  13.397  69.303  1.00  0.00    -0.314 OA 
ENDROOT
BRANCH   4  13
HETATM   13  C   UNL     1     -10.236  14.468  67.422  1.00  0.00    -0.240 C  
BRANCH  13  14
HETATM   14  S   UNL     1      -9.715  15.299  65.868  1.00  0.00    -0.356 SA 
BRANCH  14  15
HETATM   15  C   UNL     1      -9.531  17.027  66.254  1.00  0.00    -0.256 C  
HETATM   16  N   UNL     1     -10.501  17.776  65.861  1.00  0.00    -0.331 N  
HETATM   17  H   UNL     1     -11.356  17.382  65.469  1.00  0.00     0.000 HD 
HETATM   18  C   UNL     1      -7.157  16.702  67.128  1.00  0.00    -0.186 C  
HETATM   19  C   UNL     1     -10.328  19.138  65.995  1.00  0.00    -0.463 C  
HETATM   20  N   UNL     1      -8.346  17.483  66.839  1.00  0.00    -0.222 NA 
HETATM   21  C   UNL     1      -9.276  19.716  66.940  1.00  0.00    -0.350 C  
HETATM   22  O   UNL     1     -10.916  19.966  65.298  1.00  0.00    -0.371 OA 
HETATM   23  H   UNL     1      -7.320  19.235  67.443  1.00  0.00     0.000 HD 
HETATM   24  N   UNL     1      -8.213  18.868  67.114  1.00  0.00    -0.265 N  
HETATM   25  O   UNL     1      -9.344  20.826  67.442  1.00  0.00    -0.392 OA 
ENDBRANCH  14  15
ENDBRANCH  13  14
ENDBRANCH   4  13
BRANCH   6  26
HETATM   26  N   UNL     1      -8.447   8.427  67.217  1.00  0.00    -0.123 N  
HETATM   27  O   UNL     1      -8.635   7.871  65.017  1.00  0.00    -0.104 OA 
HETATM   28  C   UNL     1      -8.637   8.760  65.866  1.00  0.00    -0.154 C  
HETATM   29  H   UNL     1      -8.264   7.433  67.356  1.00  0.00     0.000 HD 
BRANCH  28  30
HETATM   30  C   UNL     1      -8.651  10.184  65.380  1.00  0.00    -0.155 C  
BRANCH  30  31
HETATM   31  C   UNL     1      -9.824  10.860  64.811  1.00  0.00    -0.288 A  
HETATM   32  H2  UNL     1     -13.263  13.407  64.856  1.00  0.00     0.000 HD 
HETATM   33  C   UNL     1      -9.791  11.432  63.550  1.00  0.00    -0.375 A  
HETATM   34  H1  UNL     1     -13.077  12.514  66.366  1.00  0.00     0.000 HD 
HETATM   35  N   UNL     1     -10.914  11.282  65.592  1.00  0.00    -0.189 NA 
HETATM   36  N   UNL     1     -12.753  12.730  65.423  1.00  0.00    -0.603 NA 
HETATM   37  S   UNL     1     -11.114  12.494  63.334  1.00  0.00    -0.224 SA 
HETATM   38  C   UNL     1     -11.661  12.131  64.923  1.00  0.00    -0.313 A  
ENDBRANCH  30  31
BRANCH  30  39
HETATM   39  N   UNL     1      -7.579  10.883  65.206  1.00  0.00    -0.358 NA 
HETATM   40  H   UNL     1      -7.621  11.894  65.338  1.00  0.00     0.000 HD 
BRANCH  39  41
HETATM   41  O   UNL     1      -6.366  10.299  64.843  1.00  0.00    -0.125 OA 
HETATM   42  C   UNL     1      -6.135   9.780  63.547  1.00  0.00    -0.113 C  
ENDBRANCH  39  41
ENDBRANCH  30  39
ENDBRANCH  28  30
ENDBRANCH   6  26
TORSDOF 8
ENDMDL
MODEL       57
REMARK 921   NORMALIZED FREE ENERGY PREDICTED BY IDOCK:   -6.73 KCAL/MOL
REMARK 922        TOTAL FREE ENERGY PREDICTED BY IDOCK:  -11.13 KCAL/MOL
REMARK 923 INTER-LIGAND FREE ENERGY PREDICTED BY IDOCK:   -9.16 KCAL/MOL
REMARK 924 INTRA-LIGAND FREE ENERGY PREDICTED BY IDOCK:   -1.97 KCAL/MOL
REMARK 927      BINDING AFFINITY PREDICTED BY RF-SCORE:    0.00 PKD
ROOT
HETATM    1  C   UNL     1      -9.523   8.733  70.328  1.00  0.00    -0.174 C  
HETATM    2  S   UNL     1      -8.442   9.698  69.308  1.00  0.00    -0.164 SA 
HETATM    3  C   UNL     1      -9.421  11.194  68.912  1.00  0.00    -0.124 C  
HETATM    4  C   UNL     1     -10.783  11.368  69.523  1.00  0.00    -0.098 C  
HETATM    5  CA  UNL     1     -11.379  10.452  70.346  1.00  0.00    -0.337 C  
HETATM    6  CA  UNL     1     -10.147   7.283  70.155  1.00  0.00    -0.189 C  
HETATM    7  C   UNL     1     -11.366   7.978  70.838  1.00  0.00    -0.276 C  
HETATM    8  N   UNL     1     -10.852   9.209  70.574  1.00  0.00    -0.240 N  
HETATM    9  C   UNL     1     -12.674  10.815  71.023  1.00  0.00    -0.415 C  
HETATM   10  O   UNL     1     -12.459   7.591  71.175  1.00  0.00    -0.319 OA 
HETATM   11  O   UNL     1     -13.608   9.852  71.150  1.00  0.00    -0.330 OA 
HETATM   12  OXT UNL     1     -12.885  11.933  71.466  1.00  0.00    -0.385 OA 
ENDROOT
BRANCH   4  13
HETATM   13  C   UNL     1     -11.552  12.655  69.098  1.00  0.00    -0.320 C  
BRANCH  13  14
HETATM   14  S   UNL     1     -12.017  12.926  67.341  1.00  0.00    -0.217 SA 
BRANCH  14  15
HETATM   15  C   UNL     1     -11.289  14.477  66.856  1.00  0.00    -0.348 C  
HETATM   16  N   UNL     1     -10.797  15.170  67.823  1.00  0.00    -0.283 N  
HETATM   17  H   UNL     1     -10.729  14.796  68.769  1.00  0.00     0.000 HD 
HETATM   18  C   UNL     1     -12.085  14.233  64.445  1.00  0.00    -0.468 C  
HETATM   19  C   UNL     1     -10.368  16.445  67.517  1.00  0.00    -0.288 C  
HETATM   20  N   UNL     1     -11.379  14.897  65.526  1.00  0.00    -0.350 NA 
HETATM   21  C   UNL     1     -10.072  16.859  66.076  1.00  0.00    -0.319 C  
HETATM   22  O   UNL     1     -10.301  17.353  68.346  1.00  0.00    -0.335 OA 
HETATM   23  H   UNL     1     -10.959  16.520  64.231  1.00  0.00     0.000 HD 
HETATM   24  N   UNL     1     -10.813  16.148  65.169  1.00  0.00    -0.406 N  
HETATM   25  O   UNL     1      -9.304  17.756  65.767  1.00  0.00    -0.512 OA 
ENDBRANCH  14  15
ENDBRANCH  13  14
ENDBRANCH   4  13
BRANCH   6  26
HETATM   26  N   UNL     1     -10.585   6.428  68.957  1.00  0.00    -0.229 N  
HETATM   27  O   UNL     1     -10.792   5.587  66.851  1.00  0.00    -0.266 OA 
HETATM   28  C   UNL     1     -10.198   6.351  67.609  1.00  0.00    -0.169 C  
HETATM   29  H   UNL     1     -11.323   5.766  69.194  1.00  0.00     0.000 HD 
BRANCH  28  30
HETATM   30  C   UNL     1      -8.957   7.022  67.085  1.00  0.00    -0.121 C  
BRANCH  30  31
HETATM   31  C   UNL     1      -8.936   8.002  65.992  1.00  0.00    -0.163 A  
HETATM   32  H2  UNL     1      -9.757  11.747  64.091  1.00  0.00     0.000 HD 
HETATM   33  C   UNL     1      -7.805   8.200  65.217  1.00  0.00    -0.115 A  
HETATM   34  H1  UNL     1     -11.079  11.229  65.138  1.00  0.00     0.000 HD 
HETATM   35  N   UNL     1      -9.890   9.026  65.867  1.00  0.00    -0.255 NA 
HETATM   36  N   UNL     1     -10.159  11.060  64.729  1.00  0.00    -0.283 NA 
HETATM   37  S   UNL     1      -7.926   9.660  64.335  1.00  0.00    -0.148 SA 
HETATM   38  C   UNL     1      -9.475   9.944  65.023  1.00  0.00    -0.280 A  
ENDBRANCH  30  31
BRANCH  30  39
HETATM   39  N   UNL     1      -7.762   6.640  67.392  1.00  0.00    -0.107 NA 
HETATM   40  H   UNL     1      -6.968   7.069  66.917  1.00  0.00     0.000 HD 
BRANCH  39  41
HETATM   41  O   UNL     1      -7.524   5.657  68.354  1.00  0.00    -0.075 OA 
HETATM   42  C   UNL     1      -6.762   5.911  69.519  1.00  0.00    -0.059 C  
ENDBRANCH  39  41
ENDBRANCH  30  39
ENDBRANCH  28  30
ENDBRANCH   6  26
TORSDOF 8
ENDMDL
MODEL       58
REMARK 921   NORMALIZED FREE ENERGY PREDICTED BY IDOCK:   -6.72 KCAL/MOL
REMARK 922        TOTAL FREE ENERGY PREDICTED BY IDOCK:  -11.13 KCAL/MOL
REMARK 923 INTER-LIGAND FREE ENERGY PREDICTED BY IDOCK:   -9.85 KCAL/MOL
REMARK 924 INTRA-LIGAND FREE ENERGY PREDICTED BY IDOCK:   -1.28 KCAL/MOL
REMARK 927      BINDING AFFINITY PREDICTED BY RF-SCORE:    0.00 PKD
ROOT
HETATM    1  C   UNL     1     -10.890  11.585  66.436  1.00  0.00    -0.285 C  
HETATM    2  S   UNL     1     -12.017  12.459  65.384  1.00  0.00    -0.337 SA 
HETATM    3  C   UNL     1     -11.410  14.187  65.419  1.00  0.00    -0.322 C  
HETATM    4  C   UNL     1     -10.153  14.511  66.176  1.00  0.00    -0.319 C  
HETATM    5  CA  UNL     1      -9.427  13.598  66.890  1.00  0.00    -0.262 C  
HETATM    6  CA  UNL     1     -11.098  10.767  67.782  1.00  0.00    -0.318 C  
HETATM    7  C   UNL     1      -9.716  11.411  68.115  1.00  0.00    -0.192 C  
HETATM    8  N   UNL     1      -9.862  12.318  67.113  1.00  0.00    -0.201 N  
HETATM    9  C   UNL     1      -8.101  14.013  67.469  1.00  0.00    -0.186 C  
HETATM   10  O   UNL     1      -8.974  11.338  69.065  1.00  0.00    -0.096 OA 
HETATM   11  O   UNL     1      -7.769  13.538  68.686  1.00  0.00    -0.128 OA 
HETATM   12  OXT UNL     1      -7.327  14.740  66.865  1.00  0.00    -0.036 OA 
ENDROOT
BRANCH   4  13
HETATM   13  C   UNL     1      -9.737  16.014  66.176  1.00  0.00    -0.324 C  
BRANCH  13  14
HETATM   14  S   UNL     1     -10.350  17.150  67.483  1.00  0.00    -0.343 SA 
BRANCH  14  15
HETATM   15  C   UNL     1      -9.215  18.521  67.537  1.00  0.00    -0.279 C  
HETATM   16  N   UNL     1      -8.343  18.465  68.482  1.00  0.00    -0.324 N  
HETATM   17  H   UNL     1      -8.244  17.638  69.071  1.00  0.00     0.000 HD 
HETATM   18  C   UNL     1     -10.464  19.782  65.705  1.00  0.00    -0.445 C  
HETATM   19  C   UNL     1      -7.548  19.579  68.660  1.00  0.00    -0.354 C  
HETATM   20  N   UNL     1      -9.386  19.596  66.659  1.00  0.00    -0.354 NA 
HETATM   21  C   UNL     1      -7.387  20.624  67.558  1.00  0.00    -0.319 C  
HETATM   22  O   UNL     1      -7.013  19.862  69.733  1.00  0.00    -0.308 OA 
HETATM   23  H   UNL     1      -8.653  21.525  66.181  1.00  0.00     0.000 HD 
HETATM   24  N   UNL     1      -8.484  20.688  66.738  1.00  0.00    -0.116 N  
HETATM   25  O   UNL     1      -6.418  21.359  67.450  1.00  0.00    -0.498 OA 
ENDBRANCH  14  15
ENDBRANCH  13  14
ENDBRANCH   4  13
BRANCH   6  26
HETATM   26  N   UNL     1     -12.065  10.865  68.971  1.00  0.00    -0.488 N  
HETATM   27  O   UNL     1     -13.180  10.415  70.905  1.00  0.00    -0.377 OA 
HETATM   28  C   UNL     1     -12.254  10.124  70.149  1.00  0.00    -0.116 C  
HETATM   29  H   UNL     1     -12.717  11.644  68.885  1.00  0.00     0.000 HD 
BRANCH  28  30
HETATM   30  C   UNL     1     -11.256   9.108  70.633  1.00  0.00    -0.270 C  
BRANCH  30  31
HETATM   31  C   UNL     1     -10.824   7.932  69.866  1.00  0.00    -0.221 A  
HETATM   32  H2  UNL     1      -8.019   5.385  67.878  1.00  0.00     0.000 HD 
HETATM   33  C   UNL     1     -11.324   6.668  70.134  1.00  0.00    -0.382 A  
HETATM   34  H1  UNL     1      -7.630   7.093  67.669  1.00  0.00     0.000 HD 
HETATM   35  N   UNL     1      -9.663   7.922  69.075  1.00  0.00    -0.159 NA 
HETATM   36  N   UNL     1      -8.238   6.367  68.048  1.00  0.00    -0.115 NA 
HETATM   37  S   UNL     1     -10.350   5.467  69.404  1.00  0.00    -0.280 SA 
HETATM   38  C   UNL     1      -9.324   6.691  68.766  1.00  0.00    -0.131 A  
ENDBRANCH  30  31
BRANCH  30  39
HETATM   39  N   UNL     1     -10.847   9.043  71.857  1.00  0.00    -0.362 NA 
HETATM   40  H   UNL     1     -11.530   9.111  72.611  1.00  0.00     0.000 HD 
BRANCH  39  41
HETATM   41  O   UNL     1      -9.499   8.883  72.178  1.00  0.00    -0.327 OA 
HETATM   42  C   UNL     1      -9.066   8.002  73.197  1.00  0.00    -0.275 C  
ENDBRANCH  39  41
ENDBRANCH  30  39
ENDBRANCH  28  30
ENDBRANCH   6  26
TORSDOF 8
ENDMDL
MODEL       59
REMARK 921   NORMALIZED FREE ENERGY PREDICTED BY IDOCK:   -6.71 KCAL/MOL
REMARK 922        TOTAL FREE ENERGY PREDICTED BY IDOCK:  -11.11 KCAL/MOL
REMARK 923 INTER-LIGAND FREE ENERGY PREDICTED BY IDOCK:   -9.27 KCAL/MOL
REMARK 924 INTRA-LIGAND FREE ENERGY PREDICTED BY IDOCK:   -1.84 KCAL/MOL
REMARK 927      BINDING AFFINITY PREDICTED BY RF-SCORE:    0.00 PKD
ROOT
HETATM    1  C   UNL     1      -8.280   7.344  68.886  1.00  0.00    -0.129 C  
HETATM    2  S   UNL     1      -9.979   6.845  68.807  1.00  0.00    -0.158 SA 
HETATM    3  C   UNL     1     -10.807   8.224  67.931  1.00  0.00     0.033 C  
HETATM    4  C   UNL     1      -9.984   9.368  67.411  1.00  0.00    -0.252 C  
HETATM    5  CA  UNL     1      -8.631   9.480  67.578  1.00  0.00    -0.126 C  
HETATM    6  CA  UNL     1      -7.303   7.626  70.107  1.00  0.00    -0.076 C  
HETATM    7  C   UNL     1      -6.795   8.742  69.142  1.00  0.00    -0.055 C  
HETATM    8  N   UNL     1      -7.910   8.630  68.373  1.00  0.00    -0.104 N  
HETATM    9  C   UNL     1      -7.899  10.590  66.871  1.00  0.00    -0.117 C  
HETATM   10  O   UNL     1      -5.925   9.576  69.225  1.00  0.00    -0.035 OA 
HETATM   11  O   UNL     1      -6.889  11.195  67.526  1.00  0.00    -0.078 OA 
HETATM   12  OXT UNL     1      -8.181  10.933  65.733  1.00  0.00    -0.162 OA 
ENDROOT
BRANCH   4  13
HETATM   13  C   UNL     1     -10.783  10.509  66.711  1.00  0.00    -0.188 C  
BRANCH  13  14
HETATM   14  S   UNL     1     -11.260  12.019  67.641  1.00  0.00    -0.305 SA 
BRANCH  14  15
HETATM   15  C   UNL     1     -11.286  13.354  66.463  1.00  0.00    -0.307 C  
HETATM   16  N   UNL     1     -12.232  13.291  65.594  1.00  0.00    -0.439 N  
HETATM   17  H   UNL     1     -12.973  12.593  65.659  1.00  0.00     0.000 HD 
HETATM   18  C   UNL     1      -9.078  14.307  67.314  1.00  0.00    -0.215 C  
HETATM   19  C   UNL     1     -12.197  14.213  64.568  1.00  0.00    -0.445 C  
HETATM   20  N   UNL     1     -10.260  14.304  66.471  1.00  0.00    -0.270 NA 
HETATM   21  C   UNL     1     -11.373  15.494  64.681  1.00  0.00    -0.357 C  
HETATM   22  O   UNL     1     -12.723  14.024  63.471  1.00  0.00    -0.805 OA 
HETATM   23  H   UNL     1      -9.499  15.984  65.428  1.00  0.00     0.000 HD 
HETATM   24  N   UNL     1     -10.289  15.344  65.507  1.00  0.00    -0.356 N  
HETATM   25  O   UNL     1     -11.616  16.519  64.065  1.00  0.00    -1.154 OA 
ENDBRANCH  14  15
ENDBRANCH  13  14
ENDBRANCH   4  13
BRANCH   6  26
HETATM   26  N   UNL     1      -7.480   8.155  71.537  1.00  0.00    -0.074 N  
HETATM   27  O   UNL     1      -8.379   8.668  73.566  1.00  0.00    -0.393 OA 
HETATM   28  C   UNL     1      -8.501   8.070  72.498  1.00  0.00    -0.162 C  
HETATM   29  H   UNL     1      -6.675   8.690  71.862  1.00  0.00     0.000 HD 
BRANCH  28  30
HETATM   30  C   UNL     1      -9.660   7.120  72.364  1.00  0.00    -0.146 C  
BRANCH  30  31
HETATM   31  C   UNL     1     -11.065   7.529  72.241  1.00  0.00    -0.273 A  
HETATM   32  H2  UNL     1     -14.316   9.965  70.897  1.00  0.00     0.000 HD 
HETATM   33  C   UNL     1     -12.076   6.602  72.050  1.00  0.00    -0.310 A  
HETATM   34  H1  UNL     1     -12.874  10.917  71.252  1.00  0.00     0.000 HD 
HETATM   35  N   UNL     1     -11.452   8.850  71.960  1.00  0.00    -0.367 NA 
HETATM   36  N   UNL     1     -13.348  10.015  71.215  1.00  0.00    -0.363 NA 
HETATM   37  S   UNL     1     -13.508   7.372  71.520  1.00  0.00    -0.311 SA 
HETATM   38  C   UNL     1     -12.710   8.893  71.582  1.00  0.00    -0.349 A  
ENDBRANCH  30  31
BRANCH  30  39
HETATM   39  N   UNL     1      -9.560   5.848  72.568  1.00  0.00    -0.154 NA 
HETATM   40  H   UNL     1     -10.051   5.434  73.360  1.00  0.00     0.000 HD 
BRANCH  39  41
HETATM   41  O   UNL     1      -8.801   5.023  71.737  1.00  0.00    -0.130 OA 
HETATM   42  C   UNL     1      -9.353   3.894  71.088  1.00  0.00    -0.146 C  
ENDBRANCH  39  41
ENDBRANCH  30  39
ENDBRANCH  28  30
ENDBRANCH   6  26
TORSDOF 8
ENDMDL
MODEL       60
REMARK 921   NORMALIZED FREE ENERGY PREDICTED BY IDOCK:   -6.70 KCAL/MOL
REMARK 922        TOTAL FREE ENERGY PREDICTED BY IDOCK:  -11.09 KCAL/MOL
REMARK 923 INTER-LIGAND FREE ENERGY PREDICTED BY IDOCK:   -9.80 KCAL/MOL
REMARK 924 INTRA-LIGAND FREE ENERGY PREDICTED BY IDOCK:   -1.29 KCAL/MOL
REMARK 927      BINDING AFFINITY PREDICTED BY RF-SCORE:    0.00 PKD
ROOT
HETATM    1  C   UNL     1     -10.499  10.657  67.716  1.00  0.00    -0.221 C  
HETATM    2  S   UNL     1     -11.243  11.997  66.827  1.00  0.00    -0.336 SA 
HETATM    3  C   UNL     1     -10.067  13.384  67.046  1.00  0.00    -0.247 C  
HETATM    4  C   UNL     1      -8.779  13.149  67.782  1.00  0.00    -0.188 C  
HETATM    5  CA  UNL     1      -8.422  11.956  68.348  1.00  0.00    -0.155 C  
HETATM    6  CA  UNL     1     -10.983   9.797  68.960  1.00  0.00    -0.163 C  
HETATM    7  C   UNL     1      -9.464   9.869  69.309  1.00  0.00    -0.209 C  
HETATM    8  N   UNL     1      -9.279  10.891  68.432  1.00  0.00    -0.161 N  
HETATM    9  C   UNL     1      -7.036  11.804  68.916  1.00  0.00    -0.109 C  
HETATM   10  O   UNL     1      -8.798   9.420  70.210  1.00  0.00    -0.199 OA 
HETATM   11  O   UNL     1      -6.896  11.090  70.050  1.00  0.00    -0.145 OA 
HETATM   12  OXT UNL     1      -6.054  12.286  68.372  1.00  0.00    -0.049 OA 
ENDROOT
BRANCH   4  13
HETATM   13  C   UNL     1      -7.861  14.399  67.947  1.00  0.00    -0.150 C  
BRANCH  13  14
HETATM   14  S   UNL     1      -8.253  15.684  69.200  1.00  0.00    -0.259 SA 
BRANCH  14  15
HETATM   15  C   UNL     1      -8.921  17.074  68.310  1.00  0.00    -0.242 C  
HETATM   16  N   UNL     1      -8.058  17.971  67.981  1.00  0.00    -0.250 N  
HETATM   17  H   UNL     1      -7.058  17.828  68.119  1.00  0.00     0.000 HD 
HETATM   18  C   UNL     1     -11.322  16.278  68.631  1.00  0.00    -0.333 C  
HETATM   19  C   UNL     1      -8.553  19.137  67.433  1.00  0.00    -0.286 C  
HETATM   20  N   UNL     1     -10.302  17.173  68.116  1.00  0.00    -0.331 NA 
HETATM   21  C   UNL     1      -9.959  19.201  66.840  1.00  0.00    -0.345 C  
HETATM   22  O   UNL     1      -7.956  20.213  67.482  1.00  0.00    -0.299 OA 
HETATM   23  H   UNL     1     -11.820  18.445  67.366  1.00  0.00     0.000 HD 
HETATM   24  N   UNL     1     -10.812  18.302  67.426  1.00  0.00    -0.339 N  
HETATM   25  O   UNL     1     -10.303  19.997  65.981  1.00  0.00    -0.471 OA 
ENDBRANCH  14  15
ENDBRANCH  13  14
ENDBRANCH   4  13
BRANCH   6  26
HETATM   26  N   UNL     1     -11.857  10.072  70.192  1.00  0.00    -0.407 N  
HETATM   27  O   UNL     1     -13.201   9.784  72.009  1.00  0.00    -0.416 OA 
HETATM   28  C   UNL     1     -12.497   9.263  71.146  1.00  0.00    -0.272 C  
HETATM   29  H   UNL     1     -12.008  11.067  70.355  1.00  0.00     0.000 HD 
BRANCH  28  30
HETATM   30  C   UNL     1     -12.206   7.792  71.283  1.00  0.00    -0.303 C  
BRANCH  30  31
HETATM   31  C   UNL     1     -11.529   7.180  72.433  1.00  0.00    -0.264 A  
HETATM   32  H2  UNL     1      -9.854   3.977  74.723  1.00  0.00     0.000 HD 
HETATM   33  C   UNL     1     -10.435   7.781  73.035  1.00  0.00    -0.369 A  
HETATM   34  H1  UNL     1     -11.310   3.485  73.859  1.00  0.00     0.000 HD 
HETATM   35  N   UNL     1     -11.692   5.829  72.784  1.00  0.00    -0.227 NA 
HETATM   36  N   UNL     1     -10.632   4.206  74.104  1.00  0.00    -0.233 NA 
HETATM   37  S   UNL     1      -9.609   6.667  74.035  1.00  0.00    -0.261 SA 
HETATM   38  C   UNL     1     -10.753   5.452  73.622  1.00  0.00    -0.293 A  
ENDBRANCH  30  31
BRANCH  30  39
HETATM   39  N   UNL     1     -12.321   6.954  70.308  1.00  0.00    -0.598 NA 
HETATM   40  H   UNL     1     -13.249   6.752  69.936  1.00  0.00     0.000 HD 
BRANCH  39  41
HETATM   41  O   UNL     1     -11.215   6.315  69.747  1.00  0.00    -0.368 OA 
HETATM   42  C   UNL     1     -11.030   6.214  68.348  1.00  0.00    -0.305 C  
ENDBRANCH  39  41
ENDBRANCH  30  39
ENDBRANCH  28  30
ENDBRANCH   6  26
TORSDOF 8
ENDMDL
MODEL       61
REMARK 921   NORMALIZED FREE ENERGY PREDICTED BY IDOCK:   -6.69 KCAL/MOL
REMARK 922        TOTAL FREE ENERGY PREDICTED BY IDOCK:  -11.07 KCAL/MOL
REMARK 923 INTER-LIGAND FREE ENERGY PREDICTED BY IDOCK:   -9.71 KCAL/MOL
REMARK 924 INTRA-LIGAND FREE ENERGY PREDICTED BY IDOCK:   -1.37 KCAL/MOL
REMARK 927      BINDING AFFINITY PREDICTED BY RF-SCORE:    0.00 PKD
ROOT
HETATM    1  C   UNL     1      -8.753  10.998  65.760  1.00  0.00    -0.174 C  
HETATM    2  S   UNL     1      -9.055  10.588  67.457  1.00  0.00    -0.138 SA 
HETATM    3  C   UNL     1      -9.106   8.757  67.471  1.00  0.00    -0.133 C  
HETATM    4  C   UNL     1      -8.827   8.002  66.203  1.00  0.00    -0.198 C  
HETATM    5  CA  UNL     1      -8.565   8.594  64.997  1.00  0.00    -0.158 C  
HETATM    6  CA  UNL     1      -9.588  11.827  64.693  1.00  0.00    -0.077 C  
HETATM    7  C   UNL     1      -9.019  10.732  63.738  1.00  0.00    -0.162 C  
HETATM    8  N   UNL     1      -8.684   9.942  64.793  1.00  0.00    -0.173 N  
HETATM    9  C   UNL     1      -8.141   7.729  63.839  1.00  0.00    -0.052 C  
HETATM   10  O   UNL     1      -9.123  10.530  62.552  1.00  0.00    -0.232 OA 
HETATM   11  O   UNL     1      -8.604   8.049  62.614  1.00  0.00    -0.064 OA 
HETATM   12  OXT UNL     1      -7.387   6.779  63.979  1.00  0.00    -0.069 OA 
ENDROOT
BRANCH   4  13
HETATM   13  C   UNL     1      -8.928   6.450  66.308  1.00  0.00    -0.156 C  
BRANCH  13  14
HETATM   14  S   UNL     1     -10.523   5.648  66.743  1.00  0.00    -0.298 SA 
BRANCH  14  15
HETATM   15  C   UNL     1     -10.676   5.749  68.514  1.00  0.00    -0.217 C  
HETATM   16  N   UNL     1     -11.445   6.690  68.938  1.00  0.00    -0.602 N  
HETATM   17  H   UNL     1     -12.010   7.249  68.298  1.00  0.00     0.000 HD 
HETATM   18  C   UNL     1      -8.891   3.966  68.890  1.00  0.00    -0.107 C  
HETATM   19  C   UNL     1     -11.468   6.907  70.300  1.00  0.00    -0.323 C  
HETATM   20  N   UNL     1      -9.904   4.911  69.324  1.00  0.00    -0.189 NA 
HETATM   21  C   UNL     1     -10.981   5.843  71.282  1.00  0.00    -0.259 C  
HETATM   22  O   UNL     1     -11.769   7.988  70.807  1.00  0.00    -0.278 OA 
HETATM   23  H   UNL     1      -9.398   4.501  71.340  1.00  0.00     0.000 HD 
HETATM   24  N   UNL     1     -10.025   5.027  70.732  1.00  0.00    -0.206 N  
HETATM   25  O   UNL     1     -11.356   5.759  72.440  1.00  0.00    -0.279 OA 
ENDBRANCH  14  15
ENDBRANCH  13  14
ENDBRANCH   4  13
BRANCH   6  26
HETATM   26  N   UNL     1     -11.082  12.073  64.441  1.00  0.00    -0.324 N  
HETATM   27  O   UNL     1     -13.273  12.619  64.740  1.00  0.00    -0.846 OA 
HETATM   28  C   UNL     1     -12.134  12.609  65.202  1.00  0.00    -0.455 C  
HETATM   29  H   UNL     1     -11.379  11.780  63.510  1.00  0.00     0.000 HD 
BRANCH  28  30
HETATM   30  C   UNL     1     -11.902  13.353  66.490  1.00  0.00    -0.396 C  
BRANCH  30  31
HETATM   31  C   UNL     1     -11.067  14.554  66.620  1.00  0.00    -0.333 A  
HETATM   32  H2  UNL     1     -10.007  18.654  66.011  1.00  0.00     0.000 HD 
HETATM   33  C   UNL     1     -10.461  14.889  67.820  1.00  0.00    -0.255 A  
HETATM   34  H1  UNL     1     -10.787  17.952  64.593  1.00  0.00     0.000 HD 
HETATM   35  N   UNL     1     -11.096  15.607  65.691  1.00  0.00    -0.247 NA 
HETATM   36  N   UNL     1     -10.433  17.853  65.545  1.00  0.00    -0.631 NA 
HETATM   37  S   UNL     1      -9.929  16.514  67.794  1.00  0.00    -0.259 SA 
HETATM   38  C   UNL     1     -10.524  16.680  66.189  1.00  0.00    -0.285 A  
ENDBRANCH  30  31
BRANCH  30  39
HETATM   39  N   UNL     1     -12.229  12.884  67.648  1.00  0.00    -0.252 NA 
HETATM   40  H   UNL     1     -12.515  13.533  68.381  1.00  0.00     0.000 HD 
BRANCH  39  41
HETATM   41  O   UNL     1     -12.204  11.517  67.927  1.00  0.00    -0.586 OA 
HETATM   42  C   UNL     1     -12.160  11.018  69.250  1.00  0.00    -0.292 C  
ENDBRANCH  39  41
ENDBRANCH  30  39
ENDBRANCH  28  30
ENDBRANCH   6  26
TORSDOF 8
ENDMDL
MODEL       62
REMARK 921   NORMALIZED FREE ENERGY PREDICTED BY IDOCK:   -6.67 KCAL/MOL
REMARK 922        TOTAL FREE ENERGY PREDICTED BY IDOCK:  -11.06 KCAL/MOL
REMARK 923 INTER-LIGAND FREE ENERGY PREDICTED BY IDOCK:   -9.39 KCAL/MOL
REMARK 924 INTRA-LIGAND FREE ENERGY PREDICTED BY IDOCK:   -1.66 KCAL/MOL
REMARK 927      BINDING AFFINITY PREDICTED BY RF-SCORE:    0.00 PKD
ROOT
HETATM    1  C   UNL     1      -7.875  11.408  68.254  1.00  0.00    -0.132 C  
HETATM    2  S   UNL     1      -6.557  11.627  69.419  1.00  0.00    -0.103 SA 
HETATM    3  C   UNL     1      -6.713  10.190  70.543  1.00  0.00    -0.096 C  
HETATM    4  C   UNL     1      -7.755   9.145  70.264  1.00  0.00    -0.115 C  
HETATM    5  CA  UNL     1      -8.646   9.204  69.227  1.00  0.00    -0.137 C  
HETATM    6  CA  UNL     1      -9.140  12.296  67.889  1.00  0.00    -0.190 C  
HETATM    7  C   UNL     1      -9.798  10.888  67.744  1.00  0.00    -0.175 C  
HETATM    8  N   UNL     1      -8.775  10.306  68.424  1.00  0.00    -0.125 N  
HETATM    9  C   UNL     1      -9.532   8.016  68.958  1.00  0.00    -0.151 C  
HETATM   10  O   UNL     1     -10.905  10.518  67.436  1.00  0.00    -0.266 OA 
HETATM   11  O   UNL     1     -10.801   8.254  68.573  1.00  0.00    -0.069 OA 
HETATM   12  OXT UNL     1      -9.128   6.868  69.061  1.00  0.00    -0.139 OA 
ENDROOT
BRANCH   4  13
HETATM   13  C   UNL     1      -7.832   7.979  71.296  1.00  0.00    -0.091 C  
BRANCH  13  14
HETATM   14  S   UNL     1      -8.806   8.166  72.842  1.00  0.00    -0.245 SA 
BRANCH  14  15
HETATM   15  C   UNL     1     -10.518   7.976  72.391  1.00  0.00    -0.301 C  
HETATM   16  N   UNL     1     -11.139   9.076  72.147  1.00  0.00    -0.301 N  
HETATM   17  H   UNL     1     -10.648   9.969  72.101  1.00  0.00     0.000 HD 
HETATM   18  C   UNL     1     -10.491   5.472  72.877  1.00  0.00    -0.214 C  
HETATM   19  C   UNL     1     -12.502   8.990  71.950  1.00  0.00    -0.384 C  
HETATM   20  N   UNL     1     -11.107   6.708  72.429  1.00  0.00    -0.249 NA 
HETATM   21  C   UNL     1     -13.171   7.662  71.599  1.00  0.00    -0.352 C  
HETATM   22  O   UNL     1     -13.274   9.928  72.148  1.00  0.00    -0.438 OA 
HETATM   23  H   UNL     1     -12.952   5.690  72.211  1.00  0.00     0.000 HD 
HETATM   24  N   UNL     1     -12.478   6.585  72.090  1.00  0.00    -0.236 N  
HETATM   25  O   UNL     1     -14.229   7.568  70.998  1.00  0.00    -0.278 OA 
ENDBRANCH  14  15
ENDBRANCH  13  14
ENDBRANCH   4  13
BRANCH   6  26
HETATM   26  N   UNL     1     -10.046  13.263  68.666  1.00  0.00    -0.372 N  
HETATM   27  O   UNL     1     -11.287  15.083  69.246  1.00  0.00    -0.262 OA 
HETATM   28  C   UNL     1     -10.646  14.499  68.374  1.00  0.00    -0.244 C  
HETATM   29  H   UNL     1     -10.259  12.934  69.607  1.00  0.00     0.000 HD 
BRANCH  28  30
HETATM   30  C   UNL     1     -10.708  15.056  66.977  1.00  0.00    -0.304 C  
BRANCH  30  31
HETATM   31  C   UNL     1     -11.124  14.295  65.792  1.00  0.00    -0.310 A  
HETATM   32  H2  UNL     1     -10.753  11.329  62.731  1.00  0.00     0.000 HD 
HETATM   33  C   UNL     1     -12.432  13.867  65.628  1.00  0.00    -0.505 A  
HETATM   34  H1  UNL     1      -9.204  12.076  63.124  1.00  0.00     0.000 HD 
HETATM   35  N   UNL     1     -10.212  13.655  64.938  1.00  0.00    -0.366 NA 
HETATM   36  N   UNL     1     -10.211  12.004  63.270  1.00  0.00    -0.423 NA 
HETATM   37  S   UNL     1     -12.526  12.669  64.412  1.00  0.00    -0.396 SA 
HETATM   38  C   UNL     1     -10.829  12.790  64.165  1.00  0.00    -0.406 A  
ENDBRANCH  30  31
BRANCH  30  39
HETATM   39  N   UNL     1     -10.189  16.192  66.644  1.00  0.00    -0.279 NA 
HETATM   40  H   UNL     1      -9.433  16.208  65.961  1.00  0.00     0.000 HD 
BRANCH  39  41
HETATM   41  O   UNL     1     -10.633  17.396  67.191  1.00  0.00    -0.331 OA 
HETATM   42  C   UNL     1     -10.247  18.651  66.665  1.00  0.00    -0.404 C  
ENDBRANCH  39  41
ENDBRANCH  30  39
ENDBRANCH  28  30
ENDBRANCH   6  26
TORSDOF 8
ENDMDL
MODEL       63
REMARK 921   NORMALIZED FREE ENERGY PREDICTED BY IDOCK:   -6.67 KCAL/MOL
REMARK 922        TOTAL FREE ENERGY PREDICTED BY IDOCK:  -11.05 KCAL/MOL
REMARK 923 INTER-LIGAND FREE ENERGY PREDICTED BY IDOCK:   -9.14 KCAL/MOL
REMARK 924 INTRA-LIGAND FREE ENERGY PREDICTED BY IDOCK:   -1.91 KCAL/MOL
REMARK 927      BINDING AFFINITY PREDICTED BY RF-SCORE:    0.00 PKD
ROOT
HETATM    1  C   UNL     1     -11.528  15.325  66.636  1.00  0.00    -0.107 C  
HETATM    2  S   UNL     1     -11.747  13.650  66.103  1.00  0.00    -0.385 SA 
HETATM    3  C   UNL     1     -11.960  12.711  67.661  1.00  0.00    -0.247 C  
HETATM    4  C   UNL     1     -11.997  13.450  68.968  1.00  0.00    -0.357 C  
HETATM    5  CA  UNL     1     -11.844  14.804  69.091  1.00  0.00    -0.305 C  
HETATM    6  CA  UNL     1     -10.331  16.356  66.464  1.00  0.00    -0.303 C  
HETATM    7  C   UNL     1     -10.775  16.757  67.905  1.00  0.00    -0.347 C  
HETATM    8  N   UNL     1     -11.486  15.607  68.041  1.00  0.00    -0.328 N  
HETATM    9  C   UNL     1     -12.063  15.443  70.437  1.00  0.00    -0.372 C  
HETATM   10  O   UNL     1     -10.390  17.591  68.690  1.00  0.00    -0.349 OA 
HETATM   11  O   UNL     1     -11.252  16.460  70.790  1.00  0.00    -0.350 OA 
HETATM   12  OXT UNL     1     -12.954  15.082  71.190  1.00  0.00    -0.333 OA 
ENDROOT
BRANCH   4  13
HETATM   13  C   UNL     1     -12.147  12.561  70.240  1.00  0.00    -0.294 C  
BRANCH  13  14
HETATM   14  S   UNL     1     -12.715  10.820  70.097  1.00  0.00    -0.053 SA 
BRANCH  14  15
HETATM   15  C   UNL     1     -11.572   9.834  71.041  1.00  0.00    -0.376 C  
HETATM   16  N   UNL     1     -10.341   9.937  70.679  1.00  0.00    -0.367 N  
HETATM   17  H   UNL     1     -10.043  10.624  69.987  1.00  0.00     0.000 HD 
HETATM   18  C   UNL     1     -13.447   8.669  72.320  1.00  0.00    -0.374 C  
HETATM   19  C   UNL     1      -9.444   9.074  71.274  1.00  0.00    -0.269 C  
HETATM   20  N   UNL     1     -12.056   8.951  72.011  1.00  0.00    -0.360 NA 
HETATM   21  C   UNL     1      -9.780   8.356  72.580  1.00  0.00    -0.262 C  
HETATM   22  O   UNL     1      -8.380   8.741  70.752  1.00  0.00    -0.126 OA 
HETATM   23  H   UNL     1     -11.466   7.436  73.368  1.00  0.00     0.000 HD 
HETATM   24  N   UNL     1     -11.128   8.158  72.732  1.00  0.00    -0.382 N  
HETATM   25  O   UNL     1      -8.944   7.955  73.374  1.00  0.00    -0.224 OA 
ENDBRANCH  14  15
ENDBRANCH  13  14
ENDBRANCH   4  13
BRANCH   6  26
HETATM   26  N   UNL     1      -8.804  16.235  66.359  1.00  0.00    -0.282 N  
HETATM   27  O   UNL     1      -6.639  15.655  66.764  1.00  0.00    -0.189 OA 
HETATM   28  C   UNL     1      -7.827  15.488  67.036  1.00  0.00    -0.225 C  
HETATM   29  H   UNL     1      -8.410  16.833  65.633  1.00  0.00     0.000 HD 
BRANCH  28  30
HETATM   30  C   UNL     1      -8.174  14.345  67.952  1.00  0.00    -0.156 C  
BRANCH  30  31
HETATM   31  C   UNL     1      -8.586  13.010  67.499  1.00  0.00    -0.192 A  
HETATM   32  H2  UNL     1      -8.965   9.774  64.726  1.00  0.00     0.000 HD 
HETATM   33  C   UNL     1      -8.463  11.898  68.317  1.00  0.00    -0.161 A  
HETATM   34  H1  UNL     1      -9.117  11.345  63.938  1.00  0.00     0.000 HD 
HETATM   35  N   UNL     1      -8.795  12.694  66.147  1.00  0.00     0.100 NA 
HETATM   36  N   UNL     1      -8.983  10.792  64.785  1.00  0.00    -0.193 NA 
HETATM   37  S   UNL     1      -8.606  10.459  67.403  1.00  0.00    -0.125 SA 
HETATM   38  C   UNL     1      -8.832  11.391  65.976  1.00  0.00    -0.174 A  
ENDBRANCH  30  31
BRANCH  30  39
HETATM   39  N   UNL     1      -8.362  14.486  69.222  1.00  0.00    -0.364 NA 
HETATM   40  H   UNL     1      -9.207  14.101  69.643  1.00  0.00     0.000 HD 
BRANCH  39  41
HETATM   41  O   UNL     1      -7.443  15.149  70.036  1.00  0.00    -0.135 OA 
HETATM   42  C   UNL     1      -6.232  14.548  70.451  1.00  0.00    -0.174 C  
ENDBRANCH  39  41
ENDBRANCH  30  39
ENDBRANCH  28  30
ENDBRANCH   6  26
TORSDOF 8
ENDMDL
MODEL       64
REMARK 921   NORMALIZED FREE ENERGY PREDICTED BY IDOCK:   -6.67 KCAL/MOL
REMARK 922        TOTAL FREE ENERGY PREDICTED BY IDOCK:  -11.05 KCAL/MOL
REMARK 923 INTER-LIGAND FREE ENERGY PREDICTED BY IDOCK:   -9.36 KCAL/MOL
REMARK 924 INTRA-LIGAND FREE ENERGY PREDICTED BY IDOCK:   -1.69 KCAL/MOL
REMARK 927      BINDING AFFINITY PREDICTED BY RF-SCORE:    0.00 PKD
ROOT
HETATM    1  C   UNL     1      -8.724   7.173  68.565  1.00  0.00    -0.126 C  
HETATM    2  S   UNL     1     -10.419   7.665  68.406  1.00  0.00    -0.130 SA 
HETATM    3  C   UNL     1     -10.344   9.214  67.433  1.00  0.00    -0.264 C  
HETATM    4  C   UNL     1      -9.018   9.699  66.920  1.00  0.00    -0.151 C  
HETATM    5  CA  UNL     1      -7.825   9.075  67.161  1.00  0.00    -0.099 C  
HETATM    6  CA  UNL     1      -7.785   6.960  69.829  1.00  0.00    -0.113 C  
HETATM    7  C   UNL     1      -6.726   7.563  68.854  1.00  0.00    -0.049 C  
HETATM    8  N   UNL     1      -7.702   8.022  68.027  1.00  0.00    -0.115 N  
HETATM    9  C   UNL     1      -6.589   9.568  66.456  1.00  0.00    -0.071 C  
HETATM   10  O   UNL     1      -5.546   7.800  68.956  1.00  0.00    -0.025 OA 
HETATM   11  O   UNL     1      -5.431   9.573  67.146  1.00  0.00    -0.039 OA 
HETATM   12  OXT UNL     1      -6.608   9.937  65.291  1.00  0.00    -0.091 OA 
ENDROOT
BRANCH   4  13
HETATM   13  C   UNL     1      -9.052  11.044  66.132  1.00  0.00    -0.192 C  
BRANCH  13  14
HETATM   14  S   UNL     1     -10.053  11.201  64.600  1.00  0.00    -0.326 SA 
BRANCH  14  15
HETATM   15  C   UNL     1     -10.623  12.886  64.536  1.00  0.00    -0.382 C  
HETATM   16  N   UNL     1      -9.848  13.743  65.103  1.00  0.00    -0.587 N  
HETATM   17  H   UNL     1      -8.925  13.481  65.450  1.00  0.00     0.000 HD 
HETATM   18  C   UNL     1     -12.862  12.215  63.515  1.00  0.00    -0.325 C  
HETATM   19  C   UNL     1     -10.324  15.032  65.217  1.00  0.00    -0.395 C  
HETATM   20  N   UNL     1     -11.881  13.171  63.995  1.00  0.00    -0.425 NA 
HETATM   21  C   UNL     1     -11.480  15.532  64.352  1.00  0.00    -0.259 C  
HETATM   22  O   UNL     1      -9.939  15.821  66.081  1.00  0.00    -0.268 OA 
HETATM   23  H   UNL     1     -13.276  14.734  63.684  1.00  0.00     0.000 HD 
HETATM   24  N   UNL     1     -12.324  14.518  63.977  1.00  0.00    -0.339 N  
HETATM   25  O   UNL     1     -11.664  16.705  64.069  1.00  0.00    -1.143 OA 
ENDBRANCH  14  15
ENDBRANCH  13  14
ENDBRANCH   4  13
BRANCH   6  26
HETATM   26  N   UNL     1      -7.688   7.589  71.226  1.00  0.00    -0.084 N  
HETATM   27  O   UNL     1      -8.235   8.565  73.210  1.00  0.00    -0.374 OA 
HETATM   28  C   UNL     1      -8.626   8.030  72.174  1.00  0.00    -0.155 C  
HETATM   29  H   UNL     1      -6.725   7.717  71.535  1.00  0.00     0.000 HD 
BRANCH  28  30
HETATM   30  C   UNL     1     -10.092   7.703  72.072  1.00  0.00    -0.188 C  
BRANCH  30  31
HETATM   31  C   UNL     1     -11.164   8.701  71.964  1.00  0.00    -0.364 A  
HETATM   32  H2  UNL     1     -13.265  11.999  70.227  1.00  0.00     0.000 HD 
HETATM   33  C   UNL     1     -12.488   8.370  72.198  1.00  0.00    -0.370 A  
HETATM   34  H1  UNL     1     -11.515  12.181  70.094  1.00  0.00     0.000 HD 
HETATM   35  N   UNL     1     -10.999   9.928  71.301  1.00  0.00    -0.260 NA 
HETATM   36  N   UNL     1     -12.325  11.646  70.409  1.00  0.00    -0.312 NA 
HETATM   37  S   UNL     1     -13.529   9.583  71.592  1.00  0.00    -0.365 SA 
HETATM   38  C   UNL     1     -12.165  10.484  71.061  1.00  0.00    -0.400 A  
ENDBRANCH  30  31
BRANCH  30  39
HETATM   39  N   UNL     1     -10.571   6.524  72.294  1.00  0.00    -0.207 NA 
HETATM   40  H   UNL     1     -11.108   6.361  73.146  1.00  0.00     0.000 HD 
BRANCH  39  41
HETATM   41  O   UNL     1     -10.378   5.467  71.404  1.00  0.00    -0.212 OA 
HETATM   42  C   UNL     1      -9.615   4.325  71.743  1.00  0.00    -0.154 C  
ENDBRANCH  39  41
ENDBRANCH  30  39
ENDBRANCH  28  30
ENDBRANCH   6  26
TORSDOF 8
ENDMDL
MODEL       65
REMARK 921   NORMALIZED FREE ENERGY PREDICTED BY IDOCK:   -6.67 KCAL/MOL
REMARK 922        TOTAL FREE ENERGY PREDICTED BY IDOCK:  -11.05 KCAL/MOL
REMARK 923 INTER-LIGAND FREE ENERGY PREDICTED BY IDOCK:   -9.02 KCAL/MOL
REMARK 924 INTRA-LIGAND FREE ENERGY PREDICTED BY IDOCK:   -2.02 KCAL/MOL
REMARK 927      BINDING AFFINITY PREDICTED BY RF-SCORE:    0.00 PKD
ROOT
HETATM    1  C   UNL     1      -8.199  11.408  68.488  1.00  0.00    -0.153 C  
HETATM    2  S   UNL     1      -6.805  11.679  69.547  1.00  0.00     0.008 SA 
HETATM    3  C   UNL     1      -6.687  10.139  70.531  1.00  0.00    -0.096 C  
HETATM    4  C   UNL     1      -7.630   9.005  70.243  1.00  0.00    -0.087 C  
HETATM    5  CA  UNL     1      -8.620   9.050  69.300  1.00  0.00    -0.136 C  
HETATM    6  CA  UNL     1      -9.586  12.167  68.327  1.00  0.00    -0.210 C  
HETATM    7  C   UNL     1     -10.094  10.708  68.101  1.00  0.00    -0.158 C  
HETATM    8  N   UNL     1      -8.950  10.195  68.626  1.00  0.00    -0.130 N  
HETATM    9  C   UNL     1      -9.391   7.793  68.995  1.00  0.00    -0.150 C  
HETATM   10  O   UNL     1     -11.178  10.237  67.857  1.00  0.00    -0.301 OA 
HETATM   11  O   UNL     1     -10.711   7.909  68.749  1.00  0.00    -0.164 OA 
HETATM   12  OXT UNL     1      -8.855   6.696  68.946  1.00  0.00    -0.131 OA 
ENDROOT
BRANCH   4  13
HETATM   13  C   UNL     1      -7.474   7.752  71.156  1.00  0.00    -0.078 C  
BRANCH  13  14
HETATM   14  S   UNL     1      -8.375   7.645  72.754  1.00  0.00    -0.139 SA 
BRANCH  14  15
HETATM   15  C   UNL     1     -10.104   7.505  72.354  1.00  0.00    -0.203 C  
HETATM   16  N   UNL     1     -10.735   8.625  72.279  1.00  0.00    -0.346 N  
HETATM   17  H   UNL     1     -10.246   9.519  72.328  1.00  0.00     0.000 HD 
HETATM   18  C   UNL     1     -10.057   4.960  72.511  1.00  0.00    -0.182 C  
HETATM   19  C   UNL     1     -12.105   8.557  72.130  1.00  0.00    -0.383 C  
HETATM   20  N   UNL     1     -10.691   6.240  72.252  1.00  0.00    -0.220 NA 
HETATM   21  C   UNL     1     -12.788   7.282  71.638  1.00  0.00    -0.375 C  
HETATM   22  O   UNL     1     -12.868   9.458  72.480  1.00  0.00    -0.349 OA 
HETATM   23  H   UNL     1     -12.544   5.250  71.982  1.00  0.00     0.000 HD 
HETATM   24  N   UNL     1     -12.075   6.155  71.957  1.00  0.00    -0.283 N  
HETATM   25  O   UNL     1     -13.870   7.261  71.075  1.00  0.00    -0.241 OA 
ENDBRANCH  14  15
ENDBRANCH  13  14
ENDBRANCH   4  13
BRANCH   6  26
HETATM   26  N   UNL     1     -10.510  12.945  69.273  1.00  0.00    -0.419 N  
HETATM   27  O   UNL     1     -11.858  14.557  70.152  1.00  0.00    -0.274 OA 
HETATM   28  C   UNL     1     -11.237  14.143  69.175  1.00  0.00    -0.272 C  
HETATM   29  H   UNL     1     -10.623  12.489  70.178  1.00  0.00     0.000 HD 
BRANCH  28  30
HETATM   30  C   UNL     1     -11.452  14.852  67.864  1.00  0.00    -0.340 C  
BRANCH  30  31
HETATM   31  C   UNL     1     -10.908  16.175  67.533  1.00  0.00    -0.284 A  
HETATM   32  H2  UNL     1      -8.742  19.795  68.247  1.00  0.00     0.000 HD 
HETATM   33  C   UNL     1     -10.345  16.438  66.294  1.00  0.00    -0.329 A  
HETATM   34  H1  UNL     1      -9.600  19.239  69.685  1.00  0.00     0.000 HD 
HETATM   35  N   UNL     1     -10.600  17.139  68.507  1.00  0.00    -0.362 NA 
HETATM   36  N   UNL     1      -9.357  19.120  68.702  1.00  0.00    -0.372 NA 
HETATM   37  S   UNL     1      -9.431  17.882  66.342  1.00  0.00    -0.233 SA 
HETATM   38  C   UNL     1      -9.840  18.083  67.999  1.00  0.00    -0.323 A  
ENDBRANCH  30  31
BRANCH  30  39
HETATM   39  N   UNL     1     -12.318  14.469  66.986  1.00  0.00    -0.522 NA 
HETATM   40  H   UNL     1     -12.928  15.164  66.558  1.00  0.00     0.000 HD 
BRANCH  39  41
HETATM   41  O   UNL     1     -12.443  13.133  66.604  1.00  0.00    -0.319 OA 
HETATM   42  C   UNL     1     -12.059  12.675  65.322  1.00  0.00    -0.467 C  
ENDBRANCH  39  41
ENDBRANCH  30  39
ENDBRANCH  28  30
ENDBRANCH   6  26
TORSDOF 8
ENDMDL
MODEL       66
REMARK 921   NORMALIZED FREE ENERGY PREDICTED BY IDOCK:   -6.66 KCAL/MOL
REMARK 922        TOTAL FREE ENERGY PREDICTED BY IDOCK:  -11.03 KCAL/MOL
REMARK 923 INTER-LIGAND FREE ENERGY PREDICTED BY IDOCK:   -9.60 KCAL/MOL
REMARK 924 INTRA-LIGAND FREE ENERGY PREDICTED BY IDOCK:   -1.43 KCAL/MOL
REMARK 927      BINDING AFFINITY PREDICTED BY RF-SCORE:    0.00 PKD
ROOT
HETATM    1  C   UNL     1     -12.401  11.101  70.180  1.00  0.00    -0.295 C  
HETATM    2  S   UNL     1     -12.943  12.151  71.501  1.00  0.00    -0.183 SA 
HETATM    3  C   UNL     1     -12.671  13.845  70.862  1.00  0.00    -0.340 C  
HETATM    4  C   UNL     1     -12.175  14.033  69.456  1.00  0.00    -0.355 C  
HETATM    5  CA  UNL     1     -11.869  13.007  68.605  1.00  0.00    -0.318 C  
HETATM    6  CA  UNL     1     -11.257  10.002  70.085  1.00  0.00    -0.304 C  
HETATM    7  C   UNL     1     -11.124  10.598  68.649  1.00  0.00    -0.263 C  
HETATM    8  N   UNL     1     -11.839  11.698  69.005  1.00  0.00    -0.320 N  
HETATM    9  C   UNL     1     -11.539  13.325  67.170  1.00  0.00    -0.357 C  
HETATM   10  O   UNL     1     -10.413  10.340  67.708  1.00  0.00    -0.193 OA 
HETATM   11  O   UNL     1     -10.569  12.604  66.574  1.00  0.00    -0.249 OA 
HETATM   12  OXT UNL     1     -12.132  14.189  66.543  1.00  0.00    -0.428 OA 
ENDROOT
BRANCH   4  13
HETATM   13  C   UNL     1     -11.942  15.511  69.017  1.00  0.00    -0.301 C  
BRANCH  13  14
HETATM   14  S   UNL     1     -10.538  16.476  69.705  1.00  0.00    -0.258 SA 
BRANCH  14  15
HETATM   15  C   UNL     1      -9.801  17.345  68.337  1.00  0.00    -0.316 C  
HETATM   16  N   UNL     1     -10.272  18.524  68.127  1.00  0.00    -0.368 N  
HETATM   17  H   UNL     1     -10.929  18.961  68.774  1.00  0.00     0.000 HD 
HETATM   18  C   UNL     1      -8.447  15.307  67.617  1.00  0.00    -0.161 C  
HETATM   19  C   UNL     1      -9.845  19.170  66.985  1.00  0.00    -0.336 C  
HETATM   20  N   UNL     1      -8.866  16.694  67.526  1.00  0.00    -0.195 NA 
HETATM   21  C   UNL     1      -8.578  18.732  66.252  1.00  0.00    -0.234 C  
HETATM   22  O   UNL     1     -10.496  20.051  66.423  1.00  0.00    -0.454 OA 
HETATM   23  H   UNL     1      -7.710  16.910  65.765  1.00  0.00     0.000 HD 
HETATM   24  N   UNL     1      -8.311  17.398  66.428  1.00  0.00    -0.267 N  
HETATM   25  O   UNL     1      -7.909  19.468  65.545  1.00  0.00    -0.402 OA 
ENDBRANCH  14  15
ENDBRANCH  13  14
ENDBRANCH   4  13
BRANCH   6  26
HETATM   26  N   UNL     1      -9.885   9.808  70.745  1.00  0.00    -0.332 N  
HETATM   27  O   UNL     1      -8.130   8.902  71.880  1.00  0.00    -0.338 OA 
HETATM   28  C   UNL     1      -9.241   8.733  71.380  1.00  0.00    -0.255 C  
HETATM   29  H   UNL     1      -9.310  10.650  70.715  1.00  0.00     0.000 HD 
BRANCH  28  30
HETATM   30  C   UNL     1      -9.763   7.323  71.309  1.00  0.00    -0.166 C  
BRANCH  30  31
HETATM   31  C   UNL     1      -9.391   6.347  70.277  1.00  0.00    -0.158 A  
HETATM   32  H2  UNL     1      -6.783   3.662  68.204  1.00  0.00     0.000 HD 
HETATM   33  C   UNL     1     -10.247   5.323  69.906  1.00  0.00    -0.294 A  
HETATM   34  H1  UNL     1      -5.939   5.102  68.772  1.00  0.00     0.000 HD 
HETATM   35  N   UNL     1      -8.066   6.155  69.851  1.00  0.00    -0.117 NA 
HETATM   36  N   UNL     1      -6.800   4.563  68.681  1.00  0.00    -0.050 NA 
HETATM   37  S   UNL     1      -9.406   4.121  69.028  1.00  0.00    -0.175 SA 
HETATM   38  C   UNL     1      -7.954   5.029  69.182  1.00  0.00    -0.080 A  
ENDBRANCH  30  31
BRANCH  30  39
HETATM   39  N   UNL     1     -10.758   6.900  72.016  1.00  0.00    -0.213 NA 
HETATM   40  H   UNL     1     -10.871   5.897  72.159  1.00  0.00     0.000 HD 
BRANCH  39  41
HETATM   41  O   UNL     1     -11.682   7.774  72.589  1.00  0.00    -0.349 OA 
HETATM   42  C   UNL     1     -13.022   7.855  72.142  1.00  0.00    -0.177 C  
ENDBRANCH  39  41
ENDBRANCH  30  39
ENDBRANCH  28  30
ENDBRANCH   6  26
TORSDOF 8
ENDMDL
MODEL       67
REMARK 921   NORMALIZED FREE ENERGY PREDICTED BY IDOCK:   -6.63 KCAL/MOL
REMARK 922        TOTAL FREE ENERGY PREDICTED BY IDOCK:  -10.99 KCAL/MOL
REMARK 923 INTER-LIGAND FREE ENERGY PREDICTED BY IDOCK:   -9.04 KCAL/MOL
REMARK 924 INTRA-LIGAND FREE ENERGY PREDICTED BY IDOCK:   -1.96 KCAL/MOL
REMARK 927      BINDING AFFINITY PREDICTED BY RF-SCORE:    0.00 PKD
ROOT
HETATM    1  C   UNL     1     -11.149  11.439  66.813  1.00  0.00    -0.281 C  
HETATM    2  S   UNL     1     -10.365  11.342  65.227  1.00  0.00    -0.295 SA 
HETATM    3  C   UNL     1      -9.525   9.714  65.244  1.00  0.00    -0.275 C  
HETATM    4  C   UNL     1      -9.699   8.807  66.429  1.00  0.00    -0.335 C  
HETATM    5  CA  UNL     1     -10.427   9.126  67.542  1.00  0.00    -0.270 C  
HETATM    6  CA  UNL     1     -10.988  12.450  68.028  1.00  0.00    -0.225 C  
HETATM    7  C   UNL     1     -11.206  11.139  68.847  1.00  0.00    -0.256 C  
HETATM    8  N   UNL     1     -10.948  10.375  67.753  1.00  0.00    -0.294 N  
HETATM    9  C   UNL     1     -10.659   8.068  68.589  1.00  0.00    -0.109 C  
HETATM   10  O   UNL     1     -11.266  10.900  70.029  1.00  0.00    -0.281 OA 
HETATM   11  O   UNL     1     -10.637   8.448  69.881  1.00  0.00    -0.224 OA 
HETATM   12  OXT UNL     1     -10.883   6.904  68.297  1.00  0.00    -0.217 OA 
ENDROOT
BRANCH   4  13
HETATM   13  C   UNL     1      -8.918   7.460  66.364  1.00  0.00    -0.163 C  
BRANCH  13  14
HETATM   14  S   UNL     1      -7.163   7.373  66.902  1.00  0.00    -0.090 SA 
BRANCH  14  15
HETATM   15  C   UNL     1      -6.952   8.625  68.151  1.00  0.00    -0.074 C  
HETATM   16  N   UNL     1      -7.366   8.295  69.324  1.00  0.00    -0.074 N  
HETATM   17  H   UNL     1      -7.676   7.347  69.534  1.00  0.00     0.000 HD 
HETATM   18  C   UNL     1      -6.169  10.358  66.451  1.00  0.00    -0.087 C  
HETATM   19  C   UNL     1      -7.370   9.287  70.283  1.00  0.00    -0.100 C  
HETATM   20  N   UNL     1      -6.471   9.888  67.790  1.00  0.00    -0.063 NA 
HETATM   21  C   UNL     1      -6.536  10.556  70.116  1.00  0.00    -0.149 C  
HETATM   22  O   UNL     1      -8.112   9.274  71.265  1.00  0.00    -0.320 OA 
HETATM   23  H   UNL     1      -6.087  11.831  68.541  1.00  0.00     0.000 HD 
HETATM   24  N   UNL     1      -6.335  10.876  68.798  1.00  0.00    -0.047 N  
HETATM   25  O   UNL     1      -6.139  11.240  71.046  1.00  0.00    -0.362 OA 
ENDBRANCH  14  15
ENDBRANCH  13  14
ENDBRANCH   4  13
BRANCH   6  26
HETATM   26  N   UNL     1      -9.831  13.283  68.597  1.00  0.00    -0.392 N  
HETATM   27  O   UNL     1      -8.602  15.018  69.415  1.00  0.00    -0.192 OA 
HETATM   28  C   UNL     1      -9.706  14.600  69.069  1.00  0.00    -0.160 C  
HETATM   29  H   UNL     1      -8.955  12.763  68.644  1.00  0.00     0.000 HD 
BRANCH  28  30
HETATM   30  C   UNL     1     -10.898  15.472  69.355  1.00  0.00    -0.261 C  
BRANCH  30  31
HETATM   31  C   UNL     1     -11.749  15.357  70.547  1.00  0.00    -0.325 A  
HETATM   32  H2  UNL     1     -13.835  13.304  73.668  1.00  0.00     0.000 HD 
HETATM   33  C   UNL     1     -11.619  16.227  71.617  1.00  0.00    -0.362 A  
HETATM   34  H1  UNL     1     -13.871  12.412  72.147  1.00  0.00     0.000 HD 
HETATM   35  N   UNL     1     -12.486  14.200  70.848  1.00  0.00    -0.343 NA 
HETATM   36  N   UNL     1     -13.587  13.233  72.681  1.00  0.00    -0.662 NA 
HETATM   37  S   UNL     1     -12.412  15.605  72.999  1.00  0.00    -0.519 SA 
HETATM   38  C   UNL     1     -12.891  14.221  72.098  1.00  0.00    -0.344 A  
ENDBRANCH  30  31
BRANCH  30  39
HETATM   39  N   UNL     1     -11.427  16.261  68.479  1.00  0.00    -0.340 NA 
HETATM   40  H   UNL     1     -12.355  16.644  68.654  1.00  0.00     0.000 HD 
BRANCH  39  41
HETATM   41  O   UNL     1     -10.766  16.603  67.299  1.00  0.00    -0.306 OA 
HETATM   42  C   UNL     1     -10.893  15.840  66.114  1.00  0.00    -0.240 C  
ENDBRANCH  39  41
ENDBRANCH  30  39
ENDBRANCH  28  30
ENDBRANCH   6  26
TORSDOF 8
ENDMDL
MODEL       68
REMARK 921   NORMALIZED FREE ENERGY PREDICTED BY IDOCK:   -6.63 KCAL/MOL
REMARK 922        TOTAL FREE ENERGY PREDICTED BY IDOCK:  -10.99 KCAL/MOL
REMARK 923 INTER-LIGAND FREE ENERGY PREDICTED BY IDOCK:   -9.69 KCAL/MOL
REMARK 924 INTRA-LIGAND FREE ENERGY PREDICTED BY IDOCK:   -1.30 KCAL/MOL
REMARK 927      BINDING AFFINITY PREDICTED BY RF-SCORE:    0.00 PKD
ROOT
HETATM    1  C   UNL     1     -11.064  11.486  67.320  1.00  0.00    -0.293 C  
HETATM    2  S   UNL     1     -11.933  12.922  66.751  1.00  0.00    -0.278 SA 
HETATM    3  C   UNL     1     -10.715  14.278  66.925  1.00  0.00    -0.290 C  
HETATM    4  C   UNL     1      -9.319  13.962  67.384  1.00  0.00    -0.228 C  
HETATM    5  CA  UNL     1      -8.887  12.710  67.726  1.00  0.00    -0.179 C  
HETATM    6  CA  UNL     1     -11.333  10.476  68.516  1.00  0.00    -0.257 C  
HETATM    7  C   UNL     1      -9.774  10.514  68.594  1.00  0.00    -0.173 C  
HETATM    8  N   UNL     1      -9.733  11.638  67.830  1.00  0.00    -0.174 N  
HETATM    9  C   UNL     1      -7.424  12.498  68.014  1.00  0.00    -0.117 C  
HETATM   10  O   UNL     1      -8.966   9.961  69.299  1.00  0.00    -0.154 OA 
HETATM   11  O   UNL     1      -7.096  11.650  69.008  1.00  0.00    -0.106 OA 
HETATM   12  OXT UNL     1      -6.548  13.050  67.366  1.00  0.00    -0.164 OA 
ENDROOT
BRANCH   4  13
HETATM   13  C   UNL     1      -8.367  15.187  67.535  1.00  0.00    -0.172 C  
BRANCH  13  14
HETATM   14  S   UNL     1      -8.554  16.344  68.949  1.00  0.00    -0.234 SA 
BRANCH  14  15
HETATM   15  C   UNL     1      -8.076  17.954  68.356  1.00  0.00    -0.299 C  
HETATM   16  N   UNL     1      -7.053  18.467  68.946  1.00  0.00    -0.282 N  
HETATM   17  H   UNL     1      -6.498  17.933  69.615  1.00  0.00     0.000 HD 
HETATM   18  C   UNL     1     -10.122  18.136  66.845  1.00  0.00    -0.357 C  
HETATM   19  C   UNL     1      -6.745  19.774  68.631  1.00  0.00    -0.306 C  
HETATM   20  N   UNL     1      -8.863  18.600  67.398  1.00  0.00    -0.271 NA 
HETATM   21  C   UNL     1      -7.281  20.432  67.360  1.00  0.00    -0.310 C  
HETATM   22  O   UNL     1      -6.126  20.523  69.387  1.00  0.00    -0.344 OA 
HETATM   23  H   UNL     1      -9.090  20.422  66.342  1.00  0.00     0.000 HD 
HETATM   24  N   UNL     1      -8.476  19.892  66.960  1.00  0.00    -0.315 N  
HETATM   25  O   UNL     1      -6.738  21.367  66.795  1.00  0.00    -0.439 OA 
ENDBRANCH  14  15
ENDBRANCH  13  14
ENDBRANCH   4  13
BRANCH   6  26
HETATM   26  N   UNL     1     -11.968  10.591  69.909  1.00  0.00    -0.395 N  
HETATM   27  O   UNL     1     -12.830  10.069  71.952  1.00  0.00    -0.403 OA 
HETATM   28  C   UNL     1     -12.235   9.683  70.947  1.00  0.00    -0.285 C  
HETATM   29  H   UNL     1     -12.264  11.541  70.130  1.00  0.00     0.000 HD 
BRANCH  28  30
HETATM   30  C   UNL     1     -11.654   8.295  70.975  1.00  0.00    -0.275 C  
BRANCH  30  31
HETATM   31  C   UNL     1     -10.594   7.852  71.890  1.00  0.00    -0.231 A  
HETATM   32  H2  UNL     1      -7.054   8.274  74.256  1.00  0.00     0.000 HD 
HETATM   33  C   UNL     1     -10.872   7.058  72.991  1.00  0.00    -0.309 A  
HETATM   34  H1  UNL     1      -6.956   9.180  72.746  1.00  0.00     0.000 HD 
HETATM   35  N   UNL     1      -9.326   8.455  71.937  1.00  0.00    -0.219 NA 
HETATM   36  N   UNL     1      -7.470   8.558  73.369  1.00  0.00    -0.351 NA 
HETATM   37  S   UNL     1      -9.557   7.061  74.084  1.00  0.00    -0.229 SA 
HETATM   38  C   UNL     1      -8.690   8.110  73.034  1.00  0.00    -0.243 A  
ENDBRANCH  30  31
BRANCH  30  39
HETATM   39  N   UNL     1     -11.870   7.418  70.052  1.00  0.00    -0.502 NA 
HETATM   40  H   UNL     1     -12.829   7.136  69.851  1.00  0.00     0.000 HD 
BRANCH  39  41
HETATM   41  O   UNL     1     -10.830   6.844  69.319  1.00  0.00    -0.233 OA 
HETATM   42  C   UNL     1     -10.885   6.704  67.913  1.00  0.00    -0.277 C  
ENDBRANCH  39  41
ENDBRANCH  30  39
ENDBRANCH  28  30
ENDBRANCH   6  26
TORSDOF 8
ENDMDL
MODEL       69
REMARK 921   NORMALIZED FREE ENERGY PREDICTED BY IDOCK:   -6.63 KCAL/MOL
REMARK 922        TOTAL FREE ENERGY PREDICTED BY IDOCK:  -10.99 KCAL/MOL
REMARK 923 INTER-LIGAND FREE ENERGY PREDICTED BY IDOCK:   -8.77 KCAL/MOL
REMARK 924 INTRA-LIGAND FREE ENERGY PREDICTED BY IDOCK:   -2.22 KCAL/MOL
REMARK 927      BINDING AFFINITY PREDICTED BY RF-SCORE:    0.00 PKD
ROOT
HETATM    1  C   UNL     1      -9.574   5.439  69.925  1.00  0.00    -0.168 C  
HETATM    2  S   UNL     1     -11.134   6.213  69.595  1.00  0.00    -0.413 SA 
HETATM    3  C   UNL     1     -10.866   7.098  68.015  1.00  0.00    -0.128 C  
HETATM    4  C   UNL     1      -9.549   6.959  67.305  1.00  0.00    -0.173 C  
HETATM    5  CA  UNL     1      -8.492   6.231  67.781  1.00  0.00    -0.116 C  
HETATM    6  CA  UNL     1      -8.540   5.581  71.123  1.00  0.00    -0.127 C  
HETATM    7  C   UNL     1      -7.518   5.406  69.956  1.00  0.00    -0.069 C  
HETATM    8  N   UNL     1      -8.479   5.677  69.033  1.00  0.00    -0.102 N  
HETATM    9  C   UNL     1      -7.286   6.037  66.899  1.00  0.00    -0.076 C  
HETATM   10  O   UNL     1      -6.313   5.363  69.909  1.00  0.00    -0.028 OA 
HETATM   11  O   UNL     1      -6.072   6.060  67.483  1.00  0.00    -0.017 OA 
HETATM   12  OXT UNL     1      -7.384   5.844  65.697  1.00  0.00    -0.073 OA 
ENDROOT
BRANCH   4  13
HETATM   13  C   UNL     1      -9.405   7.778  65.987  1.00  0.00    -0.037 C  
BRANCH  13  14
HETATM   14  S   UNL     1      -8.512   9.383  65.979  1.00  0.00    -0.128 SA 
BRANCH  14  15
HETATM   15  C   UNL     1      -9.612  10.573  65.242  1.00  0.00    -0.249 C  
HETATM   16  N   UNL     1     -10.376  11.192  66.073  1.00  0.00    -0.248 N  
HETATM   17  H   UNL     1     -10.265  11.087  67.082  1.00  0.00     0.000 HD 
HETATM   18  C   UNL     1      -8.960   9.888  62.873  1.00  0.00    -0.261 C  
HETATM   19  C   UNL     1     -11.352  12.004  65.534  1.00  0.00    -0.328 C  
HETATM   20  N   UNL     1      -9.669  10.695  63.850  1.00  0.00    -0.296 NA 
HETATM   21  C   UNL     1     -11.266  12.498  64.091  1.00  0.00    -0.382 C  
HETATM   22  O   UNL     1     -12.394  12.291  66.124  1.00  0.00    -0.588 OA 
HETATM   23  H   UNL     1     -10.703  11.662  62.275  1.00  0.00     0.000 HD 
HETATM   24  N   UNL     1     -10.571  11.632  63.286  1.00  0.00    -0.376 N  
HETATM   25  O   UNL     1     -11.800  13.517  63.685  1.00  0.00    -0.418 OA 
ENDBRANCH  14  15
ENDBRANCH  13  14
ENDBRANCH   4  13
BRANCH   6  26
HETATM   26  N   UNL     1      -8.126   6.718  72.067  1.00  0.00    -0.101 N  
HETATM   27  O   UNL     1      -8.176   8.593  73.360  1.00  0.00    -0.408 OA 
HETATM   28  C   UNL     1      -8.806   7.781  72.686  1.00  0.00    -0.159 C  
HETATM   29  H   UNL     1      -7.133   6.698  72.299  1.00  0.00     0.000 HD 
BRANCH  28  30
HETATM   30  C   UNL     1     -10.308   7.866  72.722  1.00  0.00    -0.333 C  
BRANCH  30  31
HETATM   31  C   UNL     1     -11.102   8.894  72.038  1.00  0.00    -0.351 A  
HETATM   32  H2  UNL     1     -12.269  11.383  68.758  1.00  0.00     0.000 HD 
HETATM   33  C   UNL     1     -12.477   8.971  72.193  1.00  0.00    -0.380 A  
HETATM   34  H1  UNL     1     -10.523  11.139  68.819  1.00  0.00     0.000 HD 
HETATM   35  N   UNL     1     -10.618   9.628  70.942  1.00  0.00    -0.320 NA 
HETATM   36  N   UNL     1     -11.450  10.976  69.211  1.00  0.00    -0.272 NA 
HETATM   37  S   UNL     1     -13.167   9.955  70.976  1.00  0.00    -0.219 SA 
HETATM   38  C   UNL     1     -11.604  10.230  70.316  1.00  0.00    -0.316 A  
ENDBRANCH  30  31
BRANCH  30  39
HETATM   39  N   UNL     1     -11.037   7.180  73.539  1.00  0.00    -0.547 NA 
HETATM   40  H   UNL     1     -11.880   7.604  73.926  1.00  0.00     0.000 HD 
BRANCH  39  41
HETATM   41  O   UNL     1     -10.707   5.876  73.908  1.00  0.00    -0.256 OA 
HETATM   42  C   UNL     1     -11.399   4.750  73.403  1.00  0.00    -0.312 C  
ENDBRANCH  39  41
ENDBRANCH  30  39
ENDBRANCH  28  30
ENDBRANCH   6  26
TORSDOF 8
ENDMDL
MODEL       70
REMARK 921   NORMALIZED FREE ENERGY PREDICTED BY IDOCK:   -6.62 KCAL/MOL
REMARK 922        TOTAL FREE ENERGY PREDICTED BY IDOCK:  -10.98 KCAL/MOL
REMARK 923 INTER-LIGAND FREE ENERGY PREDICTED BY IDOCK:   -9.02 KCAL/MOL
REMARK 924 INTRA-LIGAND FREE ENERGY PREDICTED BY IDOCK:   -1.96 KCAL/MOL
REMARK 927      BINDING AFFINITY PREDICTED BY RF-SCORE:    0.00 PKD
ROOT
HETATM    1  C   UNL     1      -9.171   8.754  71.493  1.00  0.00    -0.262 C  
HETATM    2  S   UNL     1      -8.396   9.316  70.001  1.00  0.00    -0.189 SA 
HETATM    3  C   UNL     1      -9.700  10.292  69.163  1.00  0.00    -0.217 C  
HETATM    4  C   UNL     1     -11.021  10.499  69.847  1.00  0.00    -0.359 C  
HETATM    5  CA  UNL     1     -11.347   9.970  71.066  1.00  0.00    -0.357 C  
HETATM    6  CA  UNL     1      -9.479   7.302  72.058  1.00  0.00    -0.132 C  
HETATM    7  C   UNL     1     -10.768   8.023  72.561  1.00  0.00    -0.341 C  
HETATM    8  N   UNL     1     -10.551   9.067  71.718  1.00  0.00    -0.354 N  
HETATM    9  C   UNL     1     -12.641  10.384  71.717  1.00  0.00    -0.367 C  
HETATM   10  O   UNL     1     -11.726   7.658  73.199  1.00  0.00    -0.176 OA 
HETATM   11  O   UNL     1     -13.334   9.446  72.391  1.00  0.00    -0.452 OA 
HETATM   12  OXT UNL     1     -13.055  11.532  71.666  1.00  0.00    -0.452 OA 
ENDROOT
BRANCH   4  13
HETATM   13  C   UNL     1     -12.077  11.313  69.039  1.00  0.00    -0.257 C  
BRANCH  13  14
HETATM   14  S   UNL     1     -11.646  12.953  68.331  1.00  0.00    -0.355 SA 
BRANCH  14  15
HETATM   15  C   UNL     1     -11.849  14.142  69.640  1.00  0.00    -0.324 C  
HETATM   16  N   UNL     1     -12.985  14.093  70.244  1.00  0.00    -0.359 N  
HETATM   17  H   UNL     1     -13.658  13.350  70.058  1.00  0.00     0.000 HD 
HETATM   18  C   UNL     1      -9.646  15.303  69.091  1.00  0.00    -0.243 C  
HETATM   19  C   UNL     1     -13.248  15.096  71.155  1.00  0.00    -0.469 C  
HETATM   20  N   UNL     1     -10.855  15.098  69.868  1.00  0.00    -0.267 NA 
HETATM   21  C   UNL     1     -12.125  15.945  71.747  1.00  0.00    -0.492 C  
HETATM   22  O   UNL     1     -14.387  15.446  71.464  1.00  0.00    -0.508 OA 
HETATM   23  H   UNL     1     -10.390  16.818  71.014  1.00  0.00     0.000 HD 
HETATM   24  N   UNL     1     -11.051  16.050  70.900  1.00  0.00    -0.312 N  
HETATM   25  O   UNL     1     -12.193  16.511  72.826  1.00  0.00    -0.464 OA 
ENDBRANCH  14  15
ENDBRANCH  13  14
ENDBRANCH   4  13
BRANCH   6  26
HETATM   26  N   UNL     1      -9.804   5.941  71.428  1.00  0.00    -0.166 N  
HETATM   27  O   UNL     1      -9.832   4.153  70.017  1.00  0.00    -0.217 OA 
HETATM   28  C   UNL     1      -9.316   5.227  70.321  1.00  0.00    -0.158 C  
HETATM   29  H   UNL     1     -10.541   5.442  71.925  1.00  0.00     0.000 HD 
BRANCH  28  30
HETATM   30  C   UNL     1      -8.056   5.620  69.598  1.00  0.00    -0.102 C  
BRANCH  30  31
HETATM   31  C   UNL     1      -7.934   5.739  68.139  1.00  0.00    -0.104 A  
HETATM   32  H2  UNL     1      -7.311   4.331  64.147  1.00  0.00     0.000 HD 
HETATM   33  C   UNL     1      -8.797   6.534  67.402  1.00  0.00    -0.115 A  
HETATM   34  H1  UNL     1      -6.290   3.491  65.315  1.00  0.00     0.000 HD 
HETATM   35  N   UNL     1      -7.201   4.830  67.358  1.00  0.00    -0.072 NA 
HETATM   36  N   UNL     1      -6.995   4.198  65.108  1.00  0.00    -0.057 NA 
HETATM   37  S   UNL     1      -8.698   6.150  65.739  1.00  0.00    -0.118 SA 
HETATM   38  C   UNL     1      -7.510   4.957  66.088  1.00  0.00    -0.086 A  
ENDBRANCH  30  31
BRANCH  30  39
HETATM   39  N   UNL     1      -6.899   5.675  70.169  1.00  0.00    -0.051 NA 
HETATM   40  H   UNL     1      -6.106   6.046  69.646  1.00  0.00     0.000 HD 
BRANCH  39  41
HETATM   41  O   UNL     1      -6.701   5.244  71.481  1.00  0.00    -0.047 OA 
HETATM   42  C   UNL     1      -6.293   3.924  71.788  1.00  0.00    -0.015 C  
ENDBRANCH  39  41
ENDBRANCH  30  39
ENDBRANCH  28  30
ENDBRANCH   6  26
TORSDOF 8
ENDMDL
MODEL       71
REMARK 921   NORMALIZED FREE ENERGY PREDICTED BY IDOCK:   -6.61 KCAL/MOL
REMARK 922        TOTAL FREE ENERGY PREDICTED BY IDOCK:  -10.97 KCAL/MOL
REMARK 923 INTER-LIGAND FREE ENERGY PREDICTED BY IDOCK:   -9.25 KCAL/MOL
REMARK 924 INTRA-LIGAND FREE ENERGY PREDICTED BY IDOCK:   -1.71 KCAL/MOL
REMARK 927      BINDING AFFINITY PREDICTED BY RF-SCORE:    0.00 PKD
ROOT
HETATM    1  C   UNL     1      -7.970  11.577  68.187  1.00  0.00    -0.136 C  
HETATM    2  S   UNL     1      -6.760  11.156  69.412  1.00  0.00    -0.129 SA 
HETATM    3  C   UNL     1      -6.534   9.349  69.212  1.00  0.00    -0.044 C  
HETATM    4  C   UNL     1      -7.263   8.632  68.112  1.00  0.00    -0.087 C  
HETATM    5  CA  UNL     1      -8.135   9.234  67.247  1.00  0.00    -0.113 C  
HETATM    6  CA  UNL     1      -9.425  12.208  68.291  1.00  0.00    -0.204 C  
HETATM    7  C   UNL     1      -9.687  11.218  67.113  1.00  0.00    -0.181 C  
HETATM    8  N   UNL     1      -8.548  10.531  67.395  1.00  0.00    -0.122 N  
HETATM    9  C   UNL     1      -8.676   8.440  66.087  1.00  0.00    -0.151 C  
HETATM   10  O   UNL     1     -10.657  10.973  66.437  1.00  0.00    -0.257 OA 
HETATM   11  O   UNL     1      -9.962   8.637  65.736  1.00  0.00    -0.072 OA 
HETATM   12  OXT UNL     1      -7.984   7.653  65.459  1.00  0.00    -0.105 OA 
ENDROOT
BRANCH   4  13
HETATM   13  C   UNL     1      -7.033   7.092  68.045  1.00  0.00    -0.083 C  
BRANCH  13  14
HETATM   14  S   UNL     1      -7.880   5.971  69.229  1.00  0.00    -0.104 SA 
BRANCH  14  15
HETATM   15  C   UNL     1      -9.113   6.948  70.061  1.00  0.00    -0.145 C  
HETATM   16  N   UNL     1      -8.757   7.405  71.211  1.00  0.00    -0.126 N  
HETATM   17  H   UNL     1      -7.801   7.308  71.552  1.00  0.00     0.000 HD 
HETATM   18  C   UNL     1     -10.885   6.427  68.303  1.00  0.00    -0.309 C  
HETATM   19  C   UNL     1      -9.732   8.031  71.960  1.00  0.00    -0.203 C  
HETATM   20  N   UNL     1     -10.388   7.076  69.502  1.00  0.00    -0.205 NA 
HETATM   21  C   UNL     1     -11.015   8.552  71.316  1.00  0.00    -0.256 C  
HETATM   22  O   UNL     1      -9.691   8.114  73.188  1.00  0.00    -0.277 OA 
HETATM   23  H   UNL     1     -12.324   7.859  69.860  1.00  0.00     0.000 HD 
HETATM   24  N   UNL     1     -11.361   7.840  70.196  1.00  0.00    -0.176 N  
HETATM   25  O   UNL     1     -11.689   9.461  71.773  1.00  0.00    -0.371 OA 
ENDBRANCH  14  15
ENDBRANCH  13  14
ENDBRANCH   4  13
BRANCH   6  26
HETATM   26  N   UNL     1     -10.554  12.160  69.329  1.00  0.00    -0.439 N  
HETATM   27  O   UNL     1     -12.346  12.727  70.616  1.00  0.00    -0.360 OA 
HETATM   28  C   UNL     1     -11.618  13.013  69.667  1.00  0.00    -0.253 C  
HETATM   29  H   UNL     1     -10.527  11.318  69.904  1.00  0.00     0.000 HD 
BRANCH  28  30
HETATM   30  C   UNL     1     -12.032  14.170  68.798  1.00  0.00    -0.332 C  
BRANCH  30  31
HETATM   31  C   UNL     1     -11.655  14.331  67.388  1.00  0.00    -0.369 A  
HETATM   32  H2  UNL     1     -12.339  14.633  63.175  1.00  0.00     0.000 HD 
HETATM   33  C   UNL     1     -10.701  15.256  66.995  1.00  0.00    -0.313 A  
HETATM   34  H1  UNL     1     -13.422  13.472  63.943  1.00  0.00     0.000 HD 
HETATM   35  N   UNL     1     -12.438  13.845  66.329  1.00  0.00    -0.443 NA 
HETATM   36  N   UNL     1     -12.658  14.143  64.012  1.00  0.00    -0.728 NA 
HETATM   37  S   UNL     1     -10.780  15.522  65.307  1.00  0.00    -0.437 SA 
HETATM   38  C   UNL     1     -12.068  14.389  65.192  1.00  0.00    -0.395 A  
ENDBRANCH  30  31
BRANCH  30  39
HETATM   39  N   UNL     1     -12.573  15.247  69.263  1.00  0.00    -0.543 NA 
HETATM   40  H   UNL     1     -13.472  15.550  68.890  1.00  0.00     0.000 HD 
BRANCH  39  41
HETATM   41  O   UNL     1     -11.964  16.008  70.261  1.00  0.00    -0.328 OA 
HETATM   42  C   UNL     1     -12.388  15.963  71.610  1.00  0.00    -0.459 C  
ENDBRANCH  39  41
ENDBRANCH  30  39
ENDBRANCH  28  30
ENDBRANCH   6  26
TORSDOF 8
ENDMDL
MODEL       72
REMARK 921   NORMALIZED FREE ENERGY PREDICTED BY IDOCK:   -6.61 KCAL/MOL
REMARK 922        TOTAL FREE ENERGY PREDICTED BY IDOCK:  -10.96 KCAL/MOL
REMARK 923 INTER-LIGAND FREE ENERGY PREDICTED BY IDOCK:   -9.66 KCAL/MOL
REMARK 924 INTRA-LIGAND FREE ENERGY PREDICTED BY IDOCK:   -1.30 KCAL/MOL
REMARK 927      BINDING AFFINITY PREDICTED BY RF-SCORE:    0.00 PKD
ROOT
HETATM    1  C   UNL     1     -11.200  10.381  68.462  1.00  0.00    -0.251 C  
HETATM    2  S   UNL     1     -10.243   8.897  68.314  1.00  0.00    -0.205 SA 
HETATM    3  C   UNL     1     -10.485   8.049  69.919  1.00  0.00    -0.233 C  
HETATM    4  C   UNL     1     -11.416   8.646  70.935  1.00  0.00    -0.315 C  
HETATM    5  CA  UNL     1     -12.088   9.825  70.764  1.00  0.00    -0.279 C  
HETATM    6  CA  UNL     1     -10.805  11.919  68.406  1.00  0.00    -0.228 C  
HETATM    7  C   UNL     1     -11.907  12.004  69.508  1.00  0.00    -0.326 C  
HETATM    8  N   UNL     1     -11.859  10.660  69.704  1.00  0.00    -0.290 N  
HETATM    9  C   UNL     1     -13.116  10.233  71.787  1.00  0.00    -0.465 C  
HETATM   10  O   UNL     1     -12.375  12.918  70.143  1.00  0.00    -0.270 OA 
HETATM   11  O   UNL     1     -13.202  11.539  72.105  1.00  0.00    -0.505 OA 
HETATM   12  OXT UNL     1     -13.870   9.426  72.308  1.00  0.00    -0.443 OA 
ENDROOT
BRANCH   4  13
HETATM   13  C   UNL     1     -11.528   7.869  72.282  1.00  0.00    -0.348 C  
BRANCH  13  14
HETATM   14  S   UNL     1     -11.389   6.038  72.316  1.00  0.00    -0.306 SA 
BRANCH  14  15
HETATM   15  C   UNL     1      -9.684   5.663  72.664  1.00  0.00    -0.153 C  
HETATM   16  N   UNL     1      -8.835   6.228  71.878  1.00  0.00    -0.139 N  
HETATM   17  H   UNL     1      -9.122   6.926  71.192  1.00  0.00     0.000 HD 
HETATM   18  C   UNL     1     -10.299   3.937  74.438  1.00  0.00    -0.216 C  
HETATM   19  C   UNL     1      -7.516   5.843  72.008  1.00  0.00    -0.096 C  
HETATM   20  N   UNL     1      -9.368   4.732  73.657  1.00  0.00    -0.125 NA 
HETATM   21  C   UNL     1      -7.014   5.144  73.270  1.00  0.00    -0.076 C  
HETATM   22  O   UNL     1      -6.694   5.929  71.095  1.00  0.00    -0.054 OA 
HETATM   23  H   UNL     1      -7.755   3.682  74.543  1.00  0.00     0.000 HD 
HETATM   24  N   UNL     1      -8.003   4.432  73.898  1.00  0.00    -0.092 N  
HETATM   25  O   UNL     1      -5.854   5.170  73.649  1.00  0.00    -0.025 OA 
ENDBRANCH  14  15
ENDBRANCH  13  14
ENDBRANCH   4  13
BRANCH   6  26
HETATM   26  N   UNL     1      -9.562  12.733  68.788  1.00  0.00    -0.412 N  
HETATM   27  O   UNL     1      -8.089  14.450  69.060  1.00  0.00    -0.128 OA 
HETATM   28  C   UNL     1      -9.218  14.094  68.727  1.00  0.00    -0.080 C  
HETATM   29  H   UNL     1      -8.815  12.156  69.174  1.00  0.00     0.000 HD 
BRANCH  28  30
HETATM   30  C   UNL     1     -10.233  15.172  68.456  1.00  0.00    -0.231 C  
BRANCH  30  31
HETATM   31  C   UNL     1     -10.235  16.036  67.269  1.00  0.00    -0.277 A  
HETATM   32  H2  UNL     1     -11.588  17.425  63.454  1.00  0.00     0.000 HD 
HETATM   33  C   UNL     1     -10.065  17.408  67.371  1.00  0.00    -0.321 A  
HETATM   34  H1  UNL     1     -11.669  15.668  63.589  1.00  0.00     0.000 HD 
HETATM   35  N   UNL     1     -10.740  15.623  66.025  1.00  0.00    -0.324 NA 
HETATM   36  N   UNL     1     -11.435  16.574  63.996  1.00  0.00    -1.122 NA 
HETATM   37  S   UNL     1     -10.534  18.183  65.921  1.00  0.00    -0.136 SA 
HETATM   38  C   UNL     1     -10.928  16.656  65.235  1.00  0.00    -0.120 A  
ENDBRANCH  30  31
BRANCH  30  39
HETATM   39  N   UNL     1     -11.072  15.594  69.343  1.00  0.00    -0.279 NA 
HETATM   40  H   UNL     1     -12.029  15.803  69.058  1.00  0.00     0.000 HD 
BRANCH  39  41
HETATM   41  O   UNL     1     -10.709  15.772  70.678  1.00  0.00    -0.303 OA 
HETATM   42  C   UNL     1     -11.668  15.873  71.713  1.00  0.00    -0.491 C  
ENDBRANCH  39  41
ENDBRANCH  30  39
ENDBRANCH  28  30
ENDBRANCH   6  26
TORSDOF 8
ENDMDL
MODEL       73
REMARK 921   NORMALIZED FREE ENERGY PREDICTED BY IDOCK:   -6.60 KCAL/MOL
REMARK 922        TOTAL FREE ENERGY PREDICTED BY IDOCK:  -10.95 KCAL/MOL
REMARK 923 INTER-LIGAND FREE ENERGY PREDICTED BY IDOCK:   -9.60 KCAL/MOL
REMARK 924 INTRA-LIGAND FREE ENERGY PREDICTED BY IDOCK:   -1.36 KCAL/MOL
REMARK 927      BINDING AFFINITY PREDICTED BY RF-SCORE:    0.00 PKD
ROOT
HETATM    1  C   UNL     1     -11.475  10.646  68.180  1.00  0.00    -0.228 C  
HETATM    2  S   UNL     1     -11.843  12.282  68.751  1.00  0.00    -0.264 SA 
HETATM    3  C   UNL     1     -11.387  13.359  67.342  1.00  0.00    -0.309 C  
HETATM    4  C   UNL     1     -10.918  12.735  66.058  1.00  0.00    -0.306 C  
HETATM    5  CA  UNL     1     -10.765  11.389  65.869  1.00  0.00    -0.255 C  
HETATM    6  CA  UNL     1     -10.476   9.527  68.706  1.00  0.00    -0.219 C  
HETATM    7  C   UNL     1     -10.316   9.277  67.173  1.00  0.00    -0.260 C  
HETATM    8  N   UNL     1     -10.881  10.480  66.886  1.00  0.00    -0.226 N  
HETATM    9  C   UNL     1     -10.444  10.879  64.488  1.00  0.00    -0.323 C  
HETATM   10  O   UNL     1      -9.672   8.488  66.525  1.00  0.00    -0.219 OA 
HETATM   11  O   UNL     1      -9.588   9.844  64.384  1.00  0.00    -0.294 OA 
HETATM   12  OXT UNL     1     -10.948  11.360  63.485  1.00  0.00    -0.398 OA 
ENDROOT
BRANCH   4  13
HETATM   13  C   UNL     1     -10.521  13.734  64.930  1.00  0.00    -0.418 C  
BRANCH  13  14
HETATM   14  S   UNL     1     -10.949  15.515  65.070  1.00  0.00    -0.415 SA 
BRANCH  14  15
HETATM   15  C   UNL     1      -9.534  16.324  65.786  1.00  0.00    -0.194 C  
HETATM   16  N   UNL     1      -8.598  15.531  66.178  1.00  0.00    -0.401 N  
HETATM   17  H   UNL     1      -8.626  14.531  65.979  1.00  0.00     0.000 HD 
HETATM   18  C   UNL     1     -10.658  18.612  65.721  1.00  0.00    -0.249 C  
HETATM   19  C   UNL     1      -7.556  16.100  66.881  1.00  0.00    -0.240 C  
HETATM   20  N   UNL     1      -9.551  17.708  65.978  1.00  0.00    -0.526 NA 
HETATM   21  C   UNL     1      -7.284  17.602  66.821  1.00  0.00    -0.212 C  
HETATM   22  O   UNL     1      -6.856  15.473  67.677  1.00  0.00    -0.149 OA 
HETATM   23  H   UNL     1      -8.456  19.316  66.818  1.00  0.00     0.000 HD 
HETATM   24  N   UNL     1      -8.422  18.326  66.573  1.00  0.00    -0.269 N  
HETATM   25  O   UNL     1      -6.192  18.107  67.025  1.00  0.00    -0.159 OA 
ENDBRANCH  14  15
ENDBRANCH  13  14
ENDBRANCH   4  13
BRANCH   6  26
HETATM   26  N   UNL     1      -9.117   9.538  69.419  1.00  0.00    -0.157 N  
HETATM   27  O   UNL     1      -7.499   9.349  71.012  1.00  0.00    -0.252 OA 
HETATM   28  C   UNL     1      -8.673   9.158  70.697  1.00  0.00    -0.229 C  
HETATM   29  H   UNL     1      -8.366   9.903  68.833  1.00  0.00     0.000 HD 
BRANCH  28  30
HETATM   30  C   UNL     1      -9.521   8.348  71.639  1.00  0.00    -0.214 C  
BRANCH  30  31
HETATM   31  C   UNL     1     -10.955   8.568  71.870  1.00  0.00    -0.324 A  
HETATM   32  H2  UNL     1     -14.702  10.599  71.491  1.00  0.00     0.000 HD 
HETATM   33  C   UNL     1     -11.862   7.522  71.843  1.00  0.00    -0.296 A  
HETATM   34  H1  UNL     1     -13.343  11.721  71.580  1.00  0.00     0.000 HD 
HETATM   35  N   UNL     1     -11.555   9.836  71.787  1.00  0.00    -0.273 NA 
HETATM   36  N   UNL     1     -13.699  10.766  71.583  1.00  0.00     0.055 NA 
HETATM   37  S   UNL     1     -13.461   8.114  71.714  1.00  0.00    -0.329 SA 
HETATM   38  C   UNL     1     -12.862   9.725  71.708  1.00  0.00    -0.434 A  
ENDBRANCH  30  31
BRANCH  30  39
HETATM   39  N   UNL     1      -9.030   7.524  72.504  1.00  0.00    -0.128 NA 
HETATM   40  H   UNL     1      -8.672   6.625  72.183  1.00  0.00     0.000 HD 
BRANCH  39  41
HETATM   41  O   UNL     1      -8.974   7.827  73.865  1.00  0.00    -0.253 OA 
HETATM   42  C   UNL     1      -7.750   8.029  74.543  1.00  0.00    -0.227 C  
ENDBRANCH  39  41
ENDBRANCH  30  39
ENDBRANCH  28  30
ENDBRANCH   6  26
TORSDOF 8
ENDMDL
MODEL       74
REMARK 921   NORMALIZED FREE ENERGY PREDICTED BY IDOCK:   -6.60 KCAL/MOL
REMARK 922        TOTAL FREE ENERGY PREDICTED BY IDOCK:  -10.94 KCAL/MOL
REMARK 923 INTER-LIGAND FREE ENERGY PREDICTED BY IDOCK:   -8.76 KCAL/MOL
REMARK 924 INTRA-LIGAND FREE ENERGY PREDICTED BY IDOCK:   -2.18 KCAL/MOL
REMARK 927      BINDING AFFINITY PREDICTED BY RF-SCORE:    0.00 PKD
ROOT
HETATM    1  C   UNL     1      -7.817   7.206  67.769  1.00  0.00    -0.114 C  
HETATM    2  S   UNL     1      -9.402   7.092  66.986  1.00  0.00    -0.152 SA 
HETATM    3  C   UNL     1      -9.501   8.604  65.957  1.00  0.00    -0.208 C  
HETATM    4  C   UNL     1      -8.320   9.530  65.893  1.00  0.00    -0.124 C  
HETATM    5  CA  UNL     1      -7.159   9.345  66.591  1.00  0.00    -0.085 C  
HETATM    6  CA  UNL     1      -7.380   7.287  69.295  1.00  0.00    -0.087 C  
HETATM    7  C   UNL     1      -6.306   8.248  68.696  1.00  0.00    -0.053 C  
HETATM    8  N   UNL     1      -7.014   8.371  67.542  1.00  0.00    -0.074 N  
HETATM    9  C   UNL     1      -5.990  10.256  66.316  1.00  0.00    -0.072 C  
HETATM   10  O   UNL     1      -5.392   8.873  69.178  1.00  0.00    -0.035 OA 
HETATM   11  O   UNL     1      -5.230  10.635  67.362  1.00  0.00    -0.039 OA 
HETATM   12  OXT UNL     1      -5.712  10.633  65.189  1.00  0.00    -0.139 OA 
ENDROOT
BRANCH   4  13
HETATM   13  C   UNL     1      -8.514  10.807  65.019  1.00  0.00    -0.079 C  
BRANCH  13  14
HETATM   14  S   UNL     1      -9.942  10.943  63.871  1.00  0.00    -0.366 SA 
BRANCH  14  15
HETATM   15  C   UNL     1     -10.587  12.592  64.056  1.00  0.00    -0.421 C  
HETATM   16  N   UNL     1      -9.787  13.426  64.622  1.00  0.00    -0.611 N  
HETATM   17  H   UNL     1      -8.820  13.180  64.834  1.00  0.00     0.000 HD 
HETATM   18  C   UNL     1     -12.899  11.909  63.225  1.00  0.00    -0.161 C  
HETATM   19  C   UNL     1     -10.300  14.669  64.929  1.00  0.00    -0.350 C  
HETATM   20  N   UNL     1     -11.910  12.862  63.693  1.00  0.00    -0.501 NA 
HETATM   21  C   UNL     1     -11.570  15.191  64.258  1.00  0.00    -0.184 C  
HETATM   22  O   UNL     1      -9.850  15.384  65.825  1.00  0.00    -0.323 OA 
HETATM   23  H   UNL     1     -13.397  14.370  63.713  1.00  0.00     0.000 HD 
HETATM   24  N   UNL     1     -12.408  14.177  63.872  1.00  0.00    -0.334 N  
HETATM   25  O   UNL     1     -11.836  16.375  64.128  1.00  0.00    -0.901 OA 
ENDBRANCH  14  15
ENDBRANCH  13  14
ENDBRANCH   4  13
BRANCH   6  26
HETATM   26  N   UNL     1      -8.006   7.866  70.571  1.00  0.00    -0.095 N  
HETATM   27  O   UNL     1      -9.346   9.033  71.996  1.00  0.00    -0.358 OA 
HETATM   28  C   UNL     1      -9.127   8.668  70.842  1.00  0.00    -0.187 C  
HETATM   29  H   UNL     1      -7.491   7.611  71.414  1.00  0.00     0.000 HD 
BRANCH  28  30
HETATM   30  C   UNL     1     -10.189   8.945  69.813  1.00  0.00    -0.202 C  
BRANCH  30  31
HETATM   31  C   UNL     1     -10.207  10.115  68.927  1.00  0.00    -0.199 A  
HETATM   32  H2  UNL     1     -11.979  13.404  66.839  1.00  0.00     0.000 HD 
HETATM   33  C   UNL     1      -9.207  11.073  68.971  1.00  0.00    -0.064 A  
HETATM   34  H1  UNL     1     -13.050  12.004  66.907  1.00  0.00     0.000 HD 
HETATM   35  N   UNL     1     -11.359  10.536  68.241  1.00  0.00    -0.292 NA 
HETATM   36  N   UNL     1     -12.155  12.441  67.127  1.00  0.00    -0.512 NA 
HETATM   37  S   UNL     1      -9.699  12.497  68.162  1.00  0.00    -0.220 SA 
HETATM   38  C   UNL     1     -11.208  11.761  67.791  1.00  0.00    -0.266 A  
ENDBRANCH  30  31
BRANCH  30  39
HETATM   39  N   UNL     1     -11.307   8.300  69.758  1.00  0.00    -0.449 NA 
HETATM   40  H   UNL     1     -11.479   7.673  68.973  1.00  0.00     0.000 HD 
BRANCH  39  41
HETATM   41  O   UNL     1     -12.288   8.437  70.741  1.00  0.00    -0.123 OA 
HETATM   42  C   UNL     1     -12.875   7.320  71.381  1.00  0.00    -0.382 C  
ENDBRANCH  39  41
ENDBRANCH  30  39
ENDBRANCH  28  30
ENDBRANCH   6  26
TORSDOF 8
ENDMDL
MODEL       75
REMARK 921   NORMALIZED FREE ENERGY PREDICTED BY IDOCK:   -6.58 KCAL/MOL
REMARK 922        TOTAL FREE ENERGY PREDICTED BY IDOCK:  -10.92 KCAL/MOL
REMARK 923 INTER-LIGAND FREE ENERGY PREDICTED BY IDOCK:   -8.47 KCAL/MOL
REMARK 924 INTRA-LIGAND FREE ENERGY PREDICTED BY IDOCK:   -2.45 KCAL/MOL
REMARK 927      BINDING AFFINITY PREDICTED BY RF-SCORE:    0.00 PKD
ROOT
HETATM    1  C   UNL     1     -11.758   8.413  71.225  1.00  0.00    -0.285 C  
HETATM    2  S   UNL     1     -12.750   6.994  71.603  1.00  0.00    -0.340 SA 
HETATM    3  C   UNL     1     -11.685   5.987  72.702  1.00  0.00    -0.175 C  
HETATM    4  C   UNL     1     -10.343   6.519  73.118  1.00  0.00    -0.252 C  
HETATM    5  CA  UNL     1      -9.825   7.714  72.698  1.00  0.00    -0.206 C  
HETATM    6  CA  UNL     1     -11.197   8.993  69.856  1.00  0.00    -0.079 C  
HETATM    7  C   UNL     1      -9.975   9.329  70.767  1.00  0.00    -0.290 C  
HETATM    8  N   UNL     1     -10.419   8.479  71.730  1.00  0.00    -0.272 N  
HETATM    9  C   UNL     1      -8.543   8.208  73.314  1.00  0.00    -0.242 C  
HETATM   10  O   UNL     1      -8.917   9.874  70.567  1.00  0.00    -0.103 OA 
HETATM   11  O   UNL     1      -7.662   8.837  72.511  1.00  0.00    -0.355 OA 
HETATM   12  OXT UNL     1      -8.298   8.073  74.503  1.00  0.00    -0.225 OA 
ENDROOT
BRANCH   4  13
HETATM   13  C   UNL     1      -9.497   5.575  74.025  1.00  0.00    -0.137 C  
BRANCH  13  14
HETATM   14  S   UNL     1      -8.140   4.564  73.309  1.00  0.00    -0.096 SA 
BRANCH  14  15
HETATM   15  C   UNL     1      -8.469   4.434  71.564  1.00  0.00    -0.104 C  
HETATM   16  N   UNL     1      -8.018   5.409  70.855  1.00  0.00    -0.101 N  
HETATM   17  H   UNL     1      -7.418   6.130  71.255  1.00  0.00     0.000 HD 
HETATM   18  C   UNL     1      -9.939   2.373  71.873  1.00  0.00    -0.150 C  
HETATM   19  C   UNL     1      -8.386   5.431  69.525  1.00  0.00    -0.100 C  
HETATM   20  N   UNL     1      -9.259   3.385  71.085  1.00  0.00    -0.111 NA 
HETATM   21  C   UNL     1      -8.910   4.179  68.825  1.00  0.00    -0.103 C  
HETATM   22  O   UNL     1      -8.426   6.462  68.852  1.00  0.00    -0.120 OA 
HETATM   23  H   UNL     1     -10.185   2.624  69.339  1.00  0.00     0.000 HD 
HETATM   24  N   UNL     1      -9.528   3.317  69.694  1.00  0.00    -0.163 N  
HETATM   25  O   UNL     1      -8.836   3.988  67.622  1.00  0.00    -0.104 OA 
ENDBRANCH  14  15
ENDBRANCH  13  14
ENDBRANCH   4  13
BRANCH   6  26
HETATM   26  N   UNL     1     -10.752   8.380  68.521  1.00  0.00    -0.415 N  
HETATM   27  O   UNL     1     -10.179   8.129  66.331  1.00  0.00    -0.239 OA 
HETATM   28  C   UNL     1     -10.458   8.898  67.249  1.00  0.00    -0.277 C  
HETATM   29  H   UNL     1     -10.645   7.367  68.568  1.00  0.00     0.000 HD 
BRANCH  28  30
HETATM   30  C   UNL     1     -10.277  10.371  66.999  1.00  0.00    -0.225 C  
BRANCH  30  31
HETATM   31  C   UNL     1     -10.983  11.134  65.962  1.00  0.00    -0.123 A  
HETATM   32  H2  UNL     1     -13.160  14.450  64.358  1.00  0.00     0.000 HD 
HETATM   33  C   UNL     1     -10.503  11.210  64.665  1.00  0.00    -0.335 A  
HETATM   34  H1  UNL     1     -13.608  14.107  66.029  1.00  0.00     0.000 HD 
HETATM   35  N   UNL     1     -11.960  12.099  66.257  1.00  0.00    -0.613 NA 
HETATM   36  N   UNL     1     -13.057  13.885  65.201  1.00  0.00    -0.764 NA 
HETATM   37  S   UNL     1     -11.266  12.481  63.812  1.00  0.00    -0.494 SA 
HETATM   38  C   UNL     1     -12.196  12.855  65.209  1.00  0.00    -0.476 A  
ENDBRANCH  30  31
BRANCH  30  39
HETATM   39  N   UNL     1      -9.322  11.066  67.522  1.00  0.00    -0.158 NA 
HETATM   40  H   UNL     1      -9.536  11.980  67.921  1.00  0.00     0.000 HD 
BRANCH  39  41
HETATM   41  O   UNL     1      -8.005  10.605  67.556  1.00  0.00    -0.109 OA 
HETATM   42  C   UNL     1      -7.146  10.691  66.435  1.00  0.00    -0.134 C  
ENDBRANCH  39  41
ENDBRANCH  30  39
ENDBRANCH  28  30
ENDBRANCH   6  26
TORSDOF 8
ENDMDL
MODEL       76
REMARK 921   NORMALIZED FREE ENERGY PREDICTED BY IDOCK:   -6.58 KCAL/MOL
REMARK 922        TOTAL FREE ENERGY PREDICTED BY IDOCK:  -10.91 KCAL/MOL
REMARK 923 INTER-LIGAND FREE ENERGY PREDICTED BY IDOCK:   -9.61 KCAL/MOL
REMARK 924 INTRA-LIGAND FREE ENERGY PREDICTED BY IDOCK:   -1.31 KCAL/MOL
REMARK 927      BINDING AFFINITY PREDICTED BY RF-SCORE:    0.00 PKD
ROOT
HETATM    1  C   UNL     1     -11.057  10.641  69.452  1.00  0.00    -0.260 C  
HETATM    2  S   UNL     1      -9.339  10.475  69.053  1.00  0.00    -0.182 SA 
HETATM    3  C   UNL     1      -8.675   9.402  70.381  1.00  0.00    -0.240 C  
HETATM    4  C   UNL     1      -9.612   8.840  71.413  1.00  0.00    -0.337 C  
HETATM    5  CA  UNL     1     -10.953   9.104  71.458  1.00  0.00    -0.364 C  
HETATM    6  CA  UNL     1     -11.959  11.902  69.800  1.00  0.00    -0.307 C  
HETATM    7  C   UNL     1     -12.613  10.876  70.776  1.00  0.00    -0.377 C  
HETATM    8  N   UNL     1     -11.553  10.035  70.653  1.00  0.00    -0.314 N  
HETATM    9  C   UNL     1     -11.810   8.351  72.442  1.00  0.00    -0.384 C  
HETATM   10  O   UNL     1     -13.529  10.945  71.560  1.00  0.00    -0.243 OA 
HETATM   11  O   UNL     1     -12.808   9.023  73.049  1.00  0.00    -0.248 OA 
HETATM   12  OXT UNL     1     -11.637   7.166  72.681  1.00  0.00    -0.263 OA 
ENDROOT
BRANCH   4  13
HETATM   13  C   UNL     1      -8.947   7.968  72.520  1.00  0.00    -0.195 C  
BRANCH  13  14
HETATM   14  S   UNL     1      -7.682   6.709  72.082  1.00  0.00    -0.096 SA 
BRANCH  14  15
HETATM   15  C   UNL     1      -8.416   5.663  70.843  1.00  0.00    -0.125 C  
HETATM   16  N   UNL     1      -8.191   6.023  69.628  1.00  0.00    -0.113 N  
HETATM   17  H   UNL     1      -7.544   6.778  69.405  1.00  0.00     0.000 HD 
HETATM   18  C   UNL     1      -9.679   4.287  72.580  1.00  0.00    -0.143 C  
HETATM   19  C   UNL     1      -8.869   5.337  68.641  1.00  0.00    -0.096 C  
HETATM   20  N   UNL     1      -9.253   4.612  71.231  1.00  0.00    -0.133 NA 
HETATM   21  C   UNL     1      -9.492   3.968  68.910  1.00  0.00    -0.167 C  
HETATM   22  O   UNL     1      -9.113   5.814  67.532  1.00  0.00    -0.109 OA 
HETATM   23  H   UNL     1     -10.539   3.105  70.481  1.00  0.00     0.000 HD 
HETATM   24  N   UNL     1      -9.845   3.808  70.225  1.00  0.00    -0.145 N  
HETATM   25  O   UNL     1      -9.702   3.132  68.046  1.00  0.00    -0.138 OA 
ENDBRANCH  14  15
ENDBRANCH  13  14
ENDBRANCH   4  13
BRANCH   6  26
HETATM   26  N   UNL     1     -11.713  13.254  70.485  1.00  0.00    -0.534 N  
HETATM   27  O   UNL     1     -11.253  15.456  70.840  1.00  0.00    -0.319 OA 
HETATM   28  C   UNL     1     -11.486  14.563  70.028  1.00  0.00    -0.258 C  
HETATM   29  H   UNL     1     -11.714  13.186  71.502  1.00  0.00     0.000 HD 
BRANCH  28  30
HETATM   30  C   UNL     1     -11.706  14.967  68.595  1.00  0.00    -0.337 C  
BRANCH  30  31
HETATM   31  C   UNL     1     -11.488  14.090  67.438  1.00  0.00    -0.348 A  
HETATM   32  H2  UNL     1     -12.188  12.586  63.493  1.00  0.00     0.000 HD 
HETATM   33  C   UNL     1     -10.213  13.753  67.014  1.00  0.00    -0.254 A  
HETATM   34  H1  UNL     1     -13.683  13.071  64.295  1.00  0.00     0.000 HD 
HETATM   35  N   UNL     1     -12.487  13.817  66.489  1.00  0.00    -0.373 NA 
HETATM   36  N   UNL     1     -12.670  12.957  64.313  1.00  0.00    -0.693 NA 
HETATM   37  S   UNL     1     -10.255  13.098  65.435  1.00  0.00    -0.265 SA 
HETATM   38  C   UNL     1     -11.964  13.290  65.404  1.00  0.00    -0.395 A  
ENDBRANCH  30  31
BRANCH  30  39
HETATM   39  N   UNL     1     -11.894  16.190  68.225  1.00  0.00    -0.199 NA 
HETATM   40  H   UNL     1     -12.805  16.620  68.380  1.00  0.00     0.000 HD 
BRANCH  39  41
HETATM   41  O   UNL     1     -10.886  16.942  67.620  1.00  0.00    -0.325 OA 
HETATM   42  C   UNL     1      -9.802  17.479  68.352  1.00  0.00    -0.325 C  
ENDBRANCH  39  41
ENDBRANCH  30  39
ENDBRANCH  28  30
ENDBRANCH   6  26
TORSDOF 8
ENDMDL
MODEL       77
REMARK 921   NORMALIZED FREE ENERGY PREDICTED BY IDOCK:   -6.56 KCAL/MOL
REMARK 922        TOTAL FREE ENERGY PREDICTED BY IDOCK:  -10.89 KCAL/MOL
REMARK 923 INTER-LIGAND FREE ENERGY PREDICTED BY IDOCK:   -8.64 KCAL/MOL
REMARK 924 INTRA-LIGAND FREE ENERGY PREDICTED BY IDOCK:   -2.25 KCAL/MOL
REMARK 927      BINDING AFFINITY PREDICTED BY RF-SCORE:    0.00 PKD
ROOT
HETATM    1  C   UNL     1      -8.935  10.327  64.993  1.00  0.00    -0.196 C  
HETATM    2  S   UNL     1      -7.311   9.761  64.566  1.00  0.00    -0.140 SA 
HETATM    3  C   UNL     1      -7.051   8.302  65.643  1.00  0.00    -0.071 C  
HETATM    4  C   UNL     1      -8.165   7.838  66.538  1.00  0.00    -0.124 C  
HETATM    5  CA  UNL     1      -9.380   8.458  66.639  1.00  0.00    -0.191 C  
HETATM    6  CA  UNL     1      -9.467  11.698  65.595  1.00  0.00    -0.209 C  
HETATM    7  C   UNL     1     -10.437  10.729  66.339  1.00  0.00    -0.233 C  
HETATM    8  N   UNL     1      -9.648   9.662  66.044  1.00  0.00    -0.221 N  
HETATM    9  C   UNL     1     -10.468   7.802  67.447  1.00  0.00    -0.292 C  
HETATM   10  O   UNL     1     -11.341  10.899  67.121  1.00  0.00    -0.394 OA 
HETATM   11  O   UNL     1     -11.272   8.596  68.180  1.00  0.00     0.233 OA 
HETATM   12  OXT UNL     1     -10.647   6.594  67.436  1.00  0.00    -0.220 OA 
ENDROOT
BRANCH   4  13
HETATM   13  C   UNL     1      -7.835   6.611  67.441  1.00  0.00    -0.113 C  
BRANCH  13  14
HETATM   14  S   UNL     1      -7.162   6.854  69.133  1.00  0.00    -0.093 SA 
BRANCH  14  15
HETATM   15  C   UNL     1      -8.530   7.349  70.158  1.00  0.00    -0.137 C  
HETATM   16  N   UNL     1      -9.366   6.411  70.436  1.00  0.00    -0.161 N  
HETATM   17  H   UNL     1      -9.183   5.440  70.184  1.00  0.00     0.000 HD 
HETATM   18  C   UNL     1      -7.868   9.811  70.059  1.00  0.00    -0.178 C  
HETATM   19  C   UNL     1     -10.522   6.782  71.092  1.00  0.00    -0.214 C  
HETATM   20  N   UNL     1      -8.684   8.695  70.505  1.00  0.00    -0.149 NA 
HETATM   21  C   UNL     1     -10.620   8.113  71.837  1.00  0.00    -0.260 C  
HETATM   22  O   UNL     1     -11.569   6.138  71.033  1.00  0.00    -0.303 OA 
HETATM   23  H   UNL     1      -9.984  10.056  71.478  1.00  0.00     0.000 HD 
HETATM   24  N   UNL     1      -9.796   9.069  71.301  1.00  0.00    -0.288 N  
HETATM   25  O   UNL     1     -11.382   8.321  72.766  1.00  0.00    -0.381 OA 
ENDBRANCH  14  15
ENDBRANCH  13  14
ENDBRANCH   4  13
BRANCH   6  26
HETATM   26  N   UNL     1      -8.893  12.760  66.544  1.00  0.00    -0.418 N  
HETATM   27  O   UNL     1      -8.675  14.610  67.854  1.00  0.00    -0.158 OA 
HETATM   28  C   UNL     1      -9.417  13.897  67.180  1.00  0.00    -0.246 C  
HETATM   29  H   UNL     1      -7.909  12.604  66.762  1.00  0.00     0.000 HD 
BRANCH  28  30
HETATM   30  C   UNL     1     -10.893  14.183  67.237  1.00  0.00    -0.285 C  
BRANCH  30  31
HETATM   31  C   UNL     1     -11.650  14.422  68.473  1.00  0.00    -0.314 A  
HETATM   32  H2  UNL     1     -13.093  13.526  72.400  1.00  0.00     0.000 HD 
HETATM   33  C   UNL     1     -11.680  15.670  69.074  1.00  0.00    -0.395 A  
HETATM   34  H1  UNL     1     -12.983  12.086  71.388  1.00  0.00     0.000 HD 
HETATM   35  N   UNL     1     -12.092  13.384  69.310  1.00  0.00    -0.297 NA 
HETATM   36  N   UNL     1     -12.873  13.093  71.503  1.00  0.00    -0.347 NA 
HETATM   37  S   UNL     1     -12.257  15.553  70.680  1.00  0.00    -0.418 SA 
HETATM   38  C   UNL     1     -12.443  13.854  70.486  1.00  0.00    -0.352 A  
ENDBRANCH  30  31
BRANCH  30  39
HETATM   39  N   UNL     1     -11.685  14.026  66.229  1.00  0.00    -0.370 NA 
HETATM   40  H   UNL     1     -12.582  13.563  66.372  1.00  0.00     0.000 HD 
BRANCH  39  41
HETATM   41  O   UNL     1     -11.349  14.469  64.949  1.00  0.00    -0.357 OA 
HETATM   42  C   UNL     1     -11.277  15.844  64.622  1.00  0.00    -0.351 C  
ENDBRANCH  39  41
ENDBRANCH  30  39
ENDBRANCH  28  30
ENDBRANCH   6  26
TORSDOF 8
ENDMDL
MODEL       78
REMARK 921   NORMALIZED FREE ENERGY PREDICTED BY IDOCK:   -6.56 KCAL/MOL
REMARK 922        TOTAL FREE ENERGY PREDICTED BY IDOCK:  -10.89 KCAL/MOL
REMARK 923 INTER-LIGAND FREE ENERGY PREDICTED BY IDOCK:   -9.65 KCAL/MOL
REMARK 924 INTRA-LIGAND FREE ENERGY PREDICTED BY IDOCK:   -1.24 KCAL/MOL
REMARK 927      BINDING AFFINITY PREDICTED BY RF-SCORE:    0.00 PKD
ROOT
HETATM    1  C   UNL     1     -12.273  10.855  70.350  1.00  0.00    -0.365 C  
HETATM    2  S   UNL     1     -12.788  12.134  71.463  1.00  0.00    -0.195 SA 
HETATM    3  C   UNL     1     -12.505  13.681  70.525  1.00  0.00    -0.324 C  
HETATM    4  C   UNL     1     -12.024  13.604  69.103  1.00  0.00    -0.394 C  
HETATM    5  CA  UNL     1     -11.738  12.437  68.450  1.00  0.00    -0.336 C  
HETATM    6  CA  UNL     1     -11.142   9.743  70.446  1.00  0.00    -0.307 C  
HETATM    7  C   UNL     1     -11.018  10.066  68.924  1.00  0.00    -0.207 C  
HETATM    8  N   UNL     1     -11.717  11.221  69.081  1.00  0.00    -0.312 N  
HETATM    9  C   UNL     1     -11.421  12.484  66.979  1.00  0.00    -0.356 C  
HETATM   10  O   UNL     1     -10.321   9.633  68.039  1.00  0.00    -0.193 OA 
HETATM   11  O   UNL     1     -10.465  11.655  66.515  1.00  0.00    -0.224 OA 
HETATM   12  OXT UNL     1     -12.012  13.227  66.210  1.00  0.00    -0.383 OA 
ENDROOT
BRANCH   4  13
HETATM   13  C   UNL     1     -11.779  14.974  68.401  1.00  0.00    -0.317 C  
BRANCH  13  14
HETATM   14  S   UNL     1     -11.031  16.374  69.325  1.00  0.00    -0.304 SA 
BRANCH  14  15
HETATM   15  C   UNL     1     -10.137  17.349  68.133  1.00  0.00    -0.328 C  
HETATM   16  N   UNL     1     -10.875  18.036  67.332  1.00  0.00    -0.306 N  
HETATM   17  H   UNL     1     -11.884  18.102  67.459  1.00  0.00     0.000 HD 
HETATM   18  C   UNL     1      -7.894  16.343  68.814  1.00  0.00    -0.220 C  
HETATM   19  C   UNL     1     -10.233  18.679  66.294  1.00  0.00    -0.427 C  
HETATM   20  N   UNL     1      -8.745  17.243  68.056  1.00  0.00    -0.225 NA 
HETATM   21  C   UNL     1      -8.729  18.941  66.330  1.00  0.00    -0.303 C  
HETATM   22  O   UNL     1     -10.791  18.981  65.238  1.00  0.00    -0.540 OA 
HETATM   23  H   UNL     1      -7.058  17.870  66.938  1.00  0.00     0.000 HD 
HETATM   24  N   UNL     1      -8.057  18.010  67.081  1.00  0.00    -0.210 N  
HETATM   25  O   UNL     1      -8.177  19.841  65.719  1.00  0.00    -0.389 OA 
ENDBRANCH  14  15
ENDBRANCH  13  14
ENDBRANCH   4  13
BRANCH   6  26
HETATM   26  N   UNL     1      -9.764   9.655  71.117  1.00  0.00    -0.240 N  
HETATM   27  O   UNL     1      -7.867   8.843  72.082  1.00  0.00    -0.351 OA 
HETATM   28  C   UNL     1      -8.914   8.599  71.485  1.00  0.00    -0.234 C  
HETATM   29  H   UNL     1      -9.378  10.570  71.348  1.00  0.00     0.000 HD 
BRANCH  28  30
HETATM   30  C   UNL     1      -9.128   7.187  71.011  1.00  0.00    -0.151 C  
BRANCH  30  31
HETATM   31  C   UNL     1      -9.251   6.020  71.894  1.00  0.00    -0.150 A  
HETATM   32  H2  UNL     1     -11.252   2.731  73.760  1.00  0.00     0.000 HD 
HETATM   33  C   UNL     1      -8.248   5.067  71.978  1.00  0.00    -0.116 A  
HETATM   34  H1  UNL     1     -12.314   4.124  73.554  1.00  0.00     0.000 HD 
HETATM   35  N   UNL     1     -10.477   5.596  72.433  1.00  0.00    -0.203 NA 
HETATM   36  N   UNL     1     -11.396   3.691  73.448  1.00  0.00    -0.175 NA 
HETATM   37  S   UNL     1      -8.831   3.644  72.726  1.00  0.00    -0.093 SA 
HETATM   38  C   UNL     1     -10.377   4.374  72.904  1.00  0.00    -0.178 A  
ENDBRANCH  30  31
BRANCH  30  39
HETATM   39  N   UNL     1      -9.004   6.827  69.776  1.00  0.00    -0.144 NA 
HETATM   40  H   UNL     1      -8.261   7.241  69.213  1.00  0.00     0.000 HD 
BRANCH  39  41
HETATM   41  O   UNL     1      -9.854   5.890  69.189  1.00  0.00    -0.143 OA 
HETATM   42  C   UNL     1     -11.046   6.264  68.525  1.00  0.00    -0.308 C  
ENDBRANCH  39  41
ENDBRANCH  30  39
ENDBRANCH  28  30
ENDBRANCH   6  26
TORSDOF 8
ENDMDL
MODEL       79
REMARK 921   NORMALIZED FREE ENERGY PREDICTED BY IDOCK:   -6.53 KCAL/MOL
REMARK 922        TOTAL FREE ENERGY PREDICTED BY IDOCK:  -10.84 KCAL/MOL
REMARK 923 INTER-LIGAND FREE ENERGY PREDICTED BY IDOCK:   -9.60 KCAL/MOL
REMARK 924 INTRA-LIGAND FREE ENERGY PREDICTED BY IDOCK:   -1.24 KCAL/MOL
REMARK 927      BINDING AFFINITY PREDICTED BY RF-SCORE:    0.00 PKD
ROOT
HETATM    1  C   UNL     1     -11.882  11.500  69.212  1.00  0.00    -0.348 C  
HETATM    2  S   UNL     1     -12.078  13.010  70.118  1.00  0.00    -0.240 SA 
HETATM    3  C   UNL     1     -11.985  14.314  68.836  1.00  0.00    -0.320 C  
HETATM    4  C   UNL     1     -11.861  13.921  67.392  1.00  0.00    -0.437 C  
HETATM    5  CA  UNL     1     -11.775  12.629  66.951  1.00  0.00    -0.383 C  
HETATM    6  CA  UNL     1     -10.793  10.345  69.278  1.00  0.00    -0.241 C  
HETATM    7  C   UNL     1     -11.029  10.351  67.735  1.00  0.00    -0.309 C  
HETATM    8  N   UNL     1     -11.638  11.564  67.801  1.00  0.00    -0.287 N  
HETATM    9  C   UNL     1     -11.819  12.360  65.470  1.00  0.00    -0.412 C  
HETATM   10  O   UNL     1     -10.578   9.698  66.825  1.00  0.00    -0.209 OA 
HETATM   11  O   UNL     1     -11.027  11.384  64.984  1.00  0.00    -0.275 OA 
HETATM   12  OXT UNL     1     -12.556  12.980  64.719  1.00  0.00    -0.575 OA 
ENDROOT
BRANCH   4  13
HETATM   13  C   UNL     1     -11.754  15.102  66.380  1.00  0.00    -0.018 C  
BRANCH  13  14
HETATM   14  S   UNL     1     -10.148  15.504  65.584  1.00  0.00    -0.383 SA 
BRANCH  14  15
HETATM   15  C   UNL     1      -9.212  16.443  66.773  1.00  0.00    -0.237 C  
HETATM   16  N   UNL     1      -8.494  15.738  67.575  1.00  0.00    -0.162 N  
HETATM   17  H   UNL     1      -8.385  14.731  67.451  1.00  0.00     0.000 HD 
HETATM   18  C   UNL     1     -10.315  18.638  66.086  1.00  0.00    -0.443 C  
HETATM   19  C   UNL     1      -7.879  16.409  68.612  1.00  0.00    -0.211 C  
HETATM   20  N   UNL     1      -9.379  17.829  66.846  1.00  0.00    -0.262 NA 
HETATM   21  C   UNL     1      -7.683  17.924  68.571  1.00  0.00    -0.297 C  
HETATM   22  O   UNL     1      -7.553  15.868  69.668  1.00  0.00    -0.184 OA 
HETATM   23  H   UNL     1      -8.826  19.545  67.958  1.00  0.00     0.000 HD 
HETATM   24  N   UNL     1      -8.642  18.552  67.818  1.00  0.00    -0.267 N  
HETATM   25  O   UNL     1      -6.807  18.516  69.180  1.00  0.00    -0.273 OA 
ENDBRANCH  14  15
ENDBRANCH  13  14
ENDBRANCH   4  13
BRANCH   6  26
HETATM   26  N   UNL     1      -9.298  10.284  69.618  1.00  0.00    -0.368 N  
HETATM   27  O   UNL     1      -7.319   9.773  70.624  1.00  0.00    -0.231 OA 
HETATM   28  C   UNL     1      -8.526   9.554  70.538  1.00  0.00    -0.169 C  
HETATM   29  H   UNL     1      -8.737  10.917  69.048  1.00  0.00     0.000 HD 
BRANCH  28  30
HETATM   30  C   UNL     1      -9.073   8.373  71.292  1.00  0.00    -0.178 C  
BRANCH  30  31
HETATM   31  C   UNL     1      -9.235   7.026  70.730  1.00  0.00    -0.157 A  
HETATM   32  H2  UNL     1      -9.930   2.805  70.847  1.00  0.00     0.000 HD 
HETATM   33  C   UNL     1      -9.957   6.808  69.568  1.00  0.00    -0.162 A  
HETATM   34  H1  UNL     1      -8.982   3.362  72.228  1.00  0.00     0.000 HD 
HETATM   35  N   UNL     1      -8.992   5.856  71.469  1.00  0.00    -0.143 NA 
HETATM   36  N   UNL     1      -9.470   3.562  71.355  1.00  0.00    -0.144 NA 
HETATM   37  S   UNL     1     -10.335   5.149  69.395  1.00  0.00    -0.125 SA 
HETATM   38  C   UNL     1      -9.513   4.811  70.867  1.00  0.00    -0.165 A  
ENDBRANCH  30  31
BRANCH  30  39
HETATM   39  N   UNL     1      -9.662   8.475  72.438  1.00  0.00    -0.298 NA 
HETATM   40  H   UNL     1      -9.193   8.976  73.192  1.00  0.00     0.000 HD 
BRANCH  39  41
HETATM   41  O   UNL     1     -10.920   7.920  72.674  1.00  0.00    -0.319 OA 
HETATM   42  C   UNL     1     -12.117   8.592  72.334  1.00  0.00    -0.367 C  
ENDBRANCH  39  41
ENDBRANCH  30  39
ENDBRANCH  28  30
ENDBRANCH   6  26
TORSDOF 8
ENDMDL
MODEL       80
REMARK 921   NORMALIZED FREE ENERGY PREDICTED BY IDOCK:   -6.52 KCAL/MOL
REMARK 922        TOTAL FREE ENERGY PREDICTED BY IDOCK:  -10.83 KCAL/MOL
REMARK 923 INTER-LIGAND FREE ENERGY PREDICTED BY IDOCK:   -9.75 KCAL/MOL
REMARK 924 INTRA-LIGAND FREE ENERGY PREDICTED BY IDOCK:   -1.08 KCAL/MOL
REMARK 927      BINDING AFFINITY PREDICTED BY RF-SCORE:    0.00 PKD
ROOT
HETATM    1  C   UNL     1     -11.319  12.249  68.460  1.00  0.00    -0.286 C  
HETATM    2  S   UNL     1     -10.330  10.831  68.071  1.00  0.00    -0.194 SA 
HETATM    3  C   UNL     1     -10.544   9.728  69.517  1.00  0.00    -0.233 C  
HETATM    4  C   UNL     1     -11.484  10.130  70.618  1.00  0.00    -0.432 C  
HETATM    5  CA  UNL     1     -12.184  11.305  70.641  1.00  0.00    -0.393 C  
HETATM    6  CA  UNL     1     -10.961  13.784  68.654  1.00  0.00    -0.266 C  
HETATM    7  C   UNL     1     -12.059  13.663  69.757  1.00  0.00    -0.334 C  
HETATM    8  N   UNL     1     -11.979  12.307  69.731  1.00  0.00    -0.313 N  
HETATM    9  C   UNL     1     -13.216  11.517  71.718  1.00  0.00    -0.351 C  
HETATM   10  O   UNL     1     -12.545  14.451  70.532  1.00  0.00    -0.328 OA 
HETATM   11  O   UNL     1     -13.330  12.752  72.244  1.00  0.00    -0.532 OA 
HETATM   12  OXT UNL     1     -13.949  10.618  72.102  1.00  0.00     0.080 OA 
ENDROOT
BRANCH   4  13
HETATM   13  C   UNL     1     -11.572   9.142  71.821  1.00  0.00    -0.387 C  
BRANCH  13  14
HETATM   14  S   UNL     1     -11.268   7.347  71.577  1.00  0.00    -0.249 SA 
BRANCH  14  15
HETATM   15  C   UNL     1      -9.698   6.989  72.336  1.00  0.00    -0.153 C  
HETATM   16  N   UNL     1      -9.152   7.983  72.945  1.00  0.00    -0.219 N  
HETATM   17  H   UNL     1      -9.645   8.866  73.078  1.00  0.00     0.000 HD 
HETATM   18  C   UNL     1      -9.604   4.652  71.320  1.00  0.00    -0.172 C  
HETATM   19  C   UNL     1      -7.866   7.797  73.409  1.00  0.00    -0.142 C  
HETATM   20  N   UNL     1      -9.109   5.735  72.151  1.00  0.00    -0.143 NA 
HETATM   21  C   UNL     1      -7.285   6.397  73.598  1.00  0.00    -0.082 C  
HETATM   22  O   UNL     1      -7.074   8.721  73.594  1.00  0.00    -0.351 OA 
HETATM   23  H   UNL     1      -7.353   4.614  72.536  1.00  0.00     0.000 HD 
HETATM   24  N   UNL     1      -7.847   5.482  72.745  1.00  0.00    -0.098 N  
HETATM   25  O   UNL     1      -6.386   6.130  74.379  1.00  0.00    -0.068 OA 
ENDBRANCH  14  15
ENDBRANCH  13  14
ENDBRANCH   4  13
BRANCH   6  26
HETATM   26  N   UNL     1      -9.734  14.554  69.163  1.00  0.00    -0.394 N  
HETATM   27  O   UNL     1      -7.781  15.724  69.235  1.00  0.00    -0.201 OA 
HETATM   28  C   UNL     1      -8.680  15.246  68.545  1.00  0.00    -0.176 C  
HETATM   29  H   UNL     1      -9.670  14.566  70.181  1.00  0.00     0.000 HD 
BRANCH  28  30
HETATM   30  C   UNL     1      -8.695  15.602  67.082  1.00  0.00    -0.210 C  
BRANCH  30  31
HETATM   31  C   UNL     1      -8.676  16.973  66.557  1.00  0.00    -0.263 A  
HETATM   32  H2  UNL     1      -9.860  21.078  66.319  1.00  0.00     0.000 HD 
HETATM   33  C   UNL     1      -7.488  17.610  66.237  1.00  0.00    -0.305 A  
HETATM   34  H1  UNL     1     -11.218  20.015  66.693  1.00  0.00     0.000 HD 
HETATM   35  N   UNL     1      -9.772  17.845  66.663  1.00  0.00    -0.305 NA 
HETATM   36  N   UNL     1     -10.227  20.140  66.483  1.00  0.00    -0.451 NA 
HETATM   37  S   UNL     1      -7.734  19.294  66.069  1.00  0.00    -0.224 SA 
HETATM   38  C   UNL     1      -9.403  19.083  66.422  1.00  0.00    -0.336 A  
ENDBRANCH  30  31
BRANCH  30  39
HETATM   39  N   UNL     1      -8.951  14.747  66.148  1.00  0.00    -0.495 NA 
HETATM   40  H   UNL     1      -8.342  13.937  66.038  1.00  0.00     0.000 HD 
BRANCH  39  41
HETATM   41  O   UNL     1     -10.037  14.898  65.285  1.00  0.00    -0.355 OA 
HETATM   42  C   UNL     1     -10.830  13.803  64.871  1.00  0.00    -0.391 C  
ENDBRANCH  39  41
ENDBRANCH  30  39
ENDBRANCH  28  30
ENDBRANCH   6  26
TORSDOF 8
ENDMDL
MODEL       81
REMARK 921   NORMALIZED FREE ENERGY PREDICTED BY IDOCK:   -6.52 KCAL/MOL
REMARK 922        TOTAL FREE ENERGY PREDICTED BY IDOCK:  -10.83 KCAL/MOL
REMARK 923 INTER-LIGAND FREE ENERGY PREDICTED BY IDOCK:   -8.83 KCAL/MOL
REMARK 924 INTRA-LIGAND FREE ENERGY PREDICTED BY IDOCK:   -2.00 KCAL/MOL
REMARK 927      BINDING AFFINITY PREDICTED BY RF-SCORE:    0.00 PKD
ROOT
HETATM    1  C   UNL     1     -10.269  10.044  66.165  1.00  0.00    -0.213 C  
HETATM    2  S   UNL     1      -8.915   9.480  65.172  1.00  0.00    -0.219 SA 
HETATM    3  C   UNL     1      -8.314   7.986  66.043  1.00  0.00    -0.126 C  
HETATM    4  C   UNL     1      -9.045   7.499  67.263  1.00  0.00    -0.137 C  
HETATM    5  CA  UNL     1     -10.133   8.124  67.807  1.00  0.00    -0.204 C  
HETATM    6  CA  UNL     1     -10.528  11.397  66.955  1.00  0.00    -0.236 C  
HETATM    7  C   UNL     1     -11.186  10.411  67.969  1.00  0.00    -0.272 C  
HETATM    8  N   UNL     1     -10.574   9.349  67.381  1.00  0.00    -0.274 N  
HETATM    9  C   UNL     1     -10.874   7.449  68.931  1.00  0.00    -0.060 C  
HETATM   10  O   UNL     1     -11.750  10.562  69.026  1.00  0.00    -0.246 OA 
HETATM   11  O   UNL     1     -11.350   8.224  69.926  1.00  0.00    -0.105 OA 
HETATM   12  OXT UNL     1     -11.067   6.243  68.950  1.00  0.00    -0.336 OA 
ENDROOT
BRANCH   4  13
HETATM   13  C   UNL     1      -8.438   6.241  67.954  1.00  0.00    -0.117 C  
BRANCH  13  14
HETATM   14  S   UNL     1      -7.248   6.424  69.342  1.00  0.00    -0.088 SA 
BRANCH  14  15
HETATM   15  C   UNL     1      -8.219   6.664  70.815  1.00  0.00    -0.121 C  
HETATM   16  N   UNL     1      -8.839   5.615  71.232  1.00  0.00    -0.135 N  
HETATM   17  H   UNL     1      -8.681   4.699  70.813  1.00  0.00     0.000 HD 
HETATM   18  C   UNL     1      -7.815   9.182  70.815  1.00  0.00    -0.149 C  
HETATM   19  C   UNL     1      -9.726   5.791  72.273  1.00  0.00    -0.154 C  
HETATM   20  N   UNL     1      -8.345   7.945  71.360  1.00  0.00    -0.103 NA 
HETATM   21  C   UNL     1      -9.664   7.026  73.170  1.00  0.00    -0.184 C  
HETATM   22  O   UNL     1     -10.681   5.041  72.481  1.00  0.00    -0.210 OA 
HETATM   23  H   UNL     1      -9.333   9.053  72.871  1.00  0.00     0.000 HD 
HETATM   24  N   UNL     1      -9.144   8.115  72.519  1.00  0.00    -0.211 N  
HETATM   25  O   UNL     1     -10.078   7.058  74.318  1.00  0.00    -0.314 OA 
ENDBRANCH  14  15
ENDBRANCH  13  14
ENDBRANCH   4  13
BRANCH   6  26
HETATM   26  N   UNL     1      -9.635  12.423  67.667  1.00  0.00    -0.188 N  
HETATM   27  O   UNL     1      -8.888  14.331  68.663  1.00  0.00    -0.183 OA 
HETATM   28  C   UNL     1      -9.839  13.710  68.192  1.00  0.00    -0.236 C  
HETATM   29  H   UNL     1      -8.676  12.097  67.786  1.00  0.00     0.000 HD 
BRANCH  28  30
HETATM   30  C   UNL     1     -11.212  14.296  68.382  1.00  0.00    -0.269 C  
BRANCH  30  31
HETATM   31  C   UNL     1     -11.789  14.664  69.682  1.00  0.00    -0.320 A  
HETATM   32  H2  UNL     1     -13.399  13.946  73.581  1.00  0.00     0.000 HD 
HETATM   33  C   UNL     1     -11.311  15.743  70.408  1.00  0.00    -0.374 A  
HETATM   34  H1  UNL     1     -13.887  12.709  72.422  1.00  0.00     0.000 HD 
HETATM   35  N   UNL     1     -12.592  13.791  70.435  1.00  0.00    -0.292 NA 
HETATM   36  N   UNL     1     -13.385  13.571  72.632  1.00  0.00    -0.545 NA 
HETATM   37  S   UNL     1     -11.859  15.672  72.026  1.00  0.00    -0.507 SA 
HETATM   38  C   UNL     1     -12.706  14.218  71.672  1.00  0.00    -0.352 A  
ENDBRANCH  30  31
BRANCH  30  39
HETATM   39  N   UNL     1     -12.105  14.326  67.450  1.00  0.00    -0.567 NA 
HETATM   40  H   UNL     1     -13.084  14.180  67.697  1.00  0.00     0.000 HD 
BRANCH  39  41
HETATM   41  O   UNL     1     -11.772  14.554  66.114  1.00  0.00    -0.366 OA 
HETATM   42  C   UNL     1     -12.460  13.929  65.048  1.00  0.00    -0.419 C  
ENDBRANCH  39  41
ENDBRANCH  30  39
ENDBRANCH  28  30
ENDBRANCH   6  26
TORSDOF 8
ENDMDL
MODEL       82
REMARK 921   NORMALIZED FREE ENERGY PREDICTED BY IDOCK:   -6.51 KCAL/MOL
REMARK 922        TOTAL FREE ENERGY PREDICTED BY IDOCK:  -10.82 KCAL/MOL
REMARK 923 INTER-LIGAND FREE ENERGY PREDICTED BY IDOCK:   -8.78 KCAL/MOL
REMARK 924 INTRA-LIGAND FREE ENERGY PREDICTED BY IDOCK:   -2.04 KCAL/MOL
REMARK 927      BINDING AFFINITY PREDICTED BY RF-SCORE:    0.00 PKD
ROOT
HETATM    1  C   UNL     1     -10.938  14.855  66.365  1.00  0.00    -0.336 C  
HETATM    2  S   UNL     1     -11.146  13.445  65.311  1.00  0.00    -0.299 SA 
HETATM    3  C   UNL     1     -11.525  12.076  66.467  1.00  0.00    -0.349 C  
HETATM    4  C   UNL     1     -11.666  12.368  67.935  1.00  0.00    -0.421 C  
HETATM    5  CA  UNL     1     -11.493  13.605  68.493  1.00  0.00    -0.312 C  
HETATM    6  CA  UNL     1      -9.706  15.824  66.627  1.00  0.00    -0.249 C  
HETATM    7  C   UNL     1     -10.273  15.774  68.081  1.00  0.00    -0.230 C  
HETATM    8  N   UNL     1     -11.021  14.677  67.785  1.00  0.00    -0.278 N  
HETATM    9  C   UNL     1     -11.821  13.798  69.950  1.00  0.00    -0.327 C  
HETATM   10  O   UNL     1      -9.943  16.297  69.117  1.00  0.00    -0.235 OA 
HETATM   11  O   UNL     1     -11.023  14.609  70.672  1.00  0.00    -0.071 OA 
HETATM   12  OXT UNL     1     -12.786  13.265  70.475  1.00  0.00    -0.137 OA 
ENDROOT
BRANCH   4  13
HETATM   13  C   UNL     1     -11.954  11.133  68.841  1.00  0.00    -0.298 C  
BRANCH  13  14
HETATM   14  S   UNL     1     -10.573  10.104  69.481  1.00  0.00    -0.262 SA 
BRANCH  14  15
HETATM   15  C   UNL     1      -9.132  10.540  68.531  1.00  0.00    -0.154 C  
HETATM   16  N   UNL     1      -8.504  11.583  68.948  1.00  0.00    -0.357 N  
HETATM   17  H   UNL     1      -8.753  12.043  69.824  1.00  0.00     0.000 HD 
HETATM   18  C   UNL     1      -9.612   8.765  66.763  1.00  0.00    -0.206 C  
HETATM   19  C   UNL     1      -7.478  12.050  68.152  1.00  0.00    -0.112 C  
HETATM   20  N   UNL     1      -8.828   9.827  67.367  1.00  0.00    -0.132 NA 
HETATM   21  C   UNL     1      -6.828  11.162  67.093  1.00  0.00    -0.107 C  
HETATM   22  O   UNL     1      -7.097  13.221  68.159  1.00  0.00    -0.086 OA 
HETATM   23  H   UNL     1      -7.509   9.772  65.710  1.00  0.00     0.000 HD 
HETATM   24  N   UNL     1      -7.689  10.209  66.614  1.00  0.00    -0.104 N  
HETATM   25  O   UNL     1      -5.690  11.315  66.679  1.00  0.00    -0.101 OA 
ENDBRANCH  14  15
ENDBRANCH  13  14
ENDBRANCH   4  13
BRANCH   6  26
HETATM   26  N   UNL     1      -8.180  15.663  66.613  1.00  0.00    -0.268 N  
HETATM   27  O   UNL     1      -5.949  16.107  66.732  1.00  0.00    -0.304 OA 
HETATM   28  C   UNL     1      -7.098  16.512  66.899  1.00  0.00    -0.227 C  
HETATM   29  H   UNL     1      -7.884  14.729  66.331  1.00  0.00     0.000 HD 
BRANCH  28  30
HETATM   30  C   UNL     1      -7.273  17.838  67.589  1.00  0.00    -0.191 C  
BRANCH  30  31
HETATM   31  C   UNL     1      -8.337  18.804  67.285  1.00  0.00    -0.268 A  
HETATM   32  H2  UNL     1     -11.868  20.234  65.336  1.00  0.00     0.000 HD 
HETATM   33  C   UNL     1      -8.951  19.544  68.282  1.00  0.00    -0.335 A  
HETATM   34  H1  UNL     1     -10.861  19.263  64.260  1.00  0.00     0.000 HD 
HETATM   35  N   UNL     1      -9.040  18.805  66.068  1.00  0.00    -0.471 NA 
HETATM   36  N   UNL     1     -11.022  19.686  65.174  1.00  0.00    -0.244 NA 
HETATM   37  S   UNL     1     -10.403  20.240  67.707  1.00  0.00    -0.185 SA 
HETATM   38  C   UNL     1     -10.132  19.529  66.166  1.00  0.00    -0.469 A  
ENDBRANCH  30  31
BRANCH  30  39
HETATM   39  N   UNL     1      -6.377  18.358  68.361  1.00  0.00    -0.197 NA 
HETATM   40  H   UNL     1      -5.725  19.040  67.973  1.00  0.00     0.000 HD 
BRANCH  39  41
HETATM   41  O   UNL     1      -6.275  18.017  69.710  1.00  0.00    -0.237 OA 
HETATM   42  C   UNL     1      -5.524  16.902  70.151  1.00  0.00    -0.219 C  
ENDBRANCH  39  41
ENDBRANCH  30  39
ENDBRANCH  28  30
ENDBRANCH   6  26
TORSDOF 8
ENDMDL
MODEL       83
REMARK 921   NORMALIZED FREE ENERGY PREDICTED BY IDOCK:   -6.51 KCAL/MOL
REMARK 922        TOTAL FREE ENERGY PREDICTED BY IDOCK:  -10.81 KCAL/MOL
REMARK 923 INTER-LIGAND FREE ENERGY PREDICTED BY IDOCK:   -8.99 KCAL/MOL
REMARK 924 INTRA-LIGAND FREE ENERGY PREDICTED BY IDOCK:   -1.82 KCAL/MOL
REMARK 927      BINDING AFFINITY PREDICTED BY RF-SCORE:    0.00 PKD
ROOT
HETATM    1  C   UNL     1     -10.884  10.548  69.308  1.00  0.00    -0.243 C  
HETATM    2  S   UNL     1      -9.171  10.717  68.888  1.00  0.00    -0.146 SA 
HETATM    3  C   UNL     1      -8.302   9.715  70.151  1.00  0.00    -0.198 C  
HETATM    4  C   UNL     1      -9.104   8.939  71.157  1.00  0.00    -0.315 C  
HETATM    5  CA  UNL     1     -10.470   8.952  71.226  1.00  0.00    -0.287 C  
HETATM    6  CA  UNL     1     -11.993  11.604  69.729  1.00  0.00    -0.332 C  
HETATM    7  C   UNL     1     -12.434  10.427  70.653  1.00  0.00    -0.348 C  
HETATM    8  N   UNL     1     -11.241   9.800  70.477  1.00  0.00    -0.290 N  
HETATM    9  C   UNL     1     -11.160   8.006  72.173  1.00  0.00    -0.311 C  
HETATM   10  O   UNL     1     -13.335  10.287  71.445  1.00  0.00    -0.357 OA 
HETATM   11  O   UNL     1     -12.253   8.453  72.823  1.00  0.00    -0.339 OA 
HETATM   12  OXT UNL     1     -10.772   6.861  72.346  1.00  0.00    -0.212 OA 
ENDROOT
BRANCH   4  13
HETATM   13  C   UNL     1      -8.274   8.146  72.211  1.00  0.00    -0.154 C  
BRANCH  13  14
HETATM   14  S   UNL     1      -7.153   6.789  71.685  1.00  0.00    -0.076 SA 
BRANCH  14  15
HETATM   15  C   UNL     1      -7.952   5.969  70.322  1.00  0.00    -0.107 C  
HETATM   16  N   UNL     1      -8.852   5.113  70.658  1.00  0.00    -0.126 N  
HETATM   17  H   UNL     1      -9.158   5.010  71.626  1.00  0.00     0.000 HD 
HETATM   18  C   UNL     1      -6.376   7.017  68.612  1.00  0.00    -0.035 C  
HETATM   19  C   UNL     1      -9.384   4.340  69.646  1.00  0.00    -0.165 C  
HETATM   20  N   UNL     1      -7.508   6.202  69.017  1.00  0.00    -0.085 NA 
HETATM   21  C   UNL     1      -9.260   4.756  68.181  1.00  0.00    -0.124 C  
HETATM   22  O   UNL     1      -9.885   3.231  69.834  1.00  0.00    -0.077 OA 
HETATM   23  H   UNL     1      -7.769   5.594  67.005  1.00  0.00     0.000 HD 
HETATM   24  N   UNL     1      -8.144   5.519  67.950  1.00  0.00    -0.100 N  
HETATM   25  O   UNL     1     -10.034   4.407  67.305  1.00  0.00    -0.183 OA 
ENDBRANCH  14  15
ENDBRANCH  13  14
ENDBRANCH   4  13
BRANCH   6  26
HETATM   26  N   UNL     1     -11.984  12.940  70.485  1.00  0.00    -0.533 N  
HETATM   27  O   UNL     1     -11.724  15.145  70.994  1.00  0.00    -0.290 OA 
HETATM   28  C   UNL     1     -11.708  14.271  70.130  1.00  0.00    -0.288 C  
HETATM   29  H   UNL     1     -12.236  12.839  71.468  1.00  0.00     0.000 HD 
BRANCH  28  30
HETATM   30  C   UNL     1     -11.582  14.714  68.697  1.00  0.00    -0.314 C  
BRANCH  30  31
HETATM   31  C   UNL     1     -10.564  15.649  68.200  1.00  0.00    -0.274 A  
HETATM   32  H2  UNL     1      -8.771  19.479  67.545  1.00  0.00     0.000 HD 
HETATM   33  C   UNL     1      -9.211  15.368  68.299  1.00  0.00    -0.188 A  
HETATM   34  H1  UNL     1     -10.530  19.542  67.441  1.00  0.00     0.000 HD 
HETATM   35  N   UNL     1     -10.840  16.998  67.920  1.00  0.00    -0.341 NA 
HETATM   36  N   UNL     1      -9.674  19.006  67.581  1.00  0.00    -0.307 NA 
HETATM   37  S   UNL     1      -8.282  16.781  68.046  1.00  0.00    -0.198 SA 
HETATM   38  C   UNL     1      -9.725  17.685  67.810  1.00  0.00    -0.280 A  
ENDBRANCH  30  31
BRANCH  30  39
HETATM   39  N   UNL     1     -12.489  14.494  67.805  1.00  0.00    -0.511 NA 
HETATM   40  H   UNL     1     -13.464  14.688  68.032  1.00  0.00     0.000 HD 
BRANCH  39  41
HETATM   41  O   UNL     1     -12.176  13.996  66.539  1.00  0.00    -0.447 OA 
HETATM   42  C   UNL     1     -11.899  12.628  66.313  1.00  0.00    -0.410 C  
ENDBRANCH  39  41
ENDBRANCH  30  39
ENDBRANCH  28  30
ENDBRANCH   6  26
TORSDOF 8
ENDMDL
MODEL       84
REMARK 921   NORMALIZED FREE ENERGY PREDICTED BY IDOCK:   -6.48 KCAL/MOL
REMARK 922        TOTAL FREE ENERGY PREDICTED BY IDOCK:  -10.77 KCAL/MOL
REMARK 923 INTER-LIGAND FREE ENERGY PREDICTED BY IDOCK:   -8.04 KCAL/MOL
REMARK 924 INTRA-LIGAND FREE ENERGY PREDICTED BY IDOCK:   -2.72 KCAL/MOL
REMARK 927      BINDING AFFINITY PREDICTED BY RF-SCORE:    0.00 PKD
ROOT
HETATM    1  C   UNL     1     -11.740   7.652  70.595  1.00  0.00    -0.193 C  
HETATM    2  S   UNL     1     -11.706   9.168  71.511  1.00  0.00    -0.389 SA 
HETATM    3  C   UNL     1     -10.833  10.337  70.404  1.00  0.00    -0.253 C  
HETATM    4  C   UNL     1     -10.421   9.885  69.031  1.00  0.00    -0.227 C  
HETATM    5  CA  UNL     1     -10.622   8.622  68.545  1.00  0.00    -0.119 C  
HETATM    6  CA  UNL     1     -11.143   6.209  70.890  1.00  0.00    -0.307 C  
HETATM    7  C   UNL     1     -10.900   6.248  69.349  1.00  0.00    -0.340 C  
HETATM    8  N   UNL     1     -11.085   7.595  69.322  1.00  0.00    -0.005 N  
HETATM    9  C   UNL     1     -10.311   8.341  67.098  1.00  0.00    -0.317 C  
HETATM   10  O   UNL     1     -10.432   5.460  68.563  1.00  0.00    -0.177 OA 
HETATM   11  O   UNL     1      -9.763   7.149  66.793  1.00  0.00    -0.177 OA 
HETATM   12  OXT UNL     1     -10.559   9.145  66.212  1.00  0.00    -0.101 OA 
ENDROOT
BRANCH   4  13
HETATM   13  C   UNL     1      -9.654  10.940  68.178  1.00  0.00    -0.164 C  
BRANCH  13  14
HETATM   14  S   UNL     1     -10.173  12.702  68.187  1.00  0.00    -0.243 SA 
BRANCH  14  15
HETATM   15  C   UNL     1     -10.805  13.054  66.560  1.00  0.00    -0.279 C  
HETATM   16  N   UNL     1     -10.992  12.021  65.816  1.00  0.00    -0.297 N  
HETATM   17  H   UNL     1     -10.897  11.074  66.183  1.00  0.00     0.000 HD 
HETATM   18  C   UNL     1     -10.582  15.574  66.888  1.00  0.00    -0.307 C  
HETATM   19  C   UNL     1     -11.327  12.255  64.498  1.00  0.00    -0.329 C  
HETATM   20  N   UNL     1     -10.956  14.382  66.148  1.00  0.00    -0.315 NA 
HETATM   21  C   UNL     1     -11.877  13.607  64.048  1.00  0.00    -0.400 C  
HETATM   22  O   UNL     1     -11.107  11.452  63.592  1.00  0.00    -0.399 OA 
HETATM   23  H   UNL     1     -11.455  15.593  64.483  1.00  0.00     0.000 HD 
HETATM   24  N   UNL     1     -11.437  14.637  64.839  1.00  0.00    -0.384 N  
HETATM   25  O   UNL     1     -12.584  13.764  63.065  1.00  0.00    -0.721 OA 
ENDBRANCH  14  15
ENDBRANCH  13  14
ENDBRANCH   4  13
BRANCH   6  26
HETATM   26  N   UNL     1      -9.913   5.679  71.640  1.00  0.00    -0.170 N  
HETATM   27  O   UNL     1      -7.788   5.426  72.420  1.00  0.00    -0.100 OA 
HETATM   28  C   UNL     1      -8.586   6.116  71.789  1.00  0.00    -0.133 C  
HETATM   29  H   UNL     1     -10.101   4.813  72.145  1.00  0.00     0.000 HD 
BRANCH  28  30
HETATM   30  C   UNL     1      -8.138   7.491  71.374  1.00  0.00    -0.096 C  
BRANCH  30  31
HETATM   31  C   UNL     1      -7.322   7.780  70.187  1.00  0.00    -0.071 A  
HETATM   32  H2  UNL     1      -6.109   7.412  66.100  1.00  0.00     0.000 HD 
HETATM   33  C   UNL     1      -6.934   9.072  69.871  1.00  0.00    -0.052 A  
HETATM   34  H1  UNL     1      -6.634   5.870  66.780  1.00  0.00     0.000 HD 
HETATM   35  N   UNL     1      -7.169   6.872  69.127  1.00  0.00    -0.088 NA 
HETATM   36  N   UNL     1      -6.458   6.869  66.891  1.00  0.00    -0.045 NA 
HETATM   37  S   UNL     1      -6.382   9.158  68.255  1.00  0.00    -0.055 SA 
HETATM   38  C   UNL     1      -6.679   7.475  68.067  1.00  0.00    -0.059 A  
ENDBRANCH  30  31
BRANCH  30  39
HETATM   39  N   UNL     1      -8.236   8.529  72.137  1.00  0.00    -0.271 NA 
HETATM   40  H   UNL     1      -8.605   9.396  71.748  1.00  0.00     0.000 HD 
BRANCH  39  41
HETATM   41  O   UNL     1      -7.852   8.499  73.478  1.00  0.00    -0.357 OA 
HETATM   42  C   UNL     1      -6.497   8.585  73.877  1.00  0.00    -0.104 C  
ENDBRANCH  39  41
ENDBRANCH  30  39
ENDBRANCH  28  30
ENDBRANCH   6  26
TORSDOF 8
ENDMDL
MODEL       85
REMARK 921   NORMALIZED FREE ENERGY PREDICTED BY IDOCK:   -6.47 KCAL/MOL
REMARK 922        TOTAL FREE ENERGY PREDICTED BY IDOCK:  -10.75 KCAL/MOL
REMARK 923 INTER-LIGAND FREE ENERGY PREDICTED BY IDOCK:   -9.25 KCAL/MOL
REMARK 924 INTRA-LIGAND FREE ENERGY PREDICTED BY IDOCK:   -1.50 KCAL/MOL
REMARK 927      BINDING AFFINITY PREDICTED BY RF-SCORE:    0.00 PKD
ROOT
HETATM    1  C   UNL     1      -9.602   8.074  70.714  1.00  0.00    -0.162 C  
HETATM    2  S   UNL     1      -8.526   9.105  69.755  1.00  0.00    -0.153 SA 
HETATM    3  C   UNL     1      -9.575  10.534  69.292  1.00  0.00    -0.181 C  
HETATM    4  C   UNL     1     -10.980  10.619  69.819  1.00  0.00    -0.340 C  
HETATM    5  CA  UNL     1     -11.563   9.668  70.610  1.00  0.00    -0.299 C  
HETATM    6  CA  UNL     1     -10.119   6.586  70.512  1.00  0.00    -0.185 C  
HETATM    7  C   UNL     1     -11.420   7.201  71.116  1.00  0.00    -0.290 C  
HETATM    8  N   UNL     1     -10.972   8.462  70.877  1.00  0.00    -0.237 N  
HETATM    9  C   UNL     1     -12.918   9.947  71.206  1.00  0.00    -0.395 C  
HETATM   10  O   UNL     1     -12.503   6.744  71.390  1.00  0.00    -0.359 OA 
HETATM   11  O   UNL     1     -13.793   8.925  71.283  1.00  0.00    -0.310 OA 
HETATM   12  OXT UNL     1     -13.227  11.050  71.629  1.00  0.00    -0.414 OA 
ENDROOT
BRANCH   4  13
HETATM   13  C   UNL     1     -11.803  11.853  69.341  1.00  0.00    -0.327 C  
BRANCH  13  14
HETATM   14  S   UNL     1     -10.970  13.455  69.003  1.00  0.00    -0.183 SA 
BRANCH  14  15
HETATM   15  C   UNL     1     -11.383  13.900  67.330  1.00  0.00    -0.323 C  
HETATM   16  N   UNL     1     -12.344  13.219  66.810  1.00  0.00    -0.265 N  
HETATM   17  H   UNL     1     -12.895  12.564  67.363  1.00  0.00     0.000 HD 
HETATM   18  C   UNL     1      -9.407  15.502  67.141  1.00  0.00    -0.216 C  
HETATM   19  C   UNL     1     -12.591  13.419  65.467  1.00  0.00    -0.465 C  
HETATM   20  N   UNL     1     -10.608  14.848  66.654  1.00  0.00    -0.299 NA 
HETATM   21  C   UNL     1     -12.082  14.664  64.743  1.00  0.00    -0.421 C  
HETATM   22  O   UNL     1     -13.128  12.577  64.747  1.00  0.00    -0.853 OA 
HETATM   23  H   UNL     1     -10.329  15.776  64.770  1.00  0.00     0.000 HD 
HETATM   24  N   UNL     1     -10.942  15.167  65.314  1.00  0.00    -0.372 N  
HETATM   25  O   UNL     1     -12.597  15.128  63.738  1.00  0.00    -0.752 OA 
ENDBRANCH  14  15
ENDBRANCH  13  14
ENDBRANCH   4  13
BRANCH   6  26
HETATM   26  N   UNL     1     -10.427   5.702  69.295  1.00  0.00    -0.269 N  
HETATM   27  O   UNL     1     -10.385   4.788  67.210  1.00  0.00    -0.151 OA 
HETATM   28  C   UNL     1      -9.867   5.559  68.015  1.00  0.00    -0.139 C  
HETATM   29  H   UNL     1     -11.217   5.076  69.452  1.00  0.00     0.000 HD 
BRANCH  28  30
HETATM   30  C   UNL     1      -8.541   6.165  67.642  1.00  0.00    -0.106 C  
BRANCH  30  31
HETATM   31  C   UNL     1      -8.308   6.995  66.453  1.00  0.00    -0.125 A  
HETATM   32  H2  UNL     1      -8.035   7.824  62.264  1.00  0.00     0.000 HD 
HETATM   33  C   UNL     1      -8.782   8.295  66.372  1.00  0.00    -0.142 A  
HETATM   34  H1  UNL     1      -7.454   6.207  62.661  1.00  0.00     0.000 HD 
HETATM   35  N   UNL     1      -7.918   6.461  65.214  1.00  0.00    -0.109 NA 
HETATM   36  N   UNL     1      -7.840   7.103  62.958  1.00  0.00    -0.125 NA 
HETATM   37  S   UNL     1      -8.743   8.851  64.756  1.00  0.00    -0.072 SA 
HETATM   38  C   UNL     1      -8.092   7.341  64.254  1.00  0.00    -0.049 A  
ENDBRANCH  30  31
BRANCH  30  39
HETATM   39  N   UNL     1      -7.427   5.833  68.205  1.00  0.00    -0.080 NA 
HETATM   40  H   UNL     1      -6.589   6.376  68.001  1.00  0.00     0.000 HD 
BRANCH  39  41
HETATM   41  O   UNL     1      -7.336   4.753  69.084  1.00  0.00    -0.052 OA 
HETATM   42  C   UNL     1      -6.299   3.795  68.997  1.00  0.00    -0.029 C  
ENDBRANCH  39  41
ENDBRANCH  30  39
ENDBRANCH  28  30
ENDBRANCH   6  26
TORSDOF 8
ENDMDL
MODEL       86
REMARK 921   NORMALIZED FREE ENERGY PREDICTED BY IDOCK:   -6.46 KCAL/MOL
REMARK 922        TOTAL FREE ENERGY PREDICTED BY IDOCK:  -10.74 KCAL/MOL
REMARK 923 INTER-LIGAND FREE ENERGY PREDICTED BY IDOCK:   -9.83 KCAL/MOL
REMARK 924 INTRA-LIGAND FREE ENERGY PREDICTED BY IDOCK:   -0.91 KCAL/MOL
REMARK 927      BINDING AFFINITY PREDICTED BY RF-SCORE:    0.00 PKD
ROOT
HETATM    1  C   UNL     1     -10.768  11.793  69.405  1.00  0.00     0.003 C  
HETATM    2  S   UNL     1     -11.835  10.727  70.335  1.00  0.00    -0.382 SA 
HETATM    3  C   UNL     1     -11.265   9.040  69.904  1.00  0.00    -0.079 C  
HETATM    4  C   UNL     1     -10.071   8.872  69.008  1.00  0.00    -0.205 C  
HETATM    5  CA  UNL     1      -9.380   9.909  68.445  1.00  0.00    -0.133 C  
HETATM    6  CA  UNL     1     -11.053  12.870  68.272  1.00  0.00    -0.264 C  
HETATM    7  C   UNL     1      -9.710  12.301  67.716  1.00  0.00    -0.199 C  
HETATM    8  N   UNL     1      -9.803  11.209  68.520  1.00  0.00    -0.192 N  
HETATM    9  C   UNL     1      -8.105   9.615  67.699  1.00  0.00    -0.113 C  
HETATM   10  O   UNL     1      -9.035  12.564  66.750  1.00  0.00    -0.209 OA 
HETATM   11  O   UNL     1      -7.850  10.328  66.584  1.00  0.00    -0.111 OA 
HETATM   12  OXT UNL     1      -7.305   8.776  68.084  1.00  0.00    -0.085 OA 
ENDROOT
BRANCH   4  13
HETATM   13  C   UNL     1      -9.686   7.399  68.671  1.00  0.00    -0.152 C  
BRANCH  13  14
HETATM   14  S   UNL     1     -10.989   6.142  68.362  1.00  0.00    -0.228 SA 
BRANCH  14  15
HETATM   15  C   UNL     1     -10.324   5.005  67.165  1.00  0.00    -0.161 C  
HETATM   16  N   UNL     1     -10.782   5.147  65.970  1.00  0.00    -0.637 N  
HETATM   17  H   UNL     1     -11.385   5.930  65.718  1.00  0.00     0.000 HD 
HETATM   18  C   UNL     1      -9.067   3.680  68.945  1.00  0.00    -0.142 C  
HETATM   19  C   UNL     1     -10.416   4.189  65.047  1.00  0.00    -0.167 C  
HETATM   20  N   UNL     1      -9.460   3.988  67.582  1.00  0.00    -0.181 NA 
HETATM   21  C   UNL     1      -9.211   3.280  65.280  1.00  0.00    -0.151 C  
HETATM   22  O   UNL     1     -11.084   3.927  64.045  1.00  0.00    -0.312 OA 
HETATM   23  H   UNL     1      -8.418   2.270  66.911  1.00  0.00     0.000 HD 
HETATM   24  N   UNL     1      -8.963   3.079  66.614  1.00  0.00    -0.148 N  
HETATM   25  O   UNL     1      -8.574   2.748  64.386  1.00  0.00    -0.089 OA 
ENDBRANCH  14  15
ENDBRANCH  13  14
ENDBRANCH   4  13
BRANCH   6  26
HETATM   26  N   UNL     1     -12.102  13.022  67.162  1.00  0.00    -0.329 N  
HETATM   27  O   UNL     1     -13.240  13.778  65.339  1.00  0.00    -0.722 OA 
HETATM   28  C   UNL     1     -12.223  13.843  66.029  1.00  0.00    -0.462 C  
HETATM   29  H   UNL     1     -12.888  12.383  67.272  1.00  0.00     0.000 HD 
BRANCH  28  30
HETATM   30  C   UNL     1     -11.080  14.668  65.502  1.00  0.00    -0.345 C  
BRANCH  30  31
HETATM   31  C   UNL     1     -10.607  15.921  66.105  1.00  0.00    -0.305 A  
HETATM   32  H2  UNL     1     -10.076  20.157  66.391  1.00  0.00     0.000 HD 
HETATM   33  C   UNL     1     -10.683  16.141  67.471  1.00  0.00    -0.304 A  
HETATM   34  H1  UNL     1      -9.991  19.587  64.724  1.00  0.00     0.000 HD 
HETATM   35  N   UNL     1     -10.380  17.088  65.358  1.00  0.00    -0.641 NA 
HETATM   36  N   UNL     1     -10.103  19.390  65.718  1.00  0.00    -0.461 NA 
HETATM   37  S   UNL     1     -10.473  17.801  67.826  1.00  0.00    -0.388 SA 
HETATM   38  C   UNL     1     -10.285  18.133  66.150  1.00  0.00    -0.367 A  
ENDBRANCH  30  31
BRANCH  30  39
HETATM   39  N   UNL     1     -10.544  14.476  64.343  1.00  0.00    -0.521 NA 
HETATM   40  H   UNL     1     -10.568  15.230  63.656  1.00  0.00     0.000 HD 
BRANCH  39  41
HETATM   41  O   UNL     1      -9.932  13.270  64.001  1.00  0.00    -0.264 OA 
HETATM   42  C   UNL     1     -10.634  12.222  63.362  1.00  0.00    -0.385 C  
ENDBRANCH  39  41
ENDBRANCH  30  39
ENDBRANCH  28  30
ENDBRANCH   6  26
TORSDOF 8
ENDMDL
MODEL       87
REMARK 921   NORMALIZED FREE ENERGY PREDICTED BY IDOCK:   -6.46 KCAL/MOL
REMARK 922        TOTAL FREE ENERGY PREDICTED BY IDOCK:  -10.74 KCAL/MOL
REMARK 923 INTER-LIGAND FREE ENERGY PREDICTED BY IDOCK:   -9.05 KCAL/MOL
REMARK 924 INTRA-LIGAND FREE ENERGY PREDICTED BY IDOCK:   -1.69 KCAL/MOL
REMARK 927      BINDING AFFINITY PREDICTED BY RF-SCORE:    0.00 PKD
ROOT
HETATM    1  C   UNL     1      -8.126  10.906  66.849  1.00  0.00    -0.137 C  
HETATM    2  S   UNL     1      -8.208  11.364  68.559  1.00  0.00    -0.142 SA 
HETATM    3  C   UNL     1      -8.402   9.770  69.439  1.00  0.00    -0.152 C  
HETATM    4  C   UNL     1      -8.372   8.487  68.657  1.00  0.00    -0.123 C  
HETATM    5  CA  UNL     1      -8.244   8.419  67.296  1.00  0.00    -0.112 C  
HETATM    6  CA  UNL     1      -9.041  11.262  65.600  1.00  0.00    -0.189 C  
HETATM    7  C   UNL     1      -8.706   9.784  65.226  1.00  0.00    -0.159 C  
HETATM    8  N   UNL     1      -8.283   9.527  66.492  1.00  0.00    -0.118 N  
HETATM    9  C   UNL     1      -8.064   7.071  66.648  1.00  0.00    -0.110 C  
HETATM   10  O   UNL     1      -8.999   9.079  64.291  1.00  0.00    -0.123 OA 
HETATM   11  O   UNL     1      -8.674   6.855  65.467  1.00  0.00    -0.124 OA 
HETATM   12  OXT UNL     1      -7.375   6.196  67.150  1.00  0.00    -0.074 OA 
ENDROOT
BRANCH   4  13
HETATM   13  C   UNL     1      -8.579   7.186  69.490  1.00  0.00    -0.134 C  
BRANCH  13  14
HETATM   14  S   UNL     1     -10.228   6.379  69.562  1.00  0.00    -0.203 SA 
BRANCH  14  15
HETATM   15  C   UNL     1     -11.238   7.382  70.633  1.00  0.00    -0.270 C  
HETATM   16  N   UNL     1     -11.635   8.493  70.119  1.00  0.00    -0.461 N  
HETATM   17  H   UNL     1     -11.478   8.714  69.136  1.00  0.00     0.000 HD 
HETATM   18  C   UNL     1     -10.869   5.834  72.627  1.00  0.00    -0.254 C  
HETATM   19  C   UNL     1     -12.283   9.371  70.962  1.00  0.00    -0.279 C  
HETATM   20  N   UNL     1     -11.450   6.984  71.956  1.00  0.00    -0.262 NA 
HETATM   21  C   UNL     1     -12.891   8.901  72.283  1.00  0.00    -0.411 C  
HETATM   22  O   UNL     1     -12.321  10.587  70.772  1.00  0.00    -0.315 OA 
HETATM   23  H   UNL     1     -12.317   7.594  73.790  1.00  0.00     0.000 HD 
HETATM   24  N   UNL     1     -12.237   7.811  72.797  1.00  0.00    -0.076 N  
HETATM   25  O   UNL     1     -13.817   9.462  72.846  1.00  0.00    -0.274 OA 
ENDBRANCH  14  15
ENDBRANCH  13  14
ENDBRANCH   4  13
BRANCH   6  26
HETATM   26  N   UNL     1     -10.532  11.569  65.402  1.00  0.00    -0.272 N  
HETATM   27  O   UNL     1     -12.600  12.504  65.593  1.00  0.00    -0.612 OA 
HETATM   28  C   UNL     1     -11.408  12.553  65.890  1.00  0.00    -0.340 C  
HETATM   29  H   UNL     1     -10.990  10.910  64.773  1.00  0.00     0.000 HD 
BRANCH  28  30
HETATM   30  C   UNL     1     -10.921  13.784  66.606  1.00  0.00    -0.296 C  
BRANCH  30  31
HETATM   31  C   UNL     1     -11.510  14.318  67.840  1.00  0.00    -0.315 A  
HETATM   32  H2  UNL     1     -12.683  14.246  71.955  1.00  0.00     0.000 HD 
HETATM   33  C   UNL     1     -11.298  15.629  68.237  1.00  0.00    -0.356 A  
HETATM   34  H1  UNL     1     -12.885  12.675  71.178  1.00  0.00     0.000 HD 
HETATM   35  N   UNL     1     -12.018  13.497  68.861  1.00  0.00    -0.349 NA 
HETATM   36  N   UNL     1     -12.617  13.658  71.124  1.00  0.00    -0.365 NA 
HETATM   37  S   UNL     1     -11.728  15.840  69.878  1.00  0.00    -0.347 SA 
HETATM   38  C   UNL     1     -12.180  14.184  69.970  1.00  0.00    -0.357 A  
ENDBRANCH  30  31
BRANCH  30  39
HETATM   39  N   UNL     1     -10.082  14.619  66.089  1.00  0.00    -0.286 NA 
HETATM   40  H   UNL     1      -9.244  14.867  66.615  1.00  0.00     0.000 HD 
BRANCH  39  41
HETATM   41  O   UNL     1     -10.287  15.193  64.834  1.00  0.00    -0.371 OA 
HETATM   42  C   UNL     1     -11.468  15.902  64.513  1.00  0.00    -0.283 C  
ENDBRANCH  39  41
ENDBRANCH  30  39
ENDBRANCH  28  30
ENDBRANCH   6  26
TORSDOF 8
ENDMDL
MODEL       88
REMARK 921   NORMALIZED FREE ENERGY PREDICTED BY IDOCK:   -6.45 KCAL/MOL
REMARK 922        TOTAL FREE ENERGY PREDICTED BY IDOCK:  -10.73 KCAL/MOL
REMARK 923 INTER-LIGAND FREE ENERGY PREDICTED BY IDOCK:   -9.19 KCAL/MOL
REMARK 924 INTRA-LIGAND FREE ENERGY PREDICTED BY IDOCK:   -1.54 KCAL/MOL
REMARK 927      BINDING AFFINITY PREDICTED BY RF-SCORE:    0.00 PKD
ROOT
HETATM    1  C   UNL     1     -10.556  10.440  66.371  1.00  0.00    -0.127 C  
HETATM    2  S   UNL     1     -10.272  10.642  68.109  1.00  0.00    -0.177 SA 
HETATM    3  C   UNL     1     -10.898  12.325  68.470  1.00  0.00    -0.237 C  
HETATM    4  C   UNL     1     -11.550  13.120  67.374  1.00  0.00    -0.403 C  
HETATM    5  CA  UNL     1     -11.684  12.686  66.084  1.00  0.00    -0.406 C  
HETATM    6  CA  UNL     1      -9.575  10.181  65.149  1.00  0.00    -0.292 C  
HETATM    7  C   UNL     1     -10.592  11.124  64.432  1.00  0.00    -0.343 C  
HETATM    8  N   UNL     1     -11.097  11.537  65.625  1.00  0.00    -0.246 N  
HETATM    9  C   UNL     1     -12.501  13.507  65.121  1.00  0.00    -0.451 C  
HETATM   10  O   UNL     1     -10.678  11.546  63.304  1.00  0.00    -0.362 OA 
HETATM   11  O   UNL     1     -12.066  13.598  63.848  1.00  0.00    -0.488 OA 
HETATM   12  OXT UNL     1     -13.535  14.063  65.455  1.00  0.00    -0.677 OA 
ENDROOT
BRANCH   4  13
HETATM   13  C   UNL     1     -12.018  14.553  67.771  1.00  0.00    -0.310 C  
BRANCH  13  14
HETATM   14  S   UNL     1     -10.987  15.597  68.878  1.00  0.00    -0.287 SA 
BRANCH  14  15
HETATM   15  C   UNL     1     -10.141  16.764  67.833  1.00  0.00    -0.284 C  
HETATM   16  N   UNL     1     -10.673  17.935  67.787  1.00  0.00    -0.382 N  
HETATM   17  H   UNL     1     -11.446  18.195  68.399  1.00  0.00     0.000 HD 
HETATM   18  C   UNL     1      -8.539  14.988  66.945  1.00  0.00    -0.249 C  
HETATM   19  C   UNL     1     -10.146  18.821  66.870  1.00  0.00    -0.358 C  
HETATM   20  N   UNL     1      -9.054  16.341  67.062  1.00  0.00    -0.201 NA 
HETATM   21  C   UNL     1      -8.759  18.608  66.266  1.00  0.00    -0.215 C  
HETATM   22  O   UNL     1     -10.783  19.763  66.398  1.00  0.00    -0.464 OA 
HETATM   23  H   UNL     1      -7.686  16.972  65.573  1.00  0.00     0.000 HD 
HETATM   24  N   UNL     1      -8.411  17.283  66.219  1.00  0.00    -0.261 N  
HETATM   25  O   UNL     1      -8.061  19.507  65.826  1.00  0.00    -0.424 OA 
ENDBRANCH  14  15
ENDBRANCH  13  14
ENDBRANCH   4  13
BRANCH   6  26
HETATM   26  N   UNL     1      -8.125  10.566  64.823  1.00  0.00    -0.303 N  
HETATM   27  O   UNL     1      -5.850  10.660  64.833  1.00  0.00    -0.126 OA 
HETATM   28  C   UNL     1      -6.866  10.092  65.228  1.00  0.00    -0.137 C  
HETATM   29  H   UNL     1      -8.061  11.342  64.164  1.00  0.00     0.000 HD 
BRANCH  28  30
HETATM   30  C   UNL     1      -6.693   8.796  65.972  1.00  0.00    -0.068 C  
BRANCH  30  31
HETATM   31  C   UNL     1      -6.795   8.651  67.430  1.00  0.00    -0.071 A  
HETATM   32  H2  UNL     1      -7.048  10.012  71.479  1.00  0.00     0.000 HD 
HETATM   33  C   UNL     1      -7.641   7.718  68.008  1.00  0.00    -0.120 A  
HETATM   34  H1  UNL     1      -5.984  11.025  70.503  1.00  0.00     0.000 HD 
HETATM   35  N   UNL     1      -6.341   9.631  68.328  1.00  0.00    -0.055 NA 
HETATM   36  N   UNL     1      -6.602  10.217  70.585  1.00  0.00    -0.310 NA 
HETATM   37  S   UNL     1      -7.873   8.062  69.667  1.00  0.00    -0.106 SA 
HETATM   38  C   UNL     1      -6.832   9.423  69.529  1.00  0.00    -0.049 A  
ENDBRANCH  30  31
BRANCH  30  39
HETATM   39  N   UNL     1      -6.217   7.725  65.429  1.00  0.00    -0.038 NA 
HETATM   40  H   UNL     1      -5.222   7.523  65.523  1.00  0.00     0.000 HD 
BRANCH  39  41
HETATM   41  O   UNL     1      -7.023   6.836  64.717  1.00  0.00    -0.051 OA 
HETATM   42  C   UNL     1      -7.600   7.173  63.471  1.00  0.00    -0.109 C  
ENDBRANCH  39  41
ENDBRANCH  30  39
ENDBRANCH  28  30
ENDBRANCH   6  26
TORSDOF 8
ENDMDL
MODEL       89
REMARK 921   NORMALIZED FREE ENERGY PREDICTED BY IDOCK:   -6.44 KCAL/MOL
REMARK 922        TOTAL FREE ENERGY PREDICTED BY IDOCK:  -10.72 KCAL/MOL
REMARK 923 INTER-LIGAND FREE ENERGY PREDICTED BY IDOCK:   -9.03 KCAL/MOL
REMARK 924 INTRA-LIGAND FREE ENERGY PREDICTED BY IDOCK:   -1.69 KCAL/MOL
REMARK 927      BINDING AFFINITY PREDICTED BY RF-SCORE:    0.00 PKD
ROOT
HETATM    1  C   UNL     1     -11.641  12.698  70.038  1.00  0.00    -0.123 C  
HETATM    2  S   UNL     1     -13.134  12.834  70.983  1.00  0.00     0.137 SA 
HETATM    3  C   UNL     1     -13.317  11.188  71.765  1.00  0.00    -0.274 C  
HETATM    4  C   UNL     1     -12.247  10.152  71.565  1.00  0.00    -0.473 C  
HETATM    5  CA  UNL     1     -11.133  10.337  70.793  1.00  0.00    -0.227 C  
HETATM    6  CA  UNL     1     -11.342  12.831  68.483  1.00  0.00    -0.291 C  
HETATM    7  C   UNL     1     -10.338  11.683  68.813  1.00  0.00    -0.195 C  
HETATM    8  N   UNL     1     -10.958  11.439  69.998  1.00  0.00     0.013 N  
HETATM    9  C   UNL     1     -10.056   9.284  70.803  1.00  0.00    -0.291 C  
HETATM   10  O   UNL     1      -9.542  11.062  68.150  1.00  0.00    -0.160 OA 
HETATM   11  O   UNL     1      -9.431   9.013  69.641  1.00  0.00    -0.162 OA 
HETATM   12  OXT UNL     1      -9.731   8.698  71.824  1.00  0.00    -0.236 OA 
ENDROOT
BRANCH   4  13
HETATM   13  C   UNL     1     -12.511   8.773  72.241  1.00  0.00    -0.386 C  
BRANCH  13  14
HETATM   14  S   UNL     1     -13.184   7.370  71.265  1.00  0.00    -0.203 SA 
BRANCH  14  15
HETATM   15  C   UNL     1     -11.786   6.408  70.726  1.00  0.00    -0.253 C  
HETATM   16  N   UNL     1     -11.519   6.497  69.470  1.00  0.00    -0.606 N  
HETATM   17  H   UNL     1     -12.002   7.163  68.866  1.00  0.00     0.000 HD 
HETATM   18  C   UNL     1     -11.527   5.289  73.003  1.00  0.00    -0.269 C  
HETATM   19  C   UNL     1     -10.548   5.650  68.979  1.00  0.00    -0.246 C  
HETATM   20  N   UNL     1     -11.143   5.557  71.629  1.00  0.00    -0.179 NA 
HETATM   21  C   UNL     1      -9.543   4.972  69.909  1.00  0.00    -0.176 C  
HETATM   22  O   UNL     1     -10.491   5.297  67.801  1.00  0.00    -0.168 OA 
HETATM   23  H   UNL     1      -9.631   4.080  71.782  1.00  0.00     0.000 HD 
HETATM   24  N   UNL     1     -10.047   4.783  71.170  1.00  0.00    -0.202 N  
HETATM   25  O   UNL     1      -8.437   4.591  69.559  1.00  0.00    -0.076 OA 
ENDBRANCH  14  15
ENDBRANCH  13  14
ENDBRANCH   4  13
BRANCH   6  26
HETATM   26  N   UNL     1     -12.131  12.538  67.200  1.00  0.00    -0.199 N  
HETATM   27  O   UNL     1     -12.717  12.350  65.007  1.00  0.00    -0.631 OA 
HETATM   28  C   UNL     1     -11.834  12.589  65.828  1.00  0.00    -0.437 C  
HETATM   29  H   UNL     1     -13.088  12.238  67.384  1.00  0.00     0.000 HD 
BRANCH  28  30
HETATM   30  C   UNL     1     -10.428  12.736  65.311  1.00  0.00    -0.292 C  
BRANCH  30  31
HETATM   31  C   UNL     1      -9.712  11.713  64.538  1.00  0.00    -0.178 A  
HETATM   32  H2  UNL     1      -8.201   7.798  63.704  1.00  0.00     0.000 HD 
HETATM   33  C   UNL     1      -9.829  11.633  63.159  1.00  0.00    -0.382 A  
HETATM   34  H1  UNL     1      -8.139   8.182  65.425  1.00  0.00     0.000 HD 
HETATM   35  N   UNL     1      -9.159  10.562  65.123  1.00  0.00    -0.186 NA 
HETATM   36  N   UNL     1      -8.364   8.454  64.468  1.00  0.00    -0.150 NA 
HETATM   37  S   UNL     1      -9.252  10.127  62.592  1.00  0.00    -0.297 SA 
HETATM   38  C   UNL     1      -8.872   9.668  64.204  1.00  0.00    -0.226 A  
ENDBRANCH  30  31
BRANCH  30  39
HETATM   39  N   UNL     1      -9.631  13.681  65.685  1.00  0.00    -0.506 NA 
HETATM   40  H   UNL     1      -8.634  13.483  65.771  1.00  0.00     0.000 HD 
BRANCH  39  41
HETATM   41  O   UNL     1     -10.091  14.966  65.976  1.00  0.00    -0.277 OA 
HETATM   42  C   UNL     1      -9.630  15.698  67.095  1.00  0.00    -0.218 C  
ENDBRANCH  39  41
ENDBRANCH  30  39
ENDBRANCH  28  30
ENDBRANCH   6  26
TORSDOF 8
ENDMDL
MODEL       90
REMARK 921   NORMALIZED FREE ENERGY PREDICTED BY IDOCK:   -6.44 KCAL/MOL
REMARK 922        TOTAL FREE ENERGY PREDICTED BY IDOCK:  -10.71 KCAL/MOL
REMARK 923 INTER-LIGAND FREE ENERGY PREDICTED BY IDOCK:   -9.12 KCAL/MOL
REMARK 924 INTRA-LIGAND FREE ENERGY PREDICTED BY IDOCK:   -1.59 KCAL/MOL
REMARK 927      BINDING AFFINITY PREDICTED BY RF-SCORE:    0.00 PKD
ROOT
HETATM    1  C   UNL     1      -9.249   7.816  70.547  1.00  0.00    -0.162 C  
HETATM    2  S   UNL     1      -8.448   9.013  69.515  1.00  0.00    -0.132 SA 
HETATM    3  C   UNL     1      -9.731  10.289  69.234  1.00  0.00    -0.225 C  
HETATM    4  C   UNL     1     -11.061  10.161  69.920  1.00  0.00    -0.346 C  
HETATM    5  CA  UNL     1     -11.411   9.118  70.732  1.00  0.00    -0.280 C  
HETATM    6  CA  UNL     1      -9.577   6.275  70.344  1.00  0.00    -0.165 C  
HETATM    7  C   UNL     1     -10.869   6.684  71.117  1.00  0.00    -0.241 C  
HETATM    8  N   UNL     1     -10.631   8.002  70.880  1.00  0.00    -0.211 N  
HETATM    9  C   UNL     1     -12.711   9.187  71.489  1.00  0.00    -0.341 C  
HETATM   10  O   UNL     1     -11.839   6.072  71.493  1.00  0.00    -0.215 OA 
HETATM   11  O   UNL     1     -13.421   8.050  71.623  1.00  0.00    -0.339 OA 
HETATM   12  OXT UNL     1     -13.116  10.224  71.990  1.00  0.00    -0.447 OA 
ENDROOT
BRANCH   4  13
HETATM   13  C   UNL     1     -12.098  11.278  69.590  1.00  0.00    -0.322 C  
BRANCH  13  14
HETATM   14  S   UNL     1     -11.537  12.933  69.023  1.00  0.00    -0.339 SA 
BRANCH  14  15
HETATM   15  C   UNL     1     -11.821  14.056  70.375  1.00  0.00    -0.286 C  
HETATM   16  N   UNL     1     -12.729  13.683  71.207  1.00  0.00    -0.357 N  
HETATM   17  H   UNL     1     -13.158  12.760  71.152  1.00  0.00     0.000 HD 
HETATM   18  C   UNL     1     -10.262  15.820  69.392  1.00  0.00    -0.262 C  
HETATM   19  C   UNL     1     -13.094  14.594  72.178  1.00  0.00    -0.347 C  
HETATM   20  N   UNL     1     -11.153  15.284  70.406  1.00  0.00    -0.287 NA 
HETATM   21  C   UNL     1     -12.195  15.776  72.535  1.00  0.00    -0.472 C  
HETATM   22  O   UNL     1     -14.192  14.585  72.734  1.00  0.00    -0.458 OA 
HETATM   23  H   UNL     1     -11.019  17.113  71.467  1.00  0.00     0.000 HD 
HETATM   24  N   UNL     1     -11.414  16.173  71.479  1.00  0.00    -0.399 N  
HETATM   25  O   UNL     1     -12.207  16.341  73.617  1.00  0.00    -0.493 OA 
ENDBRANCH  14  15
ENDBRANCH  13  14
ENDBRANCH   4  13
BRANCH   6  26
HETATM   26  N   UNL     1      -9.902   5.387  69.134  1.00  0.00    -0.162 N  
HETATM   27  O   UNL     1     -10.090   4.604  67.004  1.00  0.00    -0.203 OA 
HETATM   28  C   UNL     1      -9.632   5.460  67.758  1.00  0.00    -0.128 C  
HETATM   29  H   UNL     1     -10.435   4.555  69.388  1.00  0.00     0.000 HD 
BRANCH  28  30
HETATM   30  C   UNL     1      -8.641   6.435  67.180  1.00  0.00    -0.111 C  
BRANCH  30  31
HETATM   31  C   UNL     1      -8.973   7.481  66.204  1.00  0.00    -0.153 A  
HETATM   32  H2  UNL     1     -10.345  11.323  64.913  1.00  0.00     0.000 HD 
HETATM   33  C   UNL     1      -8.154   7.743  65.117  1.00  0.00    -0.137 A  
HETATM   34  H1  UNL     1     -11.257  10.722  66.299  1.00  0.00     0.000 HD 
HETATM   35  N   UNL     1      -9.908   8.496  66.461  1.00  0.00    -0.259 NA 
HETATM   36  N   UNL     1     -10.522  10.593  65.603  1.00  0.00    -0.207 NA 
HETATM   37  S   UNL     1      -8.547   9.252  64.416  1.00  0.00    -0.179 SA 
HETATM   38  C   UNL     1      -9.786   9.471  65.588  1.00  0.00    -0.290 A  
ENDBRANCH  30  31
BRANCH  30  39
HETATM   39  N   UNL     1      -7.363   6.310  67.314  1.00  0.00    -0.082 NA 
HETATM   40  H   UNL     1      -6.748   6.757  66.635  1.00  0.00     0.000 HD 
BRANCH  39  41
HETATM   41  O   UNL     1      -6.797   5.580  68.360  1.00  0.00    -0.056 OA 
HETATM   42  C   UNL     1      -5.965   6.179  69.335  1.00  0.00    -0.024 C  
ENDBRANCH  39  41
ENDBRANCH  30  39
ENDBRANCH  28  30
ENDBRANCH   6  26
TORSDOF 8
ENDMDL
MODEL       91
REMARK 921   NORMALIZED FREE ENERGY PREDICTED BY IDOCK:   -6.42 KCAL/MOL
REMARK 922        TOTAL FREE ENERGY PREDICTED BY IDOCK:  -10.69 KCAL/MOL
REMARK 923 INTER-LIGAND FREE ENERGY PREDICTED BY IDOCK:   -8.84 KCAL/MOL
REMARK 924 INTRA-LIGAND FREE ENERGY PREDICTED BY IDOCK:   -1.85 KCAL/MOL
REMARK 927      BINDING AFFINITY PREDICTED BY RF-SCORE:    0.00 PKD
ROOT
HETATM    1  C   UNL     1      -8.825   9.350  68.424  1.00  0.00    -0.128 C  
HETATM    2  S   UNL     1     -10.485   9.484  67.817  1.00  0.00    -0.259 SA 
HETATM    3  C   UNL     1     -10.755  11.288  67.654  1.00  0.00    -0.226 C  
HETATM    4  C   UNL     1      -9.623  12.233  67.946  1.00  0.00    -0.203 C  
HETATM    5  CA  UNL     1      -8.383  11.840  68.369  1.00  0.00    -0.153 C  
HETATM    6  CA  UNL     1      -8.219   8.735  69.757  1.00  0.00    -0.117 C  
HETATM    7  C   UNL     1      -7.256   9.954  69.608  1.00  0.00    -0.108 C  
HETATM    8  N   UNL     1      -8.095  10.548  68.718  1.00  0.00    -0.122 N  
HETATM    9  C   UNL     1      -7.288  12.869  68.469  1.00  0.00    -0.115 C  
HETATM   10  O   UNL     1      -6.316  10.351  70.252  1.00  0.00    -0.103 OA 
HETATM   11  O   UNL     1      -6.426  12.771  69.500  1.00  0.00    -0.117 OA 
HETATM   12  OXT UNL     1      -7.155  13.759  67.643  1.00  0.00    -0.154 OA 
ENDROOT
BRANCH   4  13
HETATM   13  C   UNL     1      -9.962  13.749  67.813  1.00  0.00    -0.242 C  
BRANCH  13  14
HETATM   14  S   UNL     1     -11.685  14.342  68.042  1.00  0.00    -0.333 SA 
BRANCH  14  15
HETATM   15  C   UNL     1     -11.899  14.619  69.788  1.00  0.00    -0.316 C  
HETATM   16  N   UNL     1     -12.516  13.678  70.413  1.00  0.00    -0.318 N  
HETATM   17  H   UNL     1     -12.750  12.796  69.957  1.00  0.00     0.000 HD 
HETATM   18  C   UNL     1     -10.975  16.992  69.647  1.00  0.00     0.132 C  
HETATM   19  C   UNL     1     -12.845  13.920  71.731  1.00  0.00    -0.335 C  
HETATM   20  N   UNL     1     -11.504  15.836  70.349  1.00  0.00    -0.333 NA 
HETATM   21  C   UNL     1     -12.150  15.019  72.534  1.00  0.00    -0.343 C  
HETATM   22  O   UNL     1     -13.776  13.358  72.309  1.00  0.00    -0.536 OA 
HETATM   23  H   UNL     1     -11.523  16.959  72.146  1.00  0.00     0.000 HD 
HETATM   24  N   UNL     1     -11.707  16.043  71.737  1.00  0.00    -0.487 N  
HETATM   25  O   UNL     1     -12.048  15.015  73.750  1.00  0.00    -0.478 OA 
ENDBRANCH  14  15
ENDBRANCH  13  14
ENDBRANCH   4  13
BRANCH   6  26
HETATM   26  N   UNL     1      -8.714   8.582  71.202  1.00  0.00    -0.157 N  
HETATM   27  O   UNL     1     -10.037   8.186  73.013  1.00  0.00    -0.297 OA 
HETATM   28  C   UNL     1      -9.907   8.131  71.792  1.00  0.00    -0.194 C  
HETATM   29  H   UNL     1      -8.020   8.875  71.890  1.00  0.00     0.000 HD 
BRANCH  28  30
HETATM   30  C   UNL     1     -10.966   7.399  71.013  1.00  0.00    -0.251 C  
BRANCH  30  31
HETATM   31  C   UNL     1     -10.708   6.268  70.113  1.00  0.00    -0.286 A  
HETATM   32  H2  UNL     1      -9.918   4.367  66.362  1.00  0.00     0.000 HD 
HETATM   33  C   UNL     1      -9.858   5.235  70.473  1.00  0.00    -0.207 A  
HETATM   34  H1  UNL     1     -11.025   5.730  66.196  1.00  0.00     0.000 HD 
HETATM   35  N   UNL     1     -10.999   6.305  68.739  1.00  0.00    -0.330 NA 
HETATM   36  N   UNL     1     -10.450   5.128  66.785  1.00  0.00    -0.263 NA 
HETATM   37  S   UNL     1      -9.419   4.310  69.103  1.00  0.00    -0.177 SA 
HETATM   38  C   UNL     1     -10.388   5.326  68.111  1.00  0.00    -0.114 A  
ENDBRANCH  30  31
BRANCH  30  39
HETATM   39  N   UNL     1     -12.176   7.832  70.884  1.00  0.00    -0.491 NA 
HETATM   40  H   UNL     1     -12.936   7.157  70.796  1.00  0.00     0.000 HD 
BRANCH  39  41
HETATM   41  O   UNL     1     -12.476   9.194  70.861  1.00  0.00    -0.230 OA 
HETATM   42  C   UNL     1     -13.137   9.840  71.932  1.00  0.00    -0.446 C  
ENDBRANCH  39  41
ENDBRANCH  30  39
ENDBRANCH  28  30
ENDBRANCH   6  26
TORSDOF 8
ENDMDL
MODEL       92
REMARK 921   NORMALIZED FREE ENERGY PREDICTED BY IDOCK:   -6.41 KCAL/MOL
REMARK 922        TOTAL FREE ENERGY PREDICTED BY IDOCK:  -10.67 KCAL/MOL
REMARK 923 INTER-LIGAND FREE ENERGY PREDICTED BY IDOCK:   -9.62 KCAL/MOL
REMARK 924 INTRA-LIGAND FREE ENERGY PREDICTED BY IDOCK:   -1.05 KCAL/MOL
REMARK 927      BINDING AFFINITY PREDICTED BY RF-SCORE:    0.00 PKD
ROOT
HETATM    1  C   UNL     1     -10.608  14.887  66.408  1.00  0.00    -0.307 C  
HETATM    2  S   UNL     1     -10.786  13.476  65.350  1.00  0.00    -0.317 SA 
HETATM    3  C   UNL     1     -11.301  12.133  66.482  1.00  0.00    -0.350 C  
HETATM    4  C   UNL     1     -11.543  12.442  67.933  1.00  0.00    -0.415 C  
HETATM    5  CA  UNL     1     -11.368  13.677  68.495  1.00  0.00    -0.290 C  
HETATM    6  CA  UNL     1      -9.366  15.814  66.757  1.00  0.00    -0.242 C  
HETATM    7  C   UNL     1     -10.043  15.797  68.163  1.00  0.00    -0.220 C  
HETATM    8  N   UNL     1     -10.805  14.726  67.818  1.00  0.00    -0.272 N  
HETATM    9  C   UNL     1     -11.799  13.896  69.921  1.00  0.00    -0.328 C  
HETATM   10  O   UNL     1      -9.774  16.317  69.219  1.00  0.00    -0.251 OA 
HETATM   11  O   UNL     1     -11.029  14.683  70.697  1.00  0.00    -0.071 OA 
HETATM   12  OXT UNL     1     -12.820  13.401  70.375  1.00  0.00    -0.122 OA 
ENDROOT
BRANCH   4  13
HETATM   13  C   UNL     1     -11.944  11.227  68.822  1.00  0.00    -0.282 C  
BRANCH  13  14
HETATM   14  S   UNL     1     -10.669  10.305  69.771  1.00  0.00    -0.295 SA 
BRANCH  14  15
HETATM   15  C   UNL     1     -10.593   8.672  69.065  1.00  0.00    -0.160 C  
HETATM   16  N   UNL     1     -11.192   7.759  69.747  1.00  0.00    -0.450 N  
HETATM   17  H   UNL     1     -11.764   7.987  70.560  1.00  0.00     0.000 HD 
HETATM   18  C   UNL     1      -8.989   9.412  67.225  1.00  0.00    -0.130 C  
HETATM   19  C   UNL     1     -11.024   6.457  69.323  1.00  0.00    -0.356 C  
HETATM   20  N   UNL     1      -9.828   8.450  67.916  1.00  0.00    -0.162 NA 
HETATM   21  C   UNL     1     -10.545   6.137  67.908  1.00  0.00    -0.263 C  
HETATM   22  O   UNL     1     -11.137   5.484  70.070  1.00  0.00    -0.256 OA 
HETATM   23  H   UNL     1      -9.130   6.931  66.614  1.00  0.00     0.000 HD 
HETATM   24  N   UNL     1      -9.763   7.136  67.387  1.00  0.00    -0.141 N  
HETATM   25  O   UNL     1     -10.784   5.092  67.326  1.00  0.00    -0.097 OA 
ENDBRANCH  14  15
ENDBRANCH  13  14
ENDBRANCH   4  13
BRANCH   6  26
HETATM   26  N   UNL     1      -7.849  15.599  66.860  1.00  0.00    -0.233 N  
HETATM   27  O   UNL     1      -5.614  15.972  67.091  1.00  0.00    -0.319 OA 
HETATM   28  C   UNL     1      -6.754  16.431  67.143  1.00  0.00    -0.203 C  
HETATM   29  H   UNL     1      -7.575  14.633  66.682  1.00  0.00     0.000 HD 
BRANCH  28  30
HETATM   30  C   UNL     1      -6.918  17.819  67.702  1.00  0.00    -0.181 C  
BRANCH  30  31
HETATM   31  C   UNL     1      -8.057  18.702  67.420  1.00  0.00    -0.247 A  
HETATM   32  H2  UNL     1     -11.607  19.966  65.393  1.00  0.00     0.000 HD 
HETATM   33  C   UNL     1      -8.795  19.281  68.440  1.00  0.00    -0.352 A  
HETATM   34  H1  UNL     1     -10.452  19.205  64.299  1.00  0.00     0.000 HD 
HETATM   35  N   UNL     1      -8.691  18.753  66.168  1.00  0.00    -0.476 NA 
HETATM   36  N   UNL     1     -10.703  19.521  65.236  1.00  0.00    -0.371 NA 
HETATM   37  S   UNL     1     -10.278  19.887  67.842  1.00  0.00    -0.416 SA 
HETATM   38  C   UNL     1      -9.855  19.355  66.262  1.00  0.00    -0.403 A  
ENDBRANCH  30  31
BRANCH  30  39
HETATM   39  N   UNL     1      -5.969  18.457  68.303  1.00  0.00    -0.184 NA 
HETATM   40  H   UNL     1      -5.677  18.150  69.230  1.00  0.00     0.000 HD 
BRANCH  39  41
HETATM   41  O   UNL     1      -5.333  19.555  67.723  1.00  0.00    -0.174 OA 
HETATM   42  C   UNL     1      -5.228  20.802  68.382  1.00  0.00    -0.280 C  
ENDBRANCH  39  41
ENDBRANCH  30  39
ENDBRANCH  28  30
ENDBRANCH   6  26
TORSDOF 8
ENDMDL
MODEL       93
REMARK 921   NORMALIZED FREE ENERGY PREDICTED BY IDOCK:   -6.41 KCAL/MOL
REMARK 922        TOTAL FREE ENERGY PREDICTED BY IDOCK:  -10.67 KCAL/MOL
REMARK 923 INTER-LIGAND FREE ENERGY PREDICTED BY IDOCK:   -8.98 KCAL/MOL
REMARK 924 INTRA-LIGAND FREE ENERGY PREDICTED BY IDOCK:   -1.68 KCAL/MOL
REMARK 927      BINDING AFFINITY PREDICTED BY RF-SCORE:    0.00 PKD
ROOT
HETATM    1  C   UNL     1      -8.788  13.031  66.966  1.00  0.00    -0.212 C  
HETATM    2  S   UNL     1      -7.124  12.963  67.573  1.00  0.00    -0.131 SA 
HETATM    3  C   UNL     1      -7.018  11.334  68.402  1.00  0.00    -0.070 C  
HETATM    4  C   UNL     1      -8.197  10.403  68.354  1.00  0.00    -0.114 C  
HETATM    5  CA  UNL     1      -9.389  10.703  67.753  1.00  0.00    -0.146 C  
HETATM    6  CA  UNL     1      -9.997  14.017  67.263  1.00  0.00    -0.242 C  
HETATM    7  C   UNL     1     -10.809  12.691  67.130  1.00  0.00    -0.253 C  
HETATM    8  N   UNL     1      -9.679  11.948  67.264  1.00  0.00    -0.183 N  
HETATM    9  C   UNL     1     -10.434   9.625  67.631  1.00  0.00    -0.261 C  
HETATM   10  O   UNL     1     -11.986  12.430  67.198  1.00  0.00    -0.528 OA 
HETATM   11  O   UNL     1     -11.724   9.979  67.796  1.00  0.00     0.009 OA 
HETATM   12  OXT UNL     1     -10.146   8.467  67.372  1.00  0.00    -0.195 OA 
ENDROOT
BRANCH   4  13
HETATM   13  C   UNL     1      -8.022   9.056  69.117  1.00  0.00    -0.101 C  
BRANCH  13  14
HETATM   14  S   UNL     1      -8.205   8.989  70.944  1.00  0.00    -0.177 SA 
BRANCH  14  15
HETATM   15  C   UNL     1      -9.950   8.882  71.276  1.00  0.00    -0.288 C  
HETATM   16  N   UNL     1     -10.621   9.944  70.994  1.00  0.00    -0.326 N  
HETATM   17  H   UNL     1     -10.195  10.732  70.507  1.00  0.00     0.000 HD 
HETATM   18  C   UNL     1      -9.718   6.606  72.402  1.00  0.00    -0.154 C  
HETATM   19  C   UNL     1     -11.945   9.964  71.381  1.00  0.00    -0.404 C  
HETATM   20  N   UNL     1     -10.468   7.744  71.901  1.00  0.00    -0.213 NA 
HETATM   21  C   UNL     1     -12.694   8.675  71.715  1.00  0.00    -0.359 C  
HETATM   22  O   UNL     1     -12.572  11.002  71.591  1.00  0.00    -0.358 OA 
HETATM   23  H   UNL     1     -12.237   6.920  72.725  1.00  0.00     0.000 HD 
HETATM   24  N   UNL     1     -11.857   7.692  72.178  1.00  0.00    -0.299 N  
HETATM   25  O   UNL     1     -13.905   8.547  71.631  1.00  0.00    -0.379 OA 
ENDBRANCH  14  15
ENDBRANCH  13  14
ENDBRANCH   4  13
BRANCH   6  26
HETATM   26  N   UNL     1     -10.453  14.837  68.479  1.00  0.00    -0.243 N  
HETATM   27  O   UNL     1     -10.516  16.363  70.168  1.00  0.00    -0.196 OA 
HETATM   28  C   UNL     1      -9.946  15.957  69.157  1.00  0.00    -0.245 C  
HETATM   29  H   UNL     1     -11.320  14.488  68.887  1.00  0.00     0.000 HD 
BRANCH  28  30
HETATM   30  C   UNL     1      -8.841  16.810  68.594  1.00  0.00    -0.255 C  
BRANCH  30  31
HETATM   31  C   UNL     1      -9.049  18.030  67.803  1.00  0.00    -0.262 A  
HETATM   32  H2  UNL     1     -11.103  20.609  65.076  1.00  0.00     0.000 HD 
HETATM   33  C   UNL     1      -8.793  19.286  68.327  1.00  0.00    -0.337 A  
HETATM   34  H1  UNL     1     -11.243  18.912  64.618  1.00  0.00     0.000 HD 
HETATM   35  N   UNL     1      -9.824  18.056  66.632  1.00  0.00    -0.334 NA 
HETATM   36  N   UNL     1     -10.883  19.628  65.249  1.00  0.00    -0.361 NA 
HETATM   37  S   UNL     1      -9.517  20.500  67.365  1.00  0.00    -0.359 SA 
HETATM   38  C   UNL     1     -10.123  19.293  66.302  1.00  0.00    -0.442 A  
ENDBRANCH  30  31
BRANCH  30  39
HETATM   39  N   UNL     1      -7.605  16.436  68.558  1.00  0.00    -0.177 NA 
HETATM   40  H   UNL     1      -7.237  16.026  67.700  1.00  0.00     0.000 HD 
BRANCH  39  41
HETATM   41  O   UNL     1      -6.758  16.575  69.658  1.00  0.00    -0.218 OA 
HETATM   42  C   UNL     1      -5.415  16.998  69.528  1.00  0.00    -0.170 C  
ENDBRANCH  39  41
ENDBRANCH  30  39
ENDBRANCH  28  30
ENDBRANCH   6  26
TORSDOF 8
ENDMDL
MODEL       94
REMARK 921   NORMALIZED FREE ENERGY PREDICTED BY IDOCK:   -6.40 KCAL/MOL
REMARK 922        TOTAL FREE ENERGY PREDICTED BY IDOCK:  -10.65 KCAL/MOL
REMARK 923 INTER-LIGAND FREE ENERGY PREDICTED BY IDOCK:   -9.32 KCAL/MOL
REMARK 924 INTRA-LIGAND FREE ENERGY PREDICTED BY IDOCK:   -1.33 KCAL/MOL
REMARK 927      BINDING AFFINITY PREDICTED BY RF-SCORE:    0.00 PKD
ROOT
HETATM    1  C   UNL     1     -11.237  11.470  67.583  1.00  0.00    -0.281 C  
HETATM    2  S   UNL     1     -11.007  12.306  69.129  1.00  0.00    -0.108 SA 
HETATM    3  C   UNL     1     -10.578  14.020  68.649  1.00  0.00    -0.257 C  
HETATM    4  C   UNL     1     -10.582  14.402  67.195  1.00  0.00    -0.277 C  
HETATM    5  CA  UNL     1     -10.853  13.535  66.173  1.00  0.00    -0.281 C  
HETATM    6  CA  UNL     1     -10.501  10.230  66.916  1.00  0.00    -0.229 C  
HETATM    7  C   UNL     1     -10.744  11.075  65.626  1.00  0.00    -0.148 C  
HETATM    8  N   UNL     1     -11.000  12.187  66.365  1.00  0.00    -0.274 N  
HETATM    9  C   UNL     1     -10.985  14.077  64.774  1.00  0.00    -0.402 C  
HETATM   10  O   UNL     1     -10.496  10.895  64.458  1.00  0.00    -0.346 OA 
HETATM   11  O   UNL     1     -10.492  13.334  63.763  1.00  0.00    -0.232 OA 
HETATM   12  OXT UNL     1     -11.534  15.142  64.538  1.00  0.00    -0.375 OA 
ENDROOT
BRANCH   4  13
HETATM   13  C   UNL     1     -10.170  15.873  66.886  1.00  0.00    -0.277 C  
BRANCH  13  14
HETATM   14  S   UNL     1     -10.524  17.214  68.091  1.00  0.00    -0.379 SA 
BRANCH  14  15
HETATM   15  C   UNL     1      -9.261  18.448  67.865  1.00  0.00    -0.283 C  
HETATM   16  N   UNL     1      -8.285  18.383  68.703  1.00  0.00    -0.315 N  
HETATM   17  H   UNL     1      -8.195  17.609  69.360  1.00  0.00     0.000 HD 
HETATM   18  C   UNL     1     -10.602  19.664  66.069  1.00  0.00    -0.483 C  
HETATM   19  C   UNL     1      -7.367  19.412  68.667  1.00  0.00    -0.340 C  
HETATM   20  N   UNL     1      -9.434  19.448  66.904  1.00  0.00    -0.318 NA 
HETATM   21  C   UNL     1      -7.244  20.325  67.448  1.00  0.00    -0.290 C  
HETATM   22  O   UNL     1      -6.674  19.733  69.633  1.00  0.00    -0.344 OA 
HETATM   23  H   UNL     1      -8.579  21.230  66.141  1.00  0.00     0.000 HD 
HETATM   24  N   UNL     1      -8.425  20.434  66.760  1.00  0.00    -0.245 N  
HETATM   25  O   UNL     1      -6.229  20.933  67.149  1.00  0.00    -0.234 OA 
ENDBRANCH  14  15
ENDBRANCH  13  14
ENDBRANCH   4  13
BRANCH   6  26
HETATM   26  N   UNL     1      -9.074   9.666  66.959  1.00  0.00    -0.134 N  
HETATM   27  O   UNL     1      -7.019   9.015  67.692  1.00  0.00    -0.073 OA 
HETATM   28  C   UNL     1      -8.139   9.431  67.980  1.00  0.00    -0.106 C  
HETATM   29  H   UNL     1      -8.727   9.402  66.038  1.00  0.00     0.000 HD 
BRANCH  28  30
HETATM   30  C   UNL     1      -8.507   9.480  69.439  1.00  0.00    -0.146 C  
BRANCH  30  31
HETATM   31  C   UNL     1      -9.606   8.719  70.048  1.00  0.00    -0.169 A  
HETATM   32  H2  UNL     1     -11.627   5.210  71.431  1.00  0.00     0.000 HD 
HETATM   33  C   UNL     1     -10.267   9.178  71.176  1.00  0.00    -0.314 A  
HETATM   34  H1  UNL     1     -10.710   4.911  69.953  1.00  0.00     0.000 HD 
HETATM   35  N   UNL     1      -9.838   7.361  69.773  1.00  0.00    -0.170 NA 
HETATM   36  N   UNL     1     -11.023   5.552  70.683  1.00  0.00    -0.189 NA 
HETATM   37  S   UNL     1     -11.175   7.921  71.896  1.00  0.00    -0.290 SA 
HETATM   38  C   UNL     1     -10.648   6.840  70.667  1.00  0.00    -0.224 A  
ENDBRANCH  30  31
BRANCH  30  39
HETATM   39  N   UNL     1      -8.039  10.362  70.258  1.00  0.00    -0.377 NA 
HETATM   40  H   UNL     1      -8.602  11.184  70.474  1.00  0.00     0.000 HD 
BRANCH  39  41
HETATM   41  O   UNL     1      -6.787  10.224  70.857  1.00  0.00    -0.339 OA 
HETATM   42  C   UNL     1      -6.300   8.976  71.310  1.00  0.00    -0.075 C  
ENDBRANCH  39  41
ENDBRANCH  30  39
ENDBRANCH  28  30
ENDBRANCH   6  26
TORSDOF 8
ENDMDL
MODEL       95
REMARK 921   NORMALIZED FREE ENERGY PREDICTED BY IDOCK:   -6.39 KCAL/MOL
REMARK 922        TOTAL FREE ENERGY PREDICTED BY IDOCK:  -10.63 KCAL/MOL
REMARK 923 INTER-LIGAND FREE ENERGY PREDICTED BY IDOCK:   -9.50 KCAL/MOL
REMARK 924 INTRA-LIGAND FREE ENERGY PREDICTED BY IDOCK:   -1.14 KCAL/MOL
REMARK 927      BINDING AFFINITY PREDICTED BY RF-SCORE:    0.00 PKD
ROOT
HETATM    1  C   UNL     1     -11.393  13.830  67.493  1.00  0.00    -0.309 C  
HETATM    2  S   UNL     1     -11.538  12.227  66.753  1.00  0.00    -0.345 SA 
HETATM    3  C   UNL     1     -11.847  11.108  68.169  1.00  0.00    -0.164 C  
HETATM    4  C   UNL     1     -11.995  11.687  69.548  1.00  0.00    -0.383 C  
HETATM    5  CA  UNL     1     -11.879  13.019  69.839  1.00  0.00    -0.307 C  
HETATM    6  CA  UNL     1     -10.208  14.888  67.535  1.00  0.00    -0.233 C  
HETATM    7  C   UNL     1     -10.766  15.111  68.975  1.00  0.00    -0.239 C  
HETATM    8  N   UNL     1     -11.461  13.944  68.920  1.00  0.00    -0.279 N  
HETATM    9  C   UNL     1     -12.210  13.491  71.230  1.00  0.00    -0.117 C  
HETATM   10  O   UNL     1     -10.457  15.850  69.879  1.00  0.00    -0.290 OA 
HETATM   11  O   UNL     1     -11.448  14.468  71.760  1.00  0.00    -0.073 OA 
HETATM   12  OXT UNL     1     -13.146  13.033  71.867  1.00  0.00    -0.400 OA 
ENDROOT
BRANCH   4  13
HETATM   13  C   UNL     1     -12.221  10.652  70.691  1.00  0.00    -0.365 C  
BRANCH  13  14
HETATM   14  S   UNL     1     -10.846   9.571  71.254  1.00  0.00    -0.292 SA 
BRANCH  14  15
HETATM   15  C   UNL     1     -10.741   8.233  70.084  1.00  0.00    -0.239 C  
HETATM   16  N   UNL     1     -10.054   8.491  69.027  1.00  0.00    -0.195 N  
HETATM   17  H   UNL     1      -9.518   9.353  68.934  1.00  0.00     0.000 HD 
HETATM   18  C   UNL     1     -12.396   6.800  71.393  1.00  0.00    -0.353 C  
HETATM   19  C   UNL     1     -10.077   7.543  68.024  1.00  0.00    -0.183 C  
HETATM   20  N   UNL     1     -11.466   7.059  70.309  1.00  0.00    -0.300 NA 
HETATM   21  C   UNL     1     -10.506   6.103  68.302  1.00  0.00    -0.232 C  
HETATM   22  O   UNL     1      -9.869   7.807  66.840  1.00  0.00    -0.194 OA 
HETATM   23  H   UNL     1     -11.986   5.197  69.442  1.00  0.00     0.000 HD 
HETATM   24  N   UNL     1     -11.386   6.017  69.351  1.00  0.00    -0.348 N  
HETATM   25  O   UNL     1     -10.152   5.144  67.636  1.00  0.00    -0.168 OA 
ENDBRANCH  14  15
ENDBRANCH  13  14
ENDBRANCH   4  13
BRANCH   6  26
HETATM   26  N   UNL     1      -8.676  14.798  67.532  1.00  0.00    -0.176 N  
HETATM   27  O   UNL     1      -6.475  15.256  67.165  1.00  0.00    -0.299 OA 
HETATM   28  C   UNL     1      -7.641  15.637  67.086  1.00  0.00    -0.223 C  
HETATM   29  H   UNL     1      -8.331  13.933  67.947  1.00  0.00     0.000 HD 
BRANCH  28  30
HETATM   30  C   UNL     1      -7.877  17.070  66.692  1.00  0.00    -0.264 C  
BRANCH  30  31
HETATM   31  C   UNL     1      -8.993  17.895  67.173  1.00  0.00    -0.251 A  
HETATM   32  H2  UNL     1     -10.870  20.922  69.543  1.00  0.00     0.000 HD 
HETATM   33  C   UNL     1      -9.937  18.416  66.302  1.00  0.00    -0.366 A  
HETATM   34  H1  UNL     1      -9.618  20.059  70.437  1.00  0.00     0.000 HD 
HETATM   35  N   UNL     1      -9.005  18.497  68.442  1.00  0.00    -0.316 NA 
HETATM   36  N   UNL     1     -10.156  20.195  69.581  1.00  0.00    -0.019 NA 
HETATM   37  S   UNL     1     -10.838  19.655  67.061  1.00  0.00    -0.283 SA 
HETATM   38  C   UNL     1      -9.932  19.426  68.504  1.00  0.00    -0.434 A  
ENDBRANCH  30  31
BRANCH  30  39
HETATM   39  N   UNL     1      -7.253  17.649  65.721  1.00  0.00    -0.461 NA 
HETATM   40  H   UNL     1      -7.516  17.427  64.761  1.00  0.00     0.000 HD 
BRANCH  39  41
HETATM   41  O   UNL     1      -6.230  18.571  65.944  1.00  0.00    -0.186 OA 
HETATM   42  C   UNL     1      -5.433  19.084  64.894  1.00  0.00    -0.211 C  
ENDBRANCH  39  41
ENDBRANCH  30  39
ENDBRANCH  28  30
ENDBRANCH   6  26
TORSDOF 8
ENDMDL
MODEL       96
REMARK 921   NORMALIZED FREE ENERGY PREDICTED BY IDOCK:   -6.38 KCAL/MOL
REMARK 922        TOTAL FREE ENERGY PREDICTED BY IDOCK:  -10.63 KCAL/MOL
REMARK 923 INTER-LIGAND FREE ENERGY PREDICTED BY IDOCK:   -9.49 KCAL/MOL
REMARK 924 INTRA-LIGAND FREE ENERGY PREDICTED BY IDOCK:   -1.14 KCAL/MOL
REMARK 927      BINDING AFFINITY PREDICTED BY RF-SCORE:    0.00 PKD
ROOT
HETATM    1  C   UNL     1     -11.101  10.946  69.236  1.00  0.00    -0.248 C  
HETATM    2  S   UNL     1      -9.438  10.810  68.641  1.00  0.00    -0.193 SA 
HETATM    3  C   UNL     1      -8.651   9.616  69.786  1.00  0.00    -0.199 C  
HETATM    4  C   UNL     1      -9.480   8.965  70.856  1.00  0.00    -0.295 C  
HETATM    5  CA  UNL     1     -10.806   9.229  71.070  1.00  0.00    -0.314 C  
HETATM    6  CA  UNL     1     -11.943  12.173  69.792  1.00  0.00    -0.302 C  
HETATM    7  C   UNL     1     -12.504  11.063  70.735  1.00  0.00    -0.396 C  
HETATM    8  N   UNL     1     -11.474  10.233  70.422  1.00  0.00    -0.311 N  
HETATM    9  C   UNL     1     -11.564   8.391  72.066  1.00  0.00    -0.351 C  
HETATM   10  O   UNL     1     -13.330  11.063  71.616  1.00  0.00    -0.363 OA 
HETATM   11  O   UNL     1     -12.482   9.008  72.836  1.00  0.00    -0.178 OA 
HETATM   12  OXT UNL     1     -11.383   7.189  72.175  1.00  0.00    -0.249 OA 
ENDROOT
BRANCH   4  13
HETATM   13  C   UNL     1      -8.714   7.991  71.802  1.00  0.00    -0.137 C  
BRANCH  13  14
HETATM   14  S   UNL     1      -7.795   6.556  71.115  1.00  0.00    -0.104 SA 
BRANCH  14  15
HETATM   15  C   UNL     1      -8.668   5.096  71.639  1.00  0.00    -0.133 C  
HETATM   16  N   UNL     1      -9.162   5.157  72.826  1.00  0.00    -0.136 N  
HETATM   17  H   UNL     1      -9.151   6.022  73.366  1.00  0.00     0.000 HD 
HETATM   18  C   UNL     1      -7.982   3.793  69.556  1.00  0.00    -0.054 C  
HETATM   19  C   UNL     1      -9.707   3.995  73.333  1.00  0.00    -0.114 C  
HETATM   20  N   UNL     1      -8.681   3.965  70.817  1.00  0.00    -0.071 NA 
HETATM   21  C   UNL     1     -10.110   2.841  72.416  1.00  0.00    -0.164 C  
HETATM   22  O   UNL     1      -9.802   3.763  74.538  1.00  0.00    -0.118 OA 
HETATM   23  H   UNL     1      -9.296   1.939  70.733  1.00  0.00     0.000 HD 
HETATM   24  N   UNL     1      -9.362   2.805  71.267  1.00  0.00    -0.125 N  
HETATM   25  O   UNL     1     -10.961   2.012  72.695  1.00  0.00    -0.102 OA 
ENDBRANCH  14  15
ENDBRANCH  13  14
ENDBRANCH   4  13
BRANCH   6  26
HETATM   26  N   UNL     1     -11.606  13.454  70.568  1.00  0.00    -0.508 N  
HETATM   27  O   UNL     1     -10.951  15.575  71.077  1.00  0.00    -0.345 OA 
HETATM   28  C   UNL     1     -11.220  14.754  70.202  1.00  0.00    -0.214 C  
HETATM   29  H   UNL     1     -11.680  13.335  71.578  1.00  0.00     0.000 HD 
BRANCH  28  30
HETATM   30  C   UNL     1     -11.305  15.253  68.785  1.00  0.00    -0.308 C  
BRANCH  30  31
HETATM   31  C   UNL     1     -11.174  14.405  67.593  1.00  0.00    -0.313 A  
HETATM   32  H2  UNL     1     -12.458  12.579  63.943  1.00  0.00     0.000 HD 
HETATM   33  C   UNL     1     -10.011  14.388  66.840  1.00  0.00    -0.261 A  
HETATM   34  H1  UNL     1     -13.765  12.701  65.121  1.00  0.00     0.000 HD 
HETATM   35  N   UNL     1     -12.278  13.837  66.936  1.00  0.00    -0.400 NA 
HETATM   36  N   UNL     1     -12.789  12.853  64.868  1.00  0.00    -0.783 NA 
HETATM   37  S   UNL     1     -10.290  13.667  65.315  1.00  0.00    -0.343 SA 
HETATM   38  C   UNL     1     -11.936  13.410  65.741  1.00  0.00    -0.407 A  
ENDBRANCH  30  31
BRANCH  30  39
HETATM   39  N   UNL     1     -11.279  16.506  68.472  1.00  0.00    -0.345 NA 
HETATM   40  H   UNL     1     -12.138  16.955  68.157  1.00  0.00     0.000 HD 
BRANCH  39  41
HETATM   41  O   UNL     1     -10.110  17.264  68.554  1.00  0.00    -0.298 OA 
HETATM   42  C   UNL     1      -9.733  18.179  67.543  1.00  0.00    -0.303 C  
ENDBRANCH  39  41
ENDBRANCH  30  39
ENDBRANCH  28  30
ENDBRANCH   6  26
TORSDOF 8
ENDMDL
MODEL       97
REMARK 921   NORMALIZED FREE ENERGY PREDICTED BY IDOCK:   -6.37 KCAL/MOL
REMARK 922        TOTAL FREE ENERGY PREDICTED BY IDOCK:  -10.61 KCAL/MOL
REMARK 923 INTER-LIGAND FREE ENERGY PREDICTED BY IDOCK:   -8.42 KCAL/MOL
REMARK 924 INTRA-LIGAND FREE ENERGY PREDICTED BY IDOCK:   -2.19 KCAL/MOL
REMARK 927      BINDING AFFINITY PREDICTED BY RF-SCORE:    0.00 PKD
ROOT
HETATM    1  C   UNL     1      -6.579   8.300  66.678  1.00  0.00    -0.056 C  
HETATM    2  S   UNL     1      -6.581   9.241  65.177  1.00  0.00    -0.076 SA 
HETATM    3  C   UNL     1      -6.919  10.955  65.727  1.00  0.00     0.014 C  
HETATM    4  C   UNL     1      -7.036  11.249  67.196  1.00  0.00    -0.114 C  
HETATM    5  CA  UNL     1      -6.942  10.303  68.179  1.00  0.00    -0.074 C  
HETATM    6  CA  UNL     1      -7.477   7.090  67.184  1.00  0.00    -0.095 C  
HETATM    7  C   UNL     1      -7.303   7.834  68.545  1.00  0.00    -0.091 C  
HETATM    8  N   UNL     1      -6.884   8.961  67.912  1.00  0.00    -0.069 N  
HETATM    9  C   UNL     1      -6.913  10.748  69.618  1.00  0.00    -0.134 C  
HETATM   10  O   UNL     1      -7.684   7.607  69.668  1.00  0.00    -0.095 OA 
HETATM   11  O   UNL     1      -7.566   9.992  70.522  1.00  0.00    -0.276 OA 
HETATM   12  OXT UNL     1      -6.308  11.746  69.977  1.00  0.00    -0.150 OA 
ENDROOT
BRANCH   4  13
HETATM   13  C   UNL     1      -7.359  12.729  67.562  1.00  0.00    -0.153 C  
BRANCH  13  14
HETATM   14  S   UNL     1      -9.012  13.186  68.222  1.00  0.00    -0.141 SA 
BRANCH  14  15
HETATM   15  C   UNL     1      -9.746  14.290  67.034  1.00  0.00    -0.253 C  
HETATM   16  N   UNL     1      -8.992  15.263  66.660  1.00  0.00    -0.271 N  
HETATM   17  H   UNL     1      -8.012  15.318  66.938  1.00  0.00     0.000 HD 
HETATM   18  C   UNL     1     -12.021  13.148  67.201  1.00  0.00    -0.341 C  
HETATM   19  C   UNL     1      -9.572  16.230  65.866  1.00  0.00    -0.301 C  
HETATM   20  N   UNL     1     -11.083  14.118  66.664  1.00  0.00    -0.307 NA 
HETATM   21  C   UNL     1     -10.871  15.960  65.108  1.00  0.00    -0.421 C  
HETATM   22  O   UNL     1      -9.159  17.388  65.799  1.00  0.00    -0.517 OA 
HETATM   23  H   UNL     1     -12.652  14.982  65.532  1.00  0.00     0.000 HD 
HETATM   24  N   UNL     1     -11.654  15.025  65.735  1.00  0.00    -0.239 N  
HETATM   25  O   UNL     1     -11.203  16.547  64.091  1.00  0.00    -1.004 OA 
ENDBRANCH  14  15
ENDBRANCH  13  14
ENDBRANCH   4  13
BRANCH   6  26
HETATM   26  N   UNL     1      -8.932   6.655  66.963  1.00  0.00    -0.116 N  
HETATM   27  O   UNL     1     -11.208   6.594  66.992  1.00  0.00    -0.404 OA 
HETATM   28  C   UNL     1     -10.184   7.229  67.236  1.00  0.00    -0.253 C  
HETATM   29  H   UNL     1      -9.006   5.741  66.516  1.00  0.00     0.000 HD 
BRANCH  28  30
HETATM   30  C   UNL     1     -10.341   8.672  67.636  1.00  0.00    -0.254 C  
BRANCH  30  31
HETATM   31  C   UNL     1     -10.755   9.127  68.969  1.00  0.00    -0.153 A  
HETATM   32  H2  UNL     1     -12.948  11.497  71.776  1.00  0.00     0.000 HD 
HETATM   33  C   UNL     1     -10.986   8.233  70.001  1.00  0.00    -0.197 A  
HETATM   34  H1  UNL     1     -12.488  12.419  70.345  1.00  0.00     0.000 HD 
HETATM   35  N   UNL     1     -11.274  10.410  69.209  1.00  0.00    -0.241 NA 
HETATM   36  N   UNL     1     -12.481  11.545  70.871  1.00  0.00    -0.389 NA 
HETATM   37  S   UNL     1     -11.850   8.986  71.270  1.00  0.00    -0.331 SA 
HETATM   38  C   UNL     1     -11.862  10.459  70.383  1.00  0.00    -0.328 A  
ENDBRANCH  30  31
BRANCH  30  39
HETATM   39  N   UNL     1     -10.344   9.645  66.787  1.00  0.00    -0.236 NA 
HETATM   40  H   UNL     1     -10.501  10.595  67.125  1.00  0.00     0.000 HD 
BRANCH  39  41
HETATM   41  O   UNL     1     -10.140   9.438  65.423  1.00  0.00    -0.150 OA 
HETATM   42  C   UNL     1     -10.311  10.469  64.469  1.00  0.00    -0.205 C  
ENDBRANCH  39  41
ENDBRANCH  30  39
ENDBRANCH  28  30
ENDBRANCH   6  26
TORSDOF 8
ENDMDL
MODEL       98
REMARK 921   NORMALIZED FREE ENERGY PREDICTED BY IDOCK:   -6.37 KCAL/MOL
REMARK 922        TOTAL FREE ENERGY PREDICTED BY IDOCK:  -10.61 KCAL/MOL
REMARK 923 INTER-LIGAND FREE ENERGY PREDICTED BY IDOCK:   -8.71 KCAL/MOL
REMARK 924 INTRA-LIGAND FREE ENERGY PREDICTED BY IDOCK:   -1.90 KCAL/MOL
REMARK 927      BINDING AFFINITY PREDICTED BY RF-SCORE:    0.00 PKD
ROOT
HETATM    1  C   UNL     1     -10.720  10.872  67.095  1.00  0.00    -0.270 C  
HETATM    2  S   UNL     1     -11.609  12.140  66.235  1.00  0.00    -0.304 SA 
HETATM    3  C   UNL     1     -10.474  13.577  66.262  1.00  0.00    -0.290 C  
HETATM    4  C   UNL     1      -9.105  13.425  66.862  1.00  0.00    -0.237 C  
HETATM    5  CA  UNL     1      -8.642  12.273  67.438  1.00  0.00    -0.178 C  
HETATM    6  CA  UNL     1     -11.033  10.057  68.423  1.00  0.00    -0.217 C  
HETATM    7  C   UNL     1      -9.489  10.200  68.599  1.00  0.00    -0.164 C  
HETATM    8  N   UNL     1      -9.441  11.184  67.662  1.00  0.00    -0.164 N  
HETATM    9  C   UNL     1      -7.197  12.198  67.857  1.00  0.00    -0.102 C  
HETATM   10  O   UNL     1      -8.712   9.820  69.441  1.00  0.00    -0.146 OA 
HETATM   11  O   UNL     1      -6.907  11.546  69.000  1.00  0.00    -0.090 OA 
HETATM   12  OXT UNL     1      -6.301  12.688  67.188  1.00  0.00    -0.195 OA 
ENDROOT
BRANCH   4  13
HETATM   13  C   UNL     1      -8.227  14.712  66.870  1.00  0.00    -0.076 C  
BRANCH  13  14
HETATM   14  S   UNL     1      -8.227  15.832  68.326  1.00  0.00    -0.147 SA 
BRANCH  14  15
HETATM   15  C   UNL     1      -9.833  15.684  69.081  1.00  0.00    -0.247 C  
HETATM   16  N   UNL     1     -10.046  14.569  69.687  1.00  0.00    -0.424 N  
HETATM   17  H   UNL     1      -9.303  13.882  69.820  1.00  0.00     0.000 HD 
HETATM   18  C   UNL     1     -10.644  17.879  68.066  1.00  0.00    -0.356 C  
HETATM   19  C   UNL     1     -11.327  14.347  70.147  1.00  0.00    -0.165 C  
HETATM   20  N   UNL     1     -10.781  16.695  68.894  1.00  0.00    -0.323 NA 
HETATM   21  C   UNL     1     -12.314  15.498  70.335  1.00  0.00    -0.413 C  
HETATM   22  O   UNL     1     -11.794  13.222  70.328  1.00  0.00    -0.307 OA 
HETATM   23  H   UNL     1     -12.799  17.215  69.274  1.00  0.00     0.000 HD 
HETATM   24  N   UNL     1     -12.061  16.543  69.484  1.00  0.00     0.456 N  
HETATM   25  O   UNL     1     -13.254  15.471  71.113  1.00  0.00    -0.491 OA 
ENDBRANCH  14  15
ENDBRANCH  13  14
ENDBRANCH   4  13
BRANCH   6  26
HETATM   26  N   UNL     1     -11.779  10.360  69.729  1.00  0.00    -0.365 N  
HETATM   27  O   UNL     1     -12.876  10.115  71.710  1.00  0.00    -0.397 OA 
HETATM   28  C   UNL     1     -12.234   9.582  70.807  1.00  0.00    -0.196 C  
HETATM   29  H   UNL     1     -11.994  11.351  69.840  1.00  0.00     0.000 HD 
BRANCH  28  30
HETATM   30  C   UNL     1     -11.807   8.153  71.008  1.00  0.00    -0.260 C  
BRANCH  30  31
HETATM   31  C   UNL     1     -10.841   7.706  72.020  1.00  0.00    -0.238 A  
HETATM   32  H2  UNL     1      -7.571   8.125  74.748  1.00  0.00     0.000 HD 
HETATM   33  C   UNL     1     -11.220   6.888  73.072  1.00  0.00    -0.184 A  
HETATM   34  H1  UNL     1      -7.330   9.061  73.272  1.00  0.00     0.000 HD 
HETATM   35  N   UNL     1      -9.593   8.324  72.209  1.00  0.00    -0.255 NA 
HETATM   36  N   UNL     1      -7.897   8.421  73.828  1.00  0.00    -0.354 NA 
HETATM   37  S   UNL     1     -10.026   6.886  74.296  1.00  0.00    -0.186 SA 
HETATM   38  C   UNL     1      -9.069   7.965  73.359  1.00  0.00    -0.283 A  
ENDBRANCH  30  31
BRANCH  30  39
HETATM   39  N   UNL     1     -12.074   7.209  70.169  1.00  0.00    -0.589 NA 
HETATM   40  H   UNL     1     -13.025   6.843  70.122  1.00  0.00     0.000 HD 
BRANCH  39  41
HETATM   41  O   UNL     1     -11.102   6.674  69.322  1.00  0.00    -0.282 OA 
HETATM   42  C   UNL     1     -10.514   5.409  69.553  1.00  0.00    -0.273 C  
ENDBRANCH  39  41
ENDBRANCH  30  39
ENDBRANCH  28  30
ENDBRANCH   6  26
TORSDOF 8
ENDMDL
MODEL       99
REMARK 921   NORMALIZED FREE ENERGY PREDICTED BY IDOCK:   -6.36 KCAL/MOL
REMARK 922        TOTAL FREE ENERGY PREDICTED BY IDOCK:  -10.60 KCAL/MOL
REMARK 923 INTER-LIGAND FREE ENERGY PREDICTED BY IDOCK:   -9.50 KCAL/MOL
REMARK 924 INTRA-LIGAND FREE ENERGY PREDICTED BY IDOCK:   -1.10 KCAL/MOL
REMARK 927      BINDING AFFINITY PREDICTED BY RF-SCORE:    0.00 PKD
ROOT
HETATM    1  C   UNL     1     -12.120  12.487  65.763  1.00  0.00    -0.378 C  
HETATM    2  S   UNL     1     -12.302  12.639  64.007  1.00  0.00    -0.443 SA 
HETATM    3  C   UNL     1     -10.786  11.862  63.333  1.00  0.00    -0.413 C  
HETATM    4  C   UNL     1      -9.803  11.225  64.274  1.00  0.00    -0.319 C  
HETATM    5  CA  UNL     1      -9.940  11.211  65.635  1.00  0.00    -0.249 C  
HETATM    6  CA  UNL     1     -12.033  13.565  66.927  1.00  0.00    -0.399 C  
HETATM    7  C   UNL     1     -11.016  12.528  67.497  1.00  0.00    -0.251 C  
HETATM    8  N   UNL     1     -10.916  11.914  66.289  1.00  0.00    -0.290 N  
HETATM    9  C   UNL     1      -8.972  10.399  66.456  1.00  0.00    -0.145 C  
HETATM   10  O   UNL     1     -10.354  12.485  68.506  1.00  0.00    -0.232 OA 
HETATM   11  O   UNL     1      -8.567  10.909  67.636  1.00  0.00    -0.123 OA 
HETATM   12  OXT UNL     1      -8.570   9.305  66.093  1.00  0.00    -0.126 OA 
ENDROOT
BRANCH   4  13
HETATM   13  C   UNL     1      -8.529  10.622  63.609  1.00  0.00    -0.077 C  
BRANCH  13  14
HETATM   14  S   UNL     1      -8.656   9.154  62.512  1.00  0.00    -0.207 SA 
BRANCH  14  15
HETATM   15  C   UNL     1      -7.691   7.866  63.273  1.00  0.00    -0.140 C  
HETATM   16  N   UNL     1      -8.378   6.966  63.887  1.00  0.00    -0.346 N  
HETATM   17  H   UNL     1      -9.396   6.939  63.831  1.00  0.00     0.000 HD 
HETATM   18  C   UNL     1      -5.489   9.038  62.744  1.00  0.00    -0.077 C  
HETATM   19  C   UNL     1      -7.669   6.040  64.624  1.00  0.00    -0.099 C  
HETATM   20  N   UNL     1      -6.296   7.948  63.263  1.00  0.00    -0.067 NA 
HETATM   21  C   UNL     1      -6.179   5.806  64.384  1.00  0.00    -0.026 C  
HETATM   22  O   UNL     1      -8.147   5.430  65.581  1.00  0.00    -0.107 OA 
HETATM   23  H   UNL     1      -4.539   7.016  63.992  1.00  0.00     0.000 HD 
HETATM   24  N   UNL     1      -5.550   6.923  63.897  1.00  0.00    -0.031 N  
HETATM   25  O   UNL     1      -5.600   4.764  64.646  1.00  0.00    -0.013 OA 
ENDBRANCH  14  15
ENDBRANCH  13  14
ENDBRANCH   4  13
BRANCH   6  26
HETATM   26  N   UNL     1     -11.498  14.999  67.038  1.00  0.00    -0.323 N  
HETATM   27  O   UNL     1     -10.761  16.982  67.882  1.00  0.00    -0.356 OA 
HETATM   28  C   UNL     1     -11.096  15.820  68.105  1.00  0.00    -0.341 C  
HETATM   29  H   UNL     1     -11.415  15.461  66.133  1.00  0.00     0.000 HD 
BRANCH  28  30
HETATM   30  C   UNL     1     -10.867  15.286  69.493  1.00  0.00    -0.271 C  
BRANCH  30  31
HETATM   31  C   UNL     1     -11.875  15.281  70.561  1.00  0.00    -0.324 A  
HETATM   32  H2  UNL     1     -14.491  13.514  73.449  1.00  0.00     0.000 HD 
HETATM   33  C   UNL     1     -11.831  16.192  71.604  1.00  0.00    -0.487 A  
HETATM   34  H1  UNL     1     -14.383  12.553  71.974  1.00  0.00     0.000 HD 
HETATM   35  N   UNL     1     -12.721  14.187  70.806  1.00  0.00    -0.343 NA 
HETATM   36  N   UNL     1     -14.119  13.380  72.509  1.00  0.00    -0.735 NA 
HETATM   37  S   UNL     1     -12.841  15.688  72.888  1.00  0.00    -0.527 SA 
HETATM   38  C   UNL     1     -13.287  14.294  71.987  1.00  0.00    -0.398 A  
ENDBRANCH  30  31
BRANCH  30  39
HETATM   39  N   UNL     1      -9.698  14.984  69.952  1.00  0.00    -0.466 NA 
HETATM   40  H   UNL     1      -9.630  14.407  70.791  1.00  0.00     0.000 HD 
BRANCH  39  41
HETATM   41  O   UNL     1      -8.526  15.423  69.337  1.00  0.00    -0.244 OA 
HETATM   42  C   UNL     1      -7.995  14.791  68.188  1.00  0.00    -0.129 C  
ENDBRANCH  39  41
ENDBRANCH  30  39
ENDBRANCH  28  30
ENDBRANCH   6  26
TORSDOF 8
ENDMDL
MODEL      100
REMARK 921   NORMALIZED FREE ENERGY PREDICTED BY IDOCK:   -6.36 KCAL/MOL
REMARK 922        TOTAL FREE ENERGY PREDICTED BY IDOCK:  -10.60 KCAL/MOL
REMARK 923 INTER-LIGAND FREE ENERGY PREDICTED BY IDOCK:   -8.22 KCAL/MOL
REMARK 924 INTRA-LIGAND FREE ENERGY PREDICTED BY IDOCK:   -2.37 KCAL/MOL
REMARK 927      BINDING AFFINITY PREDICTED BY RF-SCORE:    0.00 PKD
ROOT
HETATM    1  C   UNL     1      -7.828   8.295  70.855  1.00  0.00    -0.091 C  
HETATM    2  S   UNL     1      -7.360   9.854  70.156  1.00  0.00    -0.160 SA 
HETATM    3  C   UNL     1      -8.944  10.589  69.604  1.00  0.00     0.061 C  
HETATM    4  C   UNL     1     -10.231   9.866  69.887  1.00  0.00    -0.298 C  
HETATM    5  CA  UNL     1     -10.309   8.651  70.510  1.00  0.00    -0.202 C  
HETATM    6  CA  UNL     1      -7.453   6.797  70.481  1.00  0.00    -0.086 C  
HETATM    7  C   UNL     1      -8.941   6.566  70.889  1.00  0.00    -0.147 C  
HETATM    8  N   UNL     1      -9.204   7.896  70.803  1.00  0.00    -0.156 N  
HETATM    9  C   UNL     1     -11.664   8.108  70.881  1.00  0.00    -0.244 C  
HETATM   10  O   UNL     1      -9.642   5.584  70.946  1.00  0.00    -0.161 OA 
HETATM   11  O   UNL     1     -11.868   6.783  70.748  1.00  0.00    -0.361 OA 
HETATM   12  OXT UNL     1     -12.556   8.824  71.309  1.00  0.00    -0.306 OA 
ENDROOT
BRANCH   4  13
HETATM   13  C   UNL     1     -11.521  10.554  69.349  1.00  0.00    -0.262 C  
BRANCH  13  14
HETATM   14  S   UNL     1     -11.449  12.251  68.647  1.00  0.00    -0.332 SA 
BRANCH  14  15
HETATM   15  C   UNL     1     -12.052  13.349  69.912  1.00  0.00    -0.322 C  
HETATM   16  N   UNL     1     -12.648  12.769  70.895  1.00  0.00    -0.311 N  
HETATM   17  H   UNL     1     -12.660  11.754  70.988  1.00  0.00     0.000 HD 
HETATM   18  C   UNL     1     -11.455  15.427  68.559  1.00  0.00    -0.350 C  
HETATM   19  C   UNL     1     -13.269  13.588  71.816  1.00  0.00    -0.404 C  
HETATM   20  N   UNL     1     -11.951  14.732  69.733  1.00  0.00    -0.304 NA 
HETATM   21  C   UNL     1     -12.911  15.069  71.930  1.00  0.00    -0.345 C  
HETATM   22  O   UNL     1     -14.212  13.221  72.517  1.00  0.00    -0.697 OA 
HETATM   23  H   UNL     1     -12.492  16.594  70.586  1.00  0.00     0.000 HD 
HETATM   24  N   UNL     1     -12.461  15.587  70.743  1.00  0.00    -0.417 N  
HETATM   25  O   UNL     1     -13.060  15.731  72.944  1.00  0.00    -0.438 OA 
ENDBRANCH  14  15
ENDBRANCH  13  14
ENDBRANCH   4  13
BRANCH   6  26
HETATM   26  N   UNL     1      -7.104   6.060  69.180  1.00  0.00    -0.068 N  
HETATM   27  O   UNL     1      -7.242   5.151  67.097  1.00  0.00    -0.078 OA 
HETATM   28  C   UNL     1      -7.762   5.861  67.955  1.00  0.00    -0.100 C  
HETATM   29  H   UNL     1      -6.188   5.614  69.213  1.00  0.00     0.000 HD 
BRANCH  28  30
HETATM   30  C   UNL     1      -8.991   6.636  67.563  1.00  0.00    -0.114 C  
BRANCH  30  31
HETATM   31  C   UNL     1      -8.980   8.009  67.042  1.00  0.00    -0.138 A  
HETATM   32  H2  UNL     1      -7.410  11.351  64.880  1.00  0.00     0.000 HD 
HETATM   33  C   UNL     1     -10.124   8.598  66.527  1.00  0.00    -0.269 A  
HETATM   34  H1  UNL     1      -6.142  10.422  65.680  1.00  0.00     0.000 HD 
HETATM   35  N   UNL     1      -7.798   8.688  66.706  1.00  0.00    -0.093 NA 
HETATM   36  N   UNL     1      -7.130  10.569  65.473  1.00  0.00    -0.129 NA 
HETATM   37  S   UNL     1      -9.728   9.995  65.623  1.00  0.00    -0.288 SA 
HETATM   38  C   UNL     1      -8.063   9.746  65.973  1.00  0.00    -0.114 A  
ENDBRANCH  30  31
BRANCH  30  39
HETATM   39  N   UNL     1     -10.191   6.257  67.854  1.00  0.00    -0.151 NA 
HETATM   40  H   UNL     1     -10.751   6.828  68.486  1.00  0.00     0.000 HD 
BRANCH  39  41
HETATM   41  O   UNL     1     -10.744   5.088  67.330  1.00  0.00    -0.097 OA 
HETATM   42  C   UNL     1     -10.656   4.761  65.956  1.00  0.00    -0.254 C  
ENDBRANCH  39  41
ENDBRANCH  30  39
ENDBRANCH  28  30
ENDBRANCH   6  26
TORSDOF 8
ENDMDL
MODEL      101
REMARK 921   NORMALIZED FREE ENERGY PREDICTED BY IDOCK:   -6.36 KCAL/MOL
REMARK 922        TOTAL FREE ENERGY PREDICTED BY IDOCK:  -10.59 KCAL/MOL
REMARK 923 INTER-LIGAND FREE ENERGY PREDICTED BY IDOCK:   -9.14 KCAL/MOL
REMARK 924 INTRA-LIGAND FREE ENERGY PREDICTED BY IDOCK:   -1.45 KCAL/MOL
REMARK 927      BINDING AFFINITY PREDICTED BY RF-SCORE:    0.00 PKD
ROOT
HETATM    1  C   UNL     1      -9.453  11.150  64.975  1.00  0.00    -0.227 C  
HETATM    2  S   UNL     1     -10.941  12.080  64.734  1.00  0.00    -0.323 SA 
HETATM    3  C   UNL     1     -10.977  13.238  66.153  1.00  0.00    -0.279 C  
HETATM    4  C   UNL     1      -9.825  13.258  67.118  1.00  0.00    -0.237 C  
HETATM    5  CA  UNL     1      -8.739  12.430  67.036  1.00  0.00    -0.207 C  
HETATM    6  CA  UNL     1      -9.183   9.600  65.196  1.00  0.00    -0.246 C  
HETATM    7  C   UNL     1      -8.082  10.163  66.148  1.00  0.00    -0.123 C  
HETATM    8  N   UNL     1      -8.666  11.390  66.148  1.00  0.00    -0.176 N  
HETATM    9  C   UNL     1      -7.578  12.659  67.967  1.00  0.00    -0.132 C  
HETATM   10  O   UNL     1      -7.244   9.644  66.845  1.00  0.00    -0.089 OA 
HETATM   11  O   UNL     1      -6.944  11.576  68.460  1.00  0.00    -0.071 OA 
HETATM   12  OXT UNL     1      -7.193  13.780  68.263  1.00  0.00    -0.091 OA 
ENDROOT
BRANCH   4  13
HETATM   13  C   UNL     1      -9.964  14.252  68.310  1.00  0.00    -0.239 C  
BRANCH  13  14
HETATM   14  S   UNL     1     -10.636  15.941  68.042  1.00  0.00    -0.296 SA 
BRANCH  14  15
HETATM   15  C   UNL     1      -9.355  16.874  67.231  1.00  0.00    -0.236 C  
HETATM   16  N   UNL     1      -8.284  16.209  66.969  1.00  0.00    -0.194 N  
HETATM   17  H   UNL     1      -8.233  15.201  67.110  1.00  0.00     0.000 HD 
HETATM   18  C   UNL     1     -10.634  19.067  67.471  1.00  0.00    -0.461 C  
HETATM   19  C   UNL     1      -7.209  16.927  66.487  1.00  0.00    -0.262 C  
HETATM   20  N   UNL     1      -9.523  18.247  67.025  1.00  0.00    -0.267 NA 
HETATM   21  C   UNL     1      -7.391  18.318  65.880  1.00  0.00    -0.202 C  
HETATM   22  O   UNL     1      -6.041  16.559  66.609  1.00  0.00    -0.307 OA 
HETATM   23  H   UNL     1      -8.535  19.989  66.334  1.00  0.00     0.000 HD 
HETATM   24  N   UNL     1      -8.478  18.973  66.399  1.00  0.00    -0.306 N  
HETATM   25  O   UNL     1      -6.628  18.813  65.067  1.00  0.00    -0.496 OA 
ENDBRANCH  14  15
ENDBRANCH  13  14
ENDBRANCH   4  13
BRANCH   6  26
HETATM   26  N   UNL     1      -9.958   8.448  65.851  1.00  0.00    -0.416 N  
HETATM   27  O   UNL     1     -11.048   7.157  67.378  1.00  0.00    -0.247 OA 
HETATM   28  C   UNL     1     -10.529   8.240  67.118  1.00  0.00    -0.316 C  
HETATM   29  H   UNL     1     -10.088   7.654  65.225  1.00  0.00     0.000 HD 
BRANCH  28  30
HETATM   30  C   UNL     1     -10.708   9.353  68.115  1.00  0.00    -0.178 C  
BRANCH  30  31
HETATM   31  C   UNL     1     -10.280   9.293  69.519  1.00  0.00    -0.207 A  
HETATM   32  H2  UNL     1     -10.379   7.930  73.574  1.00  0.00     0.000 HD 
HETATM   33  C   UNL     1      -8.939   9.293  69.868  1.00  0.00    -0.183 A  
HETATM   34  H1  UNL     1     -11.994   8.056  72.875  1.00  0.00     0.000 HD 
HETATM   35  N   UNL     1     -11.133   8.890  70.559  1.00  0.00    -0.247 NA 
HETATM   36  N   UNL     1     -10.983   8.163  72.786  1.00  0.00    -0.372 NA 
HETATM   37  S   UNL     1      -8.739   8.790  71.490  1.00  0.00    -0.171 SA 
HETATM   38  C   UNL     1     -10.442   8.608  71.641  1.00  0.00    -0.296 A  
ENDBRANCH  30  31
BRANCH  30  39
HETATM   39  N   UNL     1     -11.455  10.385  67.898  1.00  0.00    -0.653 NA 
HETATM   40  H   UNL     1     -11.345  10.900  67.025  1.00  0.00     0.000 HD 
BRANCH  39  41
HETATM   41  O   UNL     1     -12.406  10.816  68.823  1.00  0.00    -0.435 OA 
HETATM   42  C   UNL     1     -12.342  12.091  69.433  1.00  0.00     0.045 C  
ENDBRANCH  39  41
ENDBRANCH  30  39
ENDBRANCH  28  30
ENDBRANCH   6  26
TORSDOF 8
ENDMDL
MODEL      102
REMARK 921   NORMALIZED FREE ENERGY PREDICTED BY IDOCK:   -6.35 KCAL/MOL
REMARK 922        TOTAL FREE ENERGY PREDICTED BY IDOCK:  -10.58 KCAL/MOL
REMARK 923 INTER-LIGAND FREE ENERGY PREDICTED BY IDOCK:   -8.11 KCAL/MOL
REMARK 924 INTRA-LIGAND FREE ENERGY PREDICTED BY IDOCK:   -2.47 KCAL/MOL
REMARK 927      BINDING AFFINITY PREDICTED BY RF-SCORE:    0.00 PKD
ROOT
HETATM    1  C   UNL     1      -6.601   8.576  66.860  1.00  0.00    -0.058 C  
HETATM    2  S   UNL     1      -6.674   9.742  65.528  1.00  0.00    -0.097 SA 
HETATM    3  C   UNL     1      -7.040  11.337  66.351  1.00  0.00    -0.053 C  
HETATM    4  C   UNL     1      -7.119  11.392  67.851  1.00  0.00    -0.075 C  
HETATM    5  CA  UNL     1      -6.970  10.306  68.669  1.00  0.00    -0.066 C  
HETATM    6  CA  UNL     1      -7.449   7.275  67.193  1.00  0.00    -0.105 C  
HETATM    7  C   UNL     1      -7.253   7.799  68.649  1.00  0.00    -0.085 C  
HETATM    8  N   UNL     1      -6.884   9.025  68.192  1.00  0.00    -0.068 N  
HETATM    9  C   UNL     1      -6.908  10.519  70.159  1.00  0.00    -0.141 C  
HETATM   10  O   UNL     1      -7.593   7.387  69.732  1.00  0.00    -0.090 OA 
HETATM   11  O   UNL     1      -7.512   9.610  70.949  1.00  0.00    -0.302 OA 
HETATM   12  OXT UNL     1      -6.319  11.466  70.656  1.00  0.00    -0.310 OA 
ENDROOT
BRANCH   4  13
HETATM   13  C   UNL     1      -7.470  12.785  68.455  1.00  0.00    -0.120 C  
BRANCH  13  14
HETATM   14  S   UNL     1      -8.341  14.047  67.443  1.00  0.00    -0.193 SA 
BRANCH  14  15
HETATM   15  C   UNL     1      -9.828  14.469  68.326  1.00  0.00    -0.229 C  
HETATM   16  N   UNL     1     -10.212  13.595  69.189  1.00  0.00    -0.430 N  
HETATM   17  H   UNL     1      -9.635  12.787  69.425  1.00  0.00     0.000 HD 
HETATM   18  C   UNL     1     -10.237  16.536  66.888  1.00  0.00    -0.296 C  
HETATM   19  C   UNL     1     -11.440  13.804  69.781  1.00  0.00    -0.199 C  
HETATM   20  N   UNL     1     -10.535  15.624  67.978  1.00  0.00    -0.257 NA 
HETATM   21  C   UNL     1     -12.105  15.180  69.767  1.00  0.00    -0.319 C  
HETATM   22  O   UNL     1     -12.126  12.897  70.254  1.00  0.00    -0.347 OA 
HETATM   23  H   UNL     1     -12.315  16.703  68.373  1.00  0.00     0.000 HD 
HETATM   24  N   UNL     1     -11.730  15.926  68.679  1.00  0.00    -0.380 N  
HETATM   25  O   UNL     1     -12.918  15.554  70.596  1.00  0.00    -0.462 OA 
ENDBRANCH  14  15
ENDBRANCH  13  14
ENDBRANCH   4  13
BRANCH   6  26
HETATM   26  N   UNL     1      -8.899   6.834  66.943  1.00  0.00    -0.116 N  
HETATM   27  O   UNL     1     -11.175   6.751  66.954  1.00  0.00    -0.375 OA 
HETATM   28  C   UNL     1     -10.158   7.385  67.230  1.00  0.00    -0.228 C  
HETATM   29  H   UNL     1      -8.961   5.938  66.460  1.00  0.00     0.000 HD 
BRANCH  28  30
HETATM   30  C   UNL     1     -10.332   8.809  67.686  1.00  0.00    -0.254 C  
BRANCH  30  31
HETATM   31  C   UNL     1     -10.390   9.971  66.789  1.00  0.00    -0.217 A  
HETATM   32  H2  UNL     1     -10.819  11.991  63.042  1.00  0.00     0.000 HD 
HETATM   33  C   UNL     1     -11.058  11.131  67.148  1.00  0.00    -0.287 A  
HETATM   34  H1  UNL     1      -9.955  10.461  62.878  1.00  0.00     0.000 HD 
HETATM   35  N   UNL     1     -10.098   9.891  65.418  1.00  0.00    -0.281 NA 
HETATM   36  N   UNL     1     -10.425  11.150  63.465  1.00  0.00    -0.373 NA 
HETATM   37  S   UNL     1     -11.324  12.121  65.780  1.00  0.00    -0.347 SA 
HETATM   38  C   UNL     1     -10.531  10.960  64.789  1.00  0.00    -0.303 A  
ENDBRANCH  30  31
BRANCH  30  39
HETATM   39  N   UNL     1     -10.224   9.176  68.920  1.00  0.00    -0.201 NA 
HETATM   40  H   UNL     1      -9.440   9.769  69.192  1.00  0.00     0.000 HD 
BRANCH  39  41
HETATM   41  O   UNL     1     -11.146   8.786  69.891  1.00  0.00    -0.220 OA 
HETATM   42  C   UNL     1     -10.749   8.223  71.126  1.00  0.00    -0.226 C  
ENDBRANCH  39  41
ENDBRANCH  30  39
ENDBRANCH  28  30
ENDBRANCH   6  26
TORSDOF 8
ENDMDL
MODEL      103
REMARK 921   NORMALIZED FREE ENERGY PREDICTED BY IDOCK:   -6.34 KCAL/MOL
REMARK 922        TOTAL FREE ENERGY PREDICTED BY IDOCK:  -10.56 KCAL/MOL
REMARK 923 INTER-LIGAND FREE ENERGY PREDICTED BY IDOCK:   -8.87 KCAL/MOL
REMARK 924 INTRA-LIGAND FREE ENERGY PREDICTED BY IDOCK:   -1.69 KCAL/MOL
REMARK 927      BINDING AFFINITY PREDICTED BY RF-SCORE:    0.00 PKD
ROOT
HETATM    1  C   UNL     1      -8.972  13.908  66.774  1.00  0.00    -0.188 C  
HETATM    2  S   UNL     1      -7.344  13.777  67.461  1.00  0.00    -0.123 SA 
HETATM    3  C   UNL     1      -7.429  12.290  68.527  1.00  0.00    -0.113 C  
HETATM    4  C   UNL     1      -8.694  11.479  68.562  1.00  0.00    -0.138 C  
HETATM    5  CA  UNL     1      -9.829  11.795  67.868  1.00  0.00    -0.183 C  
HETATM    6  CA  UNL     1     -10.084  15.039  66.864  1.00  0.00    -0.249 C  
HETATM    7  C   UNL     1     -11.021  13.791  66.891  1.00  0.00    -0.290 C  
HETATM    8  N   UNL     1      -9.977  12.974  67.187  1.00  0.00    -0.231 N  
HETATM    9  C   UNL     1     -10.974  10.816  67.859  1.00  0.00    -0.289 C  
HETATM   10  O   UNL     1     -12.220  13.656  66.942  1.00  0.00    -0.399 OA 
HETATM   11  O   UNL     1     -12.225  11.312  67.909  1.00  0.00    -0.570 OA 
HETATM   12  OXT UNL     1     -10.796   9.610  67.789  1.00  0.00    -0.270 OA 
ENDROOT
BRANCH   4  13
HETATM   13  C   UNL     1      -8.680  10.254  69.525  1.00  0.00    -0.139 C  
BRANCH  13  14
HETATM   14  S   UNL     1      -7.514   8.862  69.245  1.00  0.00    -0.076 SA 
BRANCH  14  15
HETATM   15  C   UNL     1      -8.373   7.376  69.717  1.00  0.00    -0.134 C  
HETATM   16  N   UNL     1      -9.520   7.212  69.155  1.00  0.00    -0.148 N  
HETATM   17  H   UNL     1      -9.844   7.829  68.411  1.00  0.00     0.000 HD 
HETATM   18  C   UNL     1      -6.642   6.797  71.498  1.00  0.00    -0.053 C  
HETATM   19  C   UNL     1     -10.289   6.160  69.608  1.00  0.00    -0.218 C  
HETATM   20  N   UNL     1      -7.837   6.552  70.711  1.00  0.00    -0.104 NA 
HETATM   21  C   UNL     1      -9.671   5.004  70.392  1.00  0.00    -0.209 C  
HETATM   22  O   UNL     1     -11.517   6.132  69.516  1.00  0.00    -0.429 OA 
HETATM   23  H   UNL     1      -8.233   4.830  71.879  1.00  0.00     0.000 HD 
HETATM   24  N   UNL     1      -8.552   5.387  71.087  1.00  0.00    -0.124 N  
HETATM   25  O   UNL     1     -10.145   3.881  70.440  1.00  0.00    -0.084 OA 
ENDBRANCH  14  15
ENDBRANCH  13  14
ENDBRANCH   4  13
BRANCH   6  26
HETATM   26  N   UNL     1     -10.494  16.074  67.921  1.00  0.00    -0.283 N  
HETATM   27  O   UNL     1     -10.465  17.852  69.344  1.00  0.00    -0.159 OA 
HETATM   28  C   UNL     1      -9.913  17.249  68.426  1.00  0.00    -0.322 C  
HETATM   29  H   UNL     1     -11.391  15.859  68.357  1.00  0.00     0.000 HD 
BRANCH  28  30
HETATM   30  C   UNL     1      -8.739  17.918  67.763  1.00  0.00    -0.250 C  
BRANCH  30  31
HETATM   31  C   UNL     1      -7.496  18.292  68.449  1.00  0.00    -0.281 A  
HETATM   32  H2  UNL     1      -5.022  20.625  71.047  1.00  0.00     0.000 HD 
HETATM   33  C   UNL     1      -6.658  17.338  69.003  1.00  0.00    -0.230 A  
HETATM   34  H1  UNL     1      -6.189  21.617  70.172  1.00  0.00     0.000 HD 
HETATM   35  N   UNL     1      -7.235  19.598  68.897  1.00  0.00    -0.351 NA 
HETATM   36  N   UNL     1      -5.781  20.703  70.370  1.00  0.00    -0.519 NA 
HETATM   37  S   UNL     1      -5.547  18.064  70.082  1.00  0.00    -0.226 SA 
HETATM   38  C   UNL     1      -6.234  19.604  69.748  1.00  0.00    -0.329 A  
ENDBRANCH  30  31
BRANCH  30  39
HETATM   39  N   UNL     1      -8.792  18.432  66.579  1.00  0.00    -0.288 NA 
HETATM   40  H   UNL     1      -7.933  18.774  66.149  1.00  0.00     0.000 HD 
BRANCH  39  41
HETATM   41  O   UNL     1      -9.989  18.532  65.869  1.00  0.00    -0.520 OA 
HETATM   42  C   UNL     1     -10.611  19.776  65.610  1.00  0.00    -0.355 C  
ENDBRANCH  39  41
ENDBRANCH  30  39
ENDBRANCH  28  30
ENDBRANCH   6  26
TORSDOF 8
ENDMDL
MODEL      104
REMARK 921   NORMALIZED FREE ENERGY PREDICTED BY IDOCK:   -6.33 KCAL/MOL
REMARK 922        TOTAL FREE ENERGY PREDICTED BY IDOCK:  -10.55 KCAL/MOL
REMARK 923 INTER-LIGAND FREE ENERGY PREDICTED BY IDOCK:   -8.67 KCAL/MOL
REMARK 924 INTRA-LIGAND FREE ENERGY PREDICTED BY IDOCK:   -1.88 KCAL/MOL
REMARK 927      BINDING AFFINITY PREDICTED BY RF-SCORE:    0.00 PKD
ROOT
HETATM    1  C   UNL     1     -10.247  10.752  66.019  1.00  0.00    -0.251 C  
HETATM    2  S   UNL     1     -11.417  12.020  66.425  1.00  0.00    -0.306 SA 
HETATM    3  C   UNL     1     -10.447  13.223  67.409  1.00  0.00    -0.243 C  
HETATM    4  C   UNL     1      -8.974  12.998  67.605  1.00  0.00    -0.192 C  
HETATM    5  CA  UNL     1      -8.291  11.916  67.122  1.00  0.00    -0.174 C  
HETATM    6  CA  UNL     1     -10.193   9.199  66.350  1.00  0.00    -0.230 C  
HETATM    7  C   UNL     1      -8.668   9.511  66.461  1.00  0.00    -0.134 C  
HETATM    8  N   UNL     1      -8.915  10.846  66.539  1.00  0.00    -0.163 N  
HETATM    9  C   UNL     1      -6.790  11.888  67.246  1.00  0.00    -0.142 C  
HETATM   10  O   UNL     1      -7.698   8.832  66.699  1.00  0.00    -0.091 OA 
HETATM   11  O   UNL     1      -6.204  10.707  67.525  1.00  0.00    -0.055 OA 
HETATM   12  OXT UNL     1      -6.106  12.887  67.082  1.00  0.00    -0.304 OA 
ENDROOT
BRANCH   4  13
HETATM   13  C   UNL     1      -8.244  14.057  68.485  1.00  0.00    -0.136 C  
BRANCH  13  14
HETATM   14  S   UNL     1      -9.193  15.392  69.317  1.00  0.00    -0.253 SA 
BRANCH  14  15
HETATM   15  C   UNL     1      -9.150  16.801  68.230  1.00  0.00    -0.228 C  
HETATM   16  N   UNL     1     -10.129  16.872  67.398  1.00  0.00    -0.272 N  
HETATM   17  H   UNL     1     -10.923  16.233  67.449  1.00  0.00     0.000 HD 
HETATM   18  C   UNL     1      -6.841  17.512  69.048  1.00  0.00    -0.242 C  
HETATM   19  C   UNL     1     -10.054  17.856  66.433  1.00  0.00    -0.369 C  
HETATM   20  N   UNL     1      -8.049  17.662  68.256  1.00  0.00    -0.268 NA 
HETATM   21  C   UNL     1      -9.122  19.056  66.593  1.00  0.00    -0.329 C  
HETATM   22  O   UNL     1     -10.632  17.784  65.348  1.00  0.00    -0.659 OA 
HETATM   23  H   UNL     1      -7.189  19.341  67.293  1.00  0.00     0.000 HD 
HETATM   24  N   UNL     1      -8.026  18.763  67.363  1.00  0.00    -0.239 N  
HETATM   25  O   UNL     1      -9.302  20.136  66.055  1.00  0.00    -0.352 OA 
ENDBRANCH  14  15
ENDBRANCH  13  14
ENDBRANCH   4  13
BRANCH   6  26
HETATM   26  N   UNL     1     -10.675   8.323  67.515  1.00  0.00    -0.486 N  
HETATM   27  O   UNL     1     -10.863   7.347  69.564  1.00  0.00    -0.236 OA 
HETATM   28  C   UNL     1     -10.330   8.212  68.872  1.00  0.00    -0.211 C  
HETATM   29  H   UNL     1     -11.412   7.673  67.241  1.00  0.00     0.000 HD 
BRANCH  28  30
HETATM   30  C   UNL     1      -9.475   9.233  69.574  1.00  0.00    -0.173 C  
BRANCH  30  31
HETATM   31  C   UNL     1      -8.134   8.970  70.112  1.00  0.00    -0.126 A  
HETATM   32  H2  UNL     1      -4.736   9.643  72.624  1.00  0.00     0.000 HD 
HETATM   33  C   UNL     1      -7.703   7.682  70.386  1.00  0.00    -0.090 A  
HETATM   34  H1  UNL     1      -5.479  11.152  72.092  1.00  0.00     0.000 HD 
HETATM   35  N   UNL     1      -7.341   9.966  70.704  1.00  0.00    -0.313 NA 
HETATM   36  N   UNL     1      -5.454  10.133  72.089  1.00  0.00    -0.292 NA 
HETATM   37  S   UNL     1      -6.313   7.710  71.381  1.00  0.00    -0.035 SA 
HETATM   38  C   UNL     1      -6.355   9.429  71.386  1.00  0.00    -0.020 A  
ENDBRANCH  30  31
BRANCH  30  39
HETATM   39  N   UNL     1      -9.921  10.378  69.970  1.00  0.00    -0.421 NA 
HETATM   40  H   UNL     1      -9.293  11.007  70.470  1.00  0.00     0.000 HD 
BRANCH  39  41
HETATM   41  O   UNL     1     -11.236  10.781  69.735  1.00  0.00    -0.256 OA 
HETATM   42  C   UNL     1     -12.222  10.766  70.749  1.00  0.00    -0.381 C  
ENDBRANCH  39  41
ENDBRANCH  30  39
ENDBRANCH  28  30
ENDBRANCH   6  26
TORSDOF 8
ENDMDL
MODEL      105
REMARK 921   NORMALIZED FREE ENERGY PREDICTED BY IDOCK:   -6.31 KCAL/MOL
REMARK 922        TOTAL FREE ENERGY PREDICTED BY IDOCK:  -10.52 KCAL/MOL
REMARK 923 INTER-LIGAND FREE ENERGY PREDICTED BY IDOCK:   -8.56 KCAL/MOL
REMARK 924 INTRA-LIGAND FREE ENERGY PREDICTED BY IDOCK:   -1.96 KCAL/MOL
REMARK 927      BINDING AFFINITY PREDICTED BY RF-SCORE:    0.00 PKD
ROOT
HETATM    1  C   UNL     1      -9.807  12.544  68.667  1.00  0.00    -0.075 C  
HETATM    2  S   UNL     1     -11.461  12.017  69.023  1.00  0.00    -0.324 SA 
HETATM    3  C   UNL     1     -11.476  10.247  68.554  1.00  0.00    -0.100 C  
HETATM    4  C   UNL     1     -10.204   9.598  68.085  1.00  0.00    -0.225 C  
HETATM    5  CA  UNL     1      -9.012  10.254  67.943  1.00  0.00    -0.131 C  
HETATM    6  CA  UNL     1      -9.222  13.643  67.679  1.00  0.00    -0.213 C  
HETATM    7  C   UNL     1      -8.103  12.567  67.516  1.00  0.00    -0.176 C  
HETATM    8  N   UNL     1      -8.896  11.612  68.070  1.00  0.00    -0.155 N  
HETATM    9  C   UNL     1      -7.776   9.457  67.622  1.00  0.00    -0.088 C  
HETATM   10  O   UNL     1      -7.080  12.527  66.876  1.00  0.00    -0.028 OA 
HETATM   11  O   UNL     1      -6.880  10.000  66.774  1.00  0.00    -0.078 OA 
HETATM   12  OXT UNL     1      -7.561   8.362  68.118  1.00  0.00    -0.095 OA 
ENDROOT
BRANCH   4  13
HETATM   13  C   UNL     1     -10.326   8.099  67.676  1.00  0.00    -0.247 C  
BRANCH  13  14
HETATM   14  S   UNL     1     -10.859   6.839  68.903  1.00  0.00    -0.227 SA 
BRANCH  14  15
HETATM   15  C   UNL     1     -10.083   7.271  70.445  1.00  0.00    -0.192 C  
HETATM   16  N   UNL     1      -8.826   7.003  70.513  1.00  0.00    -0.153 N  
HETATM   17  H   UNL     1      -8.303   6.681  69.699  1.00  0.00     0.000 HD 
HETATM   18  C   UNL     1     -12.307   7.898  71.526  1.00  0.00    -0.315 C  
HETATM   19  C   UNL     1      -8.219   7.173  71.741  1.00  0.00    -0.105 C  
HETATM   20  N   UNL     1     -10.862   7.757  71.500  1.00  0.00    -0.226 NA 
HETATM   21  C   UNL     1      -8.858   8.033  72.829  1.00  0.00    -0.214 C  
HETATM   22  O   UNL     1      -7.202   6.568  72.081  1.00  0.00    -0.083 OA 
HETATM   23  H   UNL     1     -10.787   8.326  73.539  1.00  0.00     0.000 HD 
HETATM   24  N   UNL     1     -10.225   8.070  72.727  1.00  0.00    -0.304 N  
HETATM   25  O   UNL     1      -8.231   8.582  73.722  1.00  0.00    -0.376 OA 
ENDBRANCH  14  15
ENDBRANCH  13  14
ENDBRANCH   4  13
BRANCH   6  26
HETATM   26  N   UNL     1      -9.652  14.218  66.322  1.00  0.00    -0.352 N  
HETATM   27  O   UNL     1     -10.506  15.592  64.719  1.00  0.00    -0.446 OA 
HETATM   28  C   UNL     1     -10.199  15.441  65.900  1.00  0.00    -0.344 C  
HETATM   29  H   UNL     1      -9.508  13.564  65.553  1.00  0.00     0.000 HD 
BRANCH  28  30
HETATM   30  C   UNL     1     -10.250  16.653  66.791  1.00  0.00    -0.301 C  
BRANCH  30  31
HETATM   31  C   UNL     1      -9.211  17.688  66.852  1.00  0.00    -0.263 A  
HETATM   32  H2  UNL     1      -6.258  20.350  65.270  1.00  0.00     0.000 HD 
HETATM   33  C   UNL     1      -9.343  18.802  67.666  1.00  0.00    -0.292 A  
HETATM   34  H1  UNL     1      -6.285  18.806  64.417  1.00  0.00     0.000 HD 
HETATM   35  N   UNL     1      -8.208  17.820  65.877  1.00  0.00    -0.537 NA 
HETATM   36  N   UNL     1      -6.644  19.413  65.155  1.00  0.00    -0.388 NA 
HETATM   37  S   UNL     1      -8.222  20.013  67.218  1.00  0.00    -0.336 SA 
HETATM   38  C   UNL     1      -7.618  18.990  65.975  1.00  0.00    -0.248 A  
ENDBRANCH  30  31
BRANCH  30  39
HETATM   39  N   UNL     1     -11.102  16.790  67.752  1.00  0.00    -0.211 NA 
HETATM   40  H   UNL     1     -11.353  17.729  68.060  1.00  0.00     0.000 HD 
BRANCH  39  41
HETATM   41  O   UNL     1     -11.690  15.693  68.382  1.00  0.00    -0.367 OA 
HETATM   42  C   UNL     1     -11.726  15.560  69.790  1.00  0.00    -0.349 C  
ENDBRANCH  39  41
ENDBRANCH  30  39
ENDBRANCH  28  30
ENDBRANCH   6  26
TORSDOF 8
ENDMDL
MODEL      106
REMARK 921   NORMALIZED FREE ENERGY PREDICTED BY IDOCK:   -6.30 KCAL/MOL
REMARK 922        TOTAL FREE ENERGY PREDICTED BY IDOCK:  -10.51 KCAL/MOL
REMARK 923 INTER-LIGAND FREE ENERGY PREDICTED BY IDOCK:   -9.16 KCAL/MOL
REMARK 924 INTRA-LIGAND FREE ENERGY PREDICTED BY IDOCK:   -1.35 KCAL/MOL
REMARK 927      BINDING AFFINITY PREDICTED BY RF-SCORE:    0.00 PKD
ROOT
HETATM    1  C   UNL     1     -10.316  12.971  68.562  1.00  0.00    -0.239 C  
HETATM    2  S   UNL     1     -11.733  11.911  68.474  1.00  0.00    -0.316 SA 
HETATM    3  C   UNL     1     -11.072  10.337  67.813  1.00  0.00    -0.269 C  
HETATM    4  C   UNL     1      -9.595  10.201  67.570  1.00  0.00    -0.180 C  
HETATM    5  CA  UNL     1      -8.686  11.203  67.776  1.00  0.00    -0.132 C  
HETATM    6  CA  UNL     1      -9.969  14.356  67.864  1.00  0.00    -0.228 C  
HETATM    7  C   UNL     1      -8.544  13.720  67.834  1.00  0.00    -0.183 C  
HETATM    8  N   UNL     1      -9.055  12.485  68.082  1.00  0.00    -0.201 N  
HETATM    9  C   UNL     1      -7.218  10.891  67.651  1.00  0.00    -0.093 C  
HETATM   10  O   UNL     1      -7.471  14.109  67.440  1.00  0.00    -0.175 OA 
HETATM   11  O   UNL     1      -6.423  11.826  67.095  1.00  0.00    -0.118 OA 
HETATM   12  OXT UNL     1      -6.740   9.841  68.053  1.00  0.00    -0.061 OA 
ENDROOT
BRANCH   4  13
HETATM   13  C   UNL     1      -9.134   8.836  66.974  1.00  0.00    -0.133 C  
BRANCH  13  14
HETATM   14  S   UNL     1     -10.266   7.389  66.975  1.00  0.00    -0.300 SA 
BRANCH  14  15
HETATM   15  C   UNL     1     -10.356   6.815  68.658  1.00  0.00    -0.186 C  
HETATM   16  N   UNL     1     -11.533   6.846  69.178  1.00  0.00    -0.560 N  
HETATM   17  H   UNL     1     -12.358   7.070  68.622  1.00  0.00     0.000 HD 
HETATM   18  C   UNL     1      -7.821   6.604  68.847  1.00  0.00    -0.111 C  
HETATM   19  C   UNL     1     -11.624   6.563  70.526  1.00  0.00    -0.393 C  
HETATM   20  N   UNL     1      -9.182   6.477  69.337  1.00  0.00    -0.144 NA 
HETATM   21  C   UNL     1     -10.502   5.830  71.260  1.00  0.00    -0.235 C  
HETATM   22  O   UNL     1     -12.540   6.968  71.241  1.00  0.00    -0.372 OA 
HETATM   23  H   UNL     1      -8.428   5.896  71.229  1.00  0.00     0.000 HD 
HETATM   24  N   UNL     1      -9.276   6.046  70.685  1.00  0.00    -0.149 N  
HETATM   25  O   UNL     1     -10.666   5.172  72.275  1.00  0.00    -0.217 OA 
ENDBRANCH  14  15
ENDBRANCH  13  14
ENDBRANCH   4  13
BRANCH   6  26
HETATM   26  N   UNL     1     -10.322  15.010  66.521  1.00  0.00    -0.276 N  
HETATM   27  O   UNL     1     -10.812  16.556  64.922  1.00  0.00    -0.684 OA 
HETATM   28  C   UNL     1     -10.442  16.337  66.074  1.00  0.00    -0.331 C  
HETATM   29  H   UNL     1     -10.512  14.328  65.788  1.00  0.00     0.000 HD 
BRANCH  28  30
HETATM   30  C   UNL     1      -9.952  17.509  66.881  1.00  0.00    -0.313 C  
BRANCH  30  31
HETATM   31  C   UNL     1      -8.559  17.710  67.299  1.00  0.00    -0.231 A  
HETATM   32  H2  UNL     1      -5.146  17.278  69.844  1.00  0.00     0.000 HD 
HETATM   33  C   UNL     1      -7.514  17.645  66.391  1.00  0.00    -0.288 A  
HETATM   34  H1  UNL     1      -6.647  17.417  70.761  1.00  0.00     0.000 HD 
HETATM   35  N   UNL     1      -8.146  17.634  68.639  1.00  0.00    -0.282 NA 
HETATM   36  N   UNL     1      -6.160  17.396  69.865  1.00  0.00    -0.231 NA 
HETATM   37  S   UNL     1      -6.018  17.488  67.205  1.00  0.00    -0.148 SA 
HETATM   38  C   UNL     1      -6.839  17.523  68.715  1.00  0.00    -0.233 A  
ENDBRANCH  30  31
BRANCH  30  39
HETATM   39  N   UNL     1     -10.743  18.338  67.477  1.00  0.00    -0.406 NA 
HETATM   40  H   UNL     1     -11.308  18.008  68.259  1.00  0.00     0.000 HD 
BRANCH  39  41
HETATM   41  O   UNL     1     -10.848  19.672  67.083  1.00  0.00    -0.484 OA 
HETATM   42  C   UNL     1     -10.773  20.067  65.727  1.00  0.00    -0.252 C  
ENDBRANCH  39  41
ENDBRANCH  30  39
ENDBRANCH  28  30
ENDBRANCH   6  26
TORSDOF 8
ENDMDL
MODEL      107
REMARK 921   NORMALIZED FREE ENERGY PREDICTED BY IDOCK:   -6.29 KCAL/MOL
REMARK 922        TOTAL FREE ENERGY PREDICTED BY IDOCK:  -10.49 KCAL/MOL
REMARK 923 INTER-LIGAND FREE ENERGY PREDICTED BY IDOCK:   -9.35 KCAL/MOL
REMARK 924 INTRA-LIGAND FREE ENERGY PREDICTED BY IDOCK:   -1.14 KCAL/MOL
REMARK 927      BINDING AFFINITY PREDICTED BY RF-SCORE:    0.00 PKD
ROOT
HETATM    1  C   UNL     1     -11.334  11.191  67.807  1.00  0.00    -0.293 C  
HETATM    2  S   UNL     1     -10.360  10.364  66.580  1.00  0.00    -0.199 SA 
HETATM    3  C   UNL     1      -9.839   8.810  67.397  1.00  0.00    -0.194 C  
HETATM    4  C   UNL     1     -10.342   8.498  68.777  1.00  0.00    -0.233 C  
HETATM    5  CA  UNL     1     -11.153   9.325  69.506  1.00  0.00    -0.080 C  
HETATM    6  CA  UNL     1     -11.170  12.590  68.541  1.00  0.00    -0.283 C  
HETATM    7  C   UNL     1     -11.736  11.767  69.740  1.00  0.00    -0.335 C  
HETATM    8  N   UNL     1     -11.465  10.596  69.105  1.00  0.00    -0.275 N  
HETATM    9  C   UNL     1     -11.720   8.826  70.809  1.00  0.00    -0.219 C  
HETATM   10  O   UNL     1     -12.007  12.047  70.883  1.00  0.00    -0.226 OA 
HETATM   11  O   UNL     1     -11.815   9.702  71.828  1.00  0.00    -0.386 OA 
HETATM   12  OXT UNL     1     -12.105   7.676  70.952  1.00  0.00    -0.284 OA 
ENDROOT
BRANCH   4  13
HETATM   13  C   UNL     1      -9.815   7.170  69.401  1.00  0.00    -0.161 C  
BRANCH  13  14
HETATM   14  S   UNL     1     -10.521   5.554  68.886  1.00  0.00    -0.181 SA 
BRANCH  14  15
HETATM   15  C   UNL     1      -9.597   5.028  67.458  1.00  0.00    -0.145 C  
HETATM   16  N   UNL     1     -10.256   5.042  66.352  1.00  0.00    -0.247 N  
HETATM   17  H   UNL     1     -11.194   5.439  66.293  1.00  0.00     0.000 HD 
HETATM   18  C   UNL     1      -7.584   4.339  68.864  1.00  0.00    -0.055 C  
HETATM   19  C   UNL     1      -9.632   4.493  65.251  1.00  0.00    -0.172 C  
HETATM   20  N   UNL     1      -8.295   4.544  67.615  1.00  0.00    -0.099 NA 
HETATM   21  C   UNL     1      -8.119   4.290  65.214  1.00  0.00    -0.101 C  
HETATM   22  O   UNL     1     -10.245   4.035  64.286  1.00  0.00    -0.202 OA 
HETATM   23  H   UNL     1      -6.681   3.655  66.570  1.00  0.00     0.000 HD 
HETATM   24  N   UNL     1      -7.589   4.108  66.466  1.00  0.00    -0.088 N  
HETATM   25  O   UNL     1      -7.461   4.241  64.188  1.00  0.00    -0.068 OA 
ENDBRANCH  14  15
ENDBRANCH  13  14
ENDBRANCH   4  13
BRANCH   6  26
HETATM   26  N   UNL     1      -9.977  13.457  68.966  1.00  0.00    -0.421 N  
HETATM   27  O   UNL     1      -8.699  15.235  69.593  1.00  0.00    -0.235 OA 
HETATM   28  C   UNL     1      -9.824  14.794  69.367  1.00  0.00    -0.062 C  
HETATM   29  H   UNL     1      -9.094  12.946  68.955  1.00  0.00     0.000 HD 
BRANCH  28  30
HETATM   30  C   UNL     1     -10.996  15.669  69.723  1.00  0.00    -0.304 C  
BRANCH  30  31
HETATM   31  C   UNL     1     -11.926  15.408  70.829  1.00  0.00    -0.359 A  
HETATM   32  H2  UNL     1     -13.802  16.136  74.606  1.00  0.00     0.000 HD 
HETATM   33  C   UNL     1     -13.232  15.006  70.599  1.00  0.00    -0.295 A  
HETATM   34  H1  UNL     1     -12.085  16.543  74.627  1.00  0.00     0.000 HD 
HETATM   35  N   UNL     1     -11.700  15.862  72.139  1.00  0.00    -0.465 NA 
HETATM   36  N   UNL     1     -12.902  16.189  74.128  1.00  0.00    -0.698 NA 
HETATM   37  S   UNL     1     -14.179  15.194  72.010  1.00  0.00    -0.603 SA 
HETATM   38  C   UNL     1     -12.803  15.791  72.850  1.00  0.00    -0.482 A  
ENDBRANCH  30  31
BRANCH  30  39
HETATM   39  N   UNL     1     -11.434  16.613  68.958  1.00  0.00    -0.190 NA 
HETATM   40  H   UNL     1     -12.401  16.581  68.637  1.00  0.00     0.000 HD 
BRANCH  39  41
HETATM   41  O   UNL     1     -10.624  17.676  68.557  1.00  0.00    -0.346 OA 
HETATM   42  C   UNL     1     -10.595  18.141  67.222  1.00  0.00    -0.367 C  
ENDBRANCH  39  41
ENDBRANCH  30  39
ENDBRANCH  28  30
ENDBRANCH   6  26
TORSDOF 8
ENDMDL
MODEL      108
REMARK 921   NORMALIZED FREE ENERGY PREDICTED BY IDOCK:   -6.29 KCAL/MOL
REMARK 922        TOTAL FREE ENERGY PREDICTED BY IDOCK:  -10.49 KCAL/MOL
REMARK 923 INTER-LIGAND FREE ENERGY PREDICTED BY IDOCK:   -8.64 KCAL/MOL
REMARK 924 INTRA-LIGAND FREE ENERGY PREDICTED BY IDOCK:   -1.84 KCAL/MOL
REMARK 927      BINDING AFFINITY PREDICTED BY RF-SCORE:    0.00 PKD
ROOT
HETATM    1  C   UNL     1      -9.313   9.626  64.881  1.00  0.00    -0.242 C  
HETATM    2  S   UNL     1      -8.000   8.822  64.003  1.00  0.00    -0.162 SA 
HETATM    3  C   UNL     1      -7.714   7.277  64.944  1.00  0.00    -0.117 C  
HETATM    4  C   UNL     1      -8.601   6.951  66.113  1.00  0.00    -0.147 C  
HETATM    5  CA  UNL     1      -9.609   7.759  66.563  1.00  0.00    -0.201 C  
HETATM    6  CA  UNL     1      -9.404  11.026  65.625  1.00  0.00    -0.214 C  
HETATM    7  C   UNL     1     -10.285  10.189  66.603  1.00  0.00    -0.224 C  
HETATM    8  N   UNL     1      -9.813   9.025  66.083  1.00  0.00    -0.286 N  
HETATM    9  C   UNL     1     -10.529   7.246  67.639  1.00  0.00    -0.242 C  
HETATM   10  O   UNL     1     -10.891  10.460  67.612  1.00  0.00    -0.264 OA 
HETATM   11  O   UNL     1     -10.942   8.116  68.580  1.00  0.00     0.013 OA 
HETATM   12  OXT UNL     1     -10.916   6.087  67.665  1.00  0.00    -0.305 OA 
ENDROOT
BRANCH   4  13
HETATM   13  C   UNL     1      -8.257   5.633  66.870  1.00  0.00    -0.105 C  
BRANCH  13  14
HETATM   14  S   UNL     1      -7.112   5.655  68.307  1.00  0.00    -0.075 SA 
BRANCH  14  15
HETATM   15  C   UNL     1      -7.941   6.548  69.605  1.00  0.00    -0.120 C  
HETATM   16  N   UNL     1      -7.552   7.765  69.759  1.00  0.00    -0.089 N  
HETATM   17  H   UNL     1      -6.906   8.207  69.105  1.00  0.00     0.000 HD 
HETATM   18  C   UNL     1      -9.183   4.469  70.404  1.00  0.00    -0.128 C  
HETATM   19  C   UNL     1      -8.051   8.443  70.852  1.00  0.00    -0.110 C  
HETATM   20  N   UNL     1      -8.855   5.883  70.427  1.00  0.00    -0.142 NA 
HETATM   21  C   UNL     1      -9.307   7.965  71.577  1.00  0.00    -0.143 C  
HETATM   22  O   UNL     1      -7.473   9.394  71.379  1.00  0.00    -0.335 OA 
HETATM   23  H   UNL     1     -10.073   6.120  72.144  1.00  0.00     0.000 HD 
HETATM   24  N   UNL     1      -9.485   6.609  71.470  1.00  0.00    -0.157 N  
HETATM   25  O   UNL     1     -10.042   8.693  72.224  1.00  0.00    -0.311 OA 
ENDBRANCH  14  15
ENDBRANCH  13  14
ENDBRANCH   4  13
BRANCH   6  26
HETATM   26  N   UNL     1      -8.409  11.916  66.385  1.00  0.00    -0.376 N  
HETATM   27  O   UNL     1      -7.502  13.635  67.571  1.00  0.00    -0.166 OA 
HETATM   28  C   UNL     1      -8.517  13.110  67.116  1.00  0.00    -0.169 C  
HETATM   29  H   UNL     1      -7.455  11.559  66.350  1.00  0.00     0.000 HD 
BRANCH  28  30
HETATM   30  C   UNL     1      -9.843  13.682  67.538  1.00  0.00    -0.227 C  
BRANCH  30  31
HETATM   31  C   UNL     1     -10.823  14.280  66.623  1.00  0.00    -0.301 A  
HETATM   32  H2  UNL     1     -12.121  16.553  63.237  1.00  0.00     0.000 HD 
HETATM   33  C   UNL     1     -11.945  13.583  66.205  1.00  0.00    -0.412 A  
HETATM   34  H1  UNL     1     -10.692  17.252  63.999  1.00  0.00     0.000 HD 
HETATM   35  N   UNL     1     -10.546  15.418  65.846  1.00  0.00    -0.322 NA 
HETATM   36  N   UNL     1     -11.413  16.531  63.971  1.00  0.00    -1.122 NA 
HETATM   37  S   UNL     1     -12.654  14.340  64.845  1.00  0.00    -0.222 SA 
HETATM   38  C   UNL     1     -11.439  15.555  64.892  1.00  0.00    -0.279 A  
ENDBRANCH  30  31
BRANCH  30  39
HETATM   39  N   UNL     1     -10.158  13.907  68.771  1.00  0.00    -0.348 NA 
HETATM   40  H   UNL     1      -9.556  13.542  69.509  1.00  0.00     0.000 HD 
BRANCH  39  41
HETATM   41  O   UNL     1     -11.295  14.634  69.123  1.00  0.00    -0.252 OA 
HETATM   42  C   UNL     1     -12.143  14.241  70.184  1.00  0.00    -0.339 C  
ENDBRANCH  39  41
ENDBRANCH  30  39
ENDBRANCH  28  30
ENDBRANCH   6  26
TORSDOF 8
ENDMDL
MODEL      109
REMARK 921   NORMALIZED FREE ENERGY PREDICTED BY IDOCK:   -6.28 KCAL/MOL
REMARK 922        TOTAL FREE ENERGY PREDICTED BY IDOCK:  -10.48 KCAL/MOL
REMARK 923 INTER-LIGAND FREE ENERGY PREDICTED BY IDOCK:   -8.87 KCAL/MOL
REMARK 924 INTRA-LIGAND FREE ENERGY PREDICTED BY IDOCK:   -1.60 KCAL/MOL
REMARK 927      BINDING AFFINITY PREDICTED BY RF-SCORE:    0.00 PKD
ROOT
HETATM    1  C   UNL     1      -9.254   8.031  67.592  1.00  0.00    -0.133 C  
HETATM    2  S   UNL     1      -9.042   9.333  66.409  1.00  0.00    -0.172 SA 
HETATM    3  C   UNL     1     -10.176  10.649  66.987  1.00  0.00    -0.220 C  
HETATM    4  C   UNL     1     -10.938  10.456  68.268  1.00  0.00    -0.321 C  
HETATM    5  CA  UNL     1     -10.875   9.327  69.038  1.00  0.00    -0.111 C  
HETATM    6  CA  UNL     1      -9.753   6.529  67.454  1.00  0.00    -0.126 C  
HETATM    7  C   UNL     1     -10.396   6.859  68.838  1.00  0.00    -0.189 C  
HETATM    8  N   UNL     1     -10.224   8.192  68.635  1.00  0.00    -0.204 N  
HETATM    9  C   UNL     1     -11.558   9.322  70.380  1.00  0.00    -0.173 C  
HETATM   10  O   UNL     1     -11.057   6.218  69.619  1.00  0.00    -0.340 OA 
HETATM   11  O   UNL     1     -12.169   8.186  70.769  1.00  0.00    -0.168 OA 
HETATM   12  OXT UNL     1     -11.553  10.297  71.116  1.00  0.00    -0.355 OA 
ENDROOT
BRANCH   4  13
HETATM   13  C   UNL     1     -11.903  11.617  68.658  1.00  0.00    -0.308 C  
BRANCH  13  14
HETATM   14  S   UNL     1     -11.290  13.346  68.753  1.00  0.00    -0.313 SA 
BRANCH  14  15
HETATM   15  C   UNL     1     -11.899  14.018  70.285  1.00  0.00    -0.303 C  
HETATM   16  N   UNL     1     -12.616  13.209  70.983  1.00  0.00    -0.353 N  
HETATM   17  H   UNL     1     -12.719  12.227  70.727  1.00  0.00     0.000 HD 
HETATM   18  C   UNL     1     -11.029  16.354  69.746  1.00  0.00    -0.341 C  
HETATM   19  C   UNL     1     -13.240  13.734  72.097  1.00  0.00    -0.447 C  
HETATM   20  N   UNL     1     -11.672  15.363  70.590  1.00  0.00    -0.306 NA 
HETATM   21  C   UNL     1     -12.772  15.047  72.723  1.00  0.00    -0.400 C  
HETATM   22  O   UNL     1     -14.262  13.255  72.588  1.00  0.00    -0.724 OA 
HETATM   23  H   UNL     1     -12.124  16.880  71.997  1.00  0.00     0.000 HD 
HETATM   24  N   UNL     1     -12.188  15.881  71.805  1.00  0.00    -0.448 N  
HETATM   25  O   UNL     1     -12.946  15.345  73.893  1.00  0.00    -0.488 OA 
ENDBRANCH  14  15
ENDBRANCH  13  14
ENDBRANCH   4  13
BRANCH   6  26
HETATM   26  N   UNL     1     -10.741   5.796  66.536  1.00  0.00    -0.557 N  
HETATM   27  O   UNL     1     -11.625   4.361  65.004  1.00  0.00    -0.036 OA 
HETATM   28  C   UNL     1     -10.651   4.686  65.680  1.00  0.00    -0.203 C  
HETATM   29  H   UNL     1     -11.673   6.208  66.550  1.00  0.00     0.000 HD 
BRANCH  28  30
HETATM   30  C   UNL     1      -9.472   3.751  65.691  1.00  0.00    -0.170 C  
BRANCH  30  31
HETATM   31  C   UNL     1      -8.280   3.900  64.846  1.00  0.00    -0.093 A  
HETATM   32  H2  UNL     1      -5.165   6.034  62.834  1.00  0.00     0.000 HD 
HETATM   33  C   UNL     1      -7.206   3.031  64.949  1.00  0.00    -0.066 A  
HETATM   34  H1  UNL     1      -6.691   6.920  62.826  1.00  0.00     0.000 HD 
HETATM   35  N   UNL     1      -7.983   5.082  64.149  1.00  0.00    -0.098 NA 
HETATM   36  N   UNL     1      -6.153   6.093  63.083  1.00  0.00    -0.022 NA 
HETATM   37  S   UNL     1      -5.826   3.684  64.179  1.00  0.00    -0.014 SA 
HETATM   38  C   UNL     1      -6.732   5.080  63.745  1.00  0.00    -0.042 A  
ENDBRANCH  30  31
BRANCH  30  39
HETATM   39  N   UNL     1      -9.485   2.602  66.282  1.00  0.00    -0.380 NA 
HETATM   40  H   UNL     1      -9.448   1.754  65.715  1.00  0.00     0.000 HD 
BRANCH  39  41
HETATM   41  O   UNL     1      -9.549   2.484  67.670  1.00  0.00    -0.146 OA 
HETATM   42  C   UNL     1      -8.689   3.207  68.529  1.00  0.00    -0.104 C  
ENDBRANCH  39  41
ENDBRANCH  30  39
ENDBRANCH  28  30
ENDBRANCH   6  26
TORSDOF 8
ENDMDL
MODEL      110
REMARK 921   NORMALIZED FREE ENERGY PREDICTED BY IDOCK:   -6.28 KCAL/MOL
REMARK 922        TOTAL FREE ENERGY PREDICTED BY IDOCK:  -10.47 KCAL/MOL
REMARK 923 INTER-LIGAND FREE ENERGY PREDICTED BY IDOCK:   -8.52 KCAL/MOL
REMARK 924 INTRA-LIGAND FREE ENERGY PREDICTED BY IDOCK:   -1.95 KCAL/MOL
REMARK 927      BINDING AFFINITY PREDICTED BY RF-SCORE:    0.00 PKD
ROOT
HETATM    1  C   UNL     1     -11.884  12.961  66.529  1.00  0.00    -0.407 C  
HETATM    2  S   UNL     1     -11.285  11.348  66.105  1.00  0.00    -0.036 SA 
HETATM    3  C   UNL     1     -10.928  10.566  67.723  1.00  0.00    -0.313 C  
HETATM    4  C   UNL     1     -11.251  11.309  68.988  1.00  0.00    -0.321 C  
HETATM    5  CA  UNL     1     -11.772  12.574  69.026  1.00  0.00    -0.318 C  
HETATM    6  CA  UNL     1     -11.354  14.421  66.196  1.00  0.00    -0.350 C  
HETATM    7  C   UNL     1     -11.859  14.685  67.649  1.00  0.00    -0.337 C  
HETATM    8  N   UNL     1     -11.909  13.351  67.908  1.00  0.00    -0.357 N  
HETATM    9  C   UNL     1     -12.202  13.144  70.352  1.00  0.00    -0.316 C  
HETATM   10  O   UNL     1     -11.888  15.667  68.351  1.00  0.00    -0.346 OA 
HETATM   11  O   UNL     1     -11.973  14.453  70.576  1.00  0.00    -0.289 OA 
HETATM   12  OXT UNL     1     -12.760  12.467  71.200  1.00  0.00    -0.351 OA 
ENDROOT
BRANCH   4  13
HETATM   13  C   UNL     1     -10.878  10.576  70.312  1.00  0.00    -0.174 C  
BRANCH  13  14
HETATM   14  S   UNL     1     -11.961   9.250  70.979  1.00  0.00    -0.287 SA 
BRANCH  14  15
HETATM   15  C   UNL     1     -11.167   7.704  70.594  1.00  0.00    -0.266 C  
HETATM   16  N   UNL     1     -11.048   7.454  69.337  1.00  0.00    -0.441 N  
HETATM   17  H   UNL     1     -11.283   8.150  68.629  1.00  0.00     0.000 HD 
HETATM   18  C   UNL     1     -11.112   6.986  73.041  1.00  0.00    -0.259 C  
HETATM   19  C   UNL     1     -10.585   6.201  68.993  1.00  0.00    -0.279 C  
HETATM   20  N   UNL     1     -10.826   6.825  71.626  1.00  0.00    -0.226 NA 
HETATM   21  C   UNL     1      -9.843   5.325  70.001  1.00  0.00    -0.218 C  
HETATM   22  O   UNL     1     -10.828   5.664  67.912  1.00  0.00    -0.211 OA 
HETATM   23  H   UNL     1     -10.057   4.890  72.019  1.00  0.00     0.000 HD 
HETATM   24  N   UNL     1     -10.218   5.588  71.293  1.00  0.00    -0.213 N  
HETATM   25  O   UNL     1      -9.048   4.452  69.692  1.00  0.00    -0.095 OA 
ENDBRANCH  14  15
ENDBRANCH  13  14
ENDBRANCH   4  13
BRANCH   6  26
HETATM   26  N   UNL     1      -9.971  15.044  65.959  1.00  0.00    -0.290 N  
HETATM   27  O   UNL     1      -7.821  15.732  66.256  1.00  0.00    -0.071 OA 
HETATM   28  C   UNL     1      -8.771  15.082  66.687  1.00  0.00    -0.254 C  
HETATM   29  H   UNL     1      -9.910  15.543  65.072  1.00  0.00     0.000 HD 
BRANCH  28  30
HETATM   30  C   UNL     1      -8.523  14.202  67.883  1.00  0.00    -0.167 C  
BRANCH  30  31
HETATM   31  C   UNL     1      -8.126  12.790  67.811  1.00  0.00    -0.168 A  
HETATM   32  H2  UNL     1      -6.570   9.263  65.955  1.00  0.00     0.000 HD 
HETATM   33  C   UNL     1      -7.455  12.172  68.855  1.00  0.00    -0.027 A  
HETATM   34  H1  UNL     1      -7.515  10.243  64.833  1.00  0.00     0.000 HD 
HETATM   35  N   UNL     1      -8.072  12.073  66.605  1.00  0.00    -0.084 NA 
HETATM   36  N   UNL     1      -7.140  10.088  65.769  1.00  0.00    -0.110 NA 
HETATM   37  S   UNL     1      -6.757  10.700  68.335  1.00  0.00    -0.061 SA 
HETATM   38  C   UNL     1      -7.389  10.960  66.757  1.00  0.00    -0.134 A  
ENDBRANCH  30  31
BRANCH  30  39
HETATM   39  N   UNL     1      -8.851  14.534  69.087  1.00  0.00    -0.375 NA 
HETATM   40  H   UNL     1      -9.642  14.068  69.531  1.00  0.00     0.000 HD 
BRANCH  39  41
HETATM   41  O   UNL     1      -8.157  15.512  69.800  1.00  0.00    -0.183 OA 
HETATM   42  C   UNL     1      -6.801  15.818  69.536  1.00  0.00    -0.187 C  
ENDBRANCH  39  41
ENDBRANCH  30  39
ENDBRANCH  28  30
ENDBRANCH   6  26
TORSDOF 8
ENDMDL
MODEL      111
REMARK 921   NORMALIZED FREE ENERGY PREDICTED BY IDOCK:   -6.28 KCAL/MOL
REMARK 922        TOTAL FREE ENERGY PREDICTED BY IDOCK:  -10.47 KCAL/MOL
REMARK 923 INTER-LIGAND FREE ENERGY PREDICTED BY IDOCK:   -8.75 KCAL/MOL
REMARK 924 INTRA-LIGAND FREE ENERGY PREDICTED BY IDOCK:   -1.72 KCAL/MOL
REMARK 927      BINDING AFFINITY PREDICTED BY RF-SCORE:    0.00 PKD
ROOT
HETATM    1  C   UNL     1      -9.307   8.524  72.248  1.00  0.00    -0.293 C  
HETATM    2  S   UNL     1      -7.997   8.683  71.064  1.00  0.00    -0.146 SA 
HETATM    3  C   UNL     1      -8.763   9.595  69.673  1.00  0.00    -0.197 C  
HETATM    4  C   UNL     1     -10.181  10.074  69.797  1.00  0.00    -0.286 C  
HETATM    5  CA  UNL     1     -10.979   9.845  70.885  1.00  0.00    -0.322 C  
HETATM    6  CA  UNL     1     -10.026   7.260  72.886  1.00  0.00    -0.213 C  
HETATM    7  C   UNL     1     -11.268   8.199  72.773  1.00  0.00    -0.337 C  
HETATM    8  N   UNL     1     -10.609   9.018  71.912  1.00  0.00    -0.349 N  
HETATM    9  C   UNL     1     -12.325  10.517  70.956  1.00  0.00    -0.399 C  
HETATM   10  O   UNL     1     -12.430   8.075  73.075  1.00  0.00    -0.038 OA 
HETATM   11  O   UNL     1     -13.351   9.814  71.475  1.00  0.00    -0.378 OA 
HETATM   12  OXT UNL     1     -12.498  11.666  70.580  1.00  0.00    -0.333 OA 
ENDROOT
BRANCH   4  13
HETATM   13  C   UNL     1     -10.754  10.810  68.547  1.00  0.00    -0.210 C  
BRANCH  13  14
HETATM   14  S   UNL     1      -9.682  11.912  67.542  1.00  0.00    -0.184 SA 
BRANCH  14  15
HETATM   15  C   UNL     1     -10.633  12.378  66.111  1.00  0.00    -0.254 C  
HETATM   16  N   UNL     1     -11.535  13.270  66.327  1.00  0.00    -0.313 N  
HETATM   17  H   UNL     1     -11.608  13.751  67.224  1.00  0.00     0.000 HD 
HETATM   18  C   UNL     1      -9.562  10.571  64.663  1.00  0.00    -0.292 C  
HETATM   19  C   UNL     1     -12.399  13.545  65.287  1.00  0.00    -0.467 C  
HETATM   20  N   UNL     1     -10.437  11.705  64.901  1.00  0.00    -0.274 NA 
HETATM   21  C   UNL     1     -12.055  13.167  63.848  1.00  0.00    -0.470 C  
HETATM   22  O   UNL     1     -13.531  14.001  65.451  1.00  0.00    -0.679 OA 
HETATM   23  H   UNL     1     -11.171  11.532  62.921  1.00  0.00     0.000 HD 
HETATM   24  N   UNL     1     -11.224  12.078  63.781  1.00  0.00    -0.402 N  
HETATM   25  O   UNL     1     -12.508  13.732  62.866  1.00  0.00    -0.601 OA 
ENDBRANCH  14  15
ENDBRANCH  13  14
ENDBRANCH   4  13
BRANCH   6  26
HETATM   26  N   UNL     1     -10.349   5.839  72.403  1.00  0.00    -0.194 N  
HETATM   27  O   UNL     1     -10.302   3.874  71.252  1.00  0.00    -0.000 OA 
HETATM   28  C   UNL     1      -9.765   4.956  71.479  1.00  0.00    -0.172 C  
HETATM   29  H   UNL     1     -11.175   5.447  72.854  1.00  0.00     0.000 HD 
BRANCH  28  30
HETATM   30  C   UNL     1      -8.399   5.190  70.893  1.00  0.00    -0.114 C  
BRANCH  30  31
HETATM   31  C   UNL     1      -8.137   5.483  69.478  1.00  0.00    -0.101 A  
HETATM   32  H2  UNL     1      -8.738   7.448  65.724  1.00  0.00     0.000 HD 
HETATM   33  C   UNL     1      -6.846   5.594  68.987  1.00  0.00    -0.062 A  
HETATM   34  H1  UNL     1     -10.257   7.148  66.568  1.00  0.00     0.000 HD 
HETATM   35  N   UNL     1      -9.115   6.005  68.614  1.00  0.00    -0.117 NA 
HETATM   36  N   UNL     1      -9.241   7.071  66.528  1.00  0.00    -0.162 NA 
HETATM   37  S   UNL     1      -6.848   6.348  67.452  1.00  0.00    -0.072 SA 
HETATM   38  C   UNL     1      -8.561   6.478  67.520  1.00  0.00    -0.119 A  
ENDBRANCH  30  31
BRANCH  30  39
HETATM   39  N   UNL     1      -7.302   4.936  71.527  1.00  0.00    -0.068 NA 
HETATM   40  H   UNL     1      -6.444   4.797  70.995  1.00  0.00     0.000 HD 
BRANCH  39  41
HETATM   41  O   UNL     1      -7.257   4.846  72.919  1.00  0.00    -0.080 OA 
HETATM   42  C   UNL     1      -7.164   3.606  73.592  1.00  0.00    -0.056 C  
ENDBRANCH  39  41
ENDBRANCH  30  39
ENDBRANCH  28  30
ENDBRANCH   6  26
TORSDOF 8
ENDMDL
MODEL      112
REMARK 921   NORMALIZED FREE ENERGY PREDICTED BY IDOCK:   -6.26 KCAL/MOL
REMARK 922        TOTAL FREE ENERGY PREDICTED BY IDOCK:  -10.45 KCAL/MOL
REMARK 923 INTER-LIGAND FREE ENERGY PREDICTED BY IDOCK:   -7.95 KCAL/MOL
REMARK 924 INTRA-LIGAND FREE ENERGY PREDICTED BY IDOCK:   -2.50 KCAL/MOL
REMARK 927      BINDING AFFINITY PREDICTED BY RF-SCORE:    0.00 PKD
ROOT
HETATM    1  C   UNL     1      -7.394   7.531  66.947  1.00  0.00    -0.093 C  
HETATM    2  S   UNL     1      -5.762   8.218  66.997  1.00  0.00    -0.042 SA 
HETATM    3  C   UNL     1      -5.989   9.850  67.796  1.00  0.00    -0.047 C  
HETATM    4  C   UNL     1      -7.351  10.244  68.295  1.00  0.00    -0.085 C  
HETATM    5  CA  UNL     1      -8.472   9.471  68.162  1.00  0.00    -0.119 C  
HETATM    6  CA  UNL     1      -8.329   7.077  65.745  1.00  0.00    -0.143 C  
HETATM    7  C   UNL     1      -9.429   7.668  66.680  1.00  0.00    -0.198 C  
HETATM    8  N   UNL     1      -8.493   8.320  67.421  1.00  0.00    -0.124 N  
HETATM    9  C   UNL     1      -9.741   9.904  68.847  1.00  0.00    -0.175 C  
HETATM   10  O   UNL     1     -10.629   7.764  66.591  1.00  0.00    -0.276 OA 
HETATM   11  O   UNL     1     -10.905   9.706  68.198  1.00  0.00    -0.237 OA 
HETATM   12  OXT UNL     1      -9.740  10.402  69.963  1.00  0.00    -0.091 OA 
ENDROOT
BRANCH   4  13
HETATM   13  C   UNL     1      -7.450  11.665  68.928  1.00  0.00    -0.092 C  
BRANCH  13  14
HETATM   14  S   UNL     1      -7.414  13.163  67.865  1.00  0.00    -0.155 SA 
BRANCH  14  15
HETATM   15  C   UNL     1      -8.963  14.004  68.120  1.00  0.00    -0.183 C  
HETATM   16  N   UNL     1      -9.806  13.373  68.860  1.00  0.00    -0.426 N  
HETATM   17  H   UNL     1      -9.550  12.518  69.354  1.00  0.00     0.000 HD 
HETATM   18  C   UNL     1      -8.370  15.849  66.461  1.00  0.00    -0.295 C  
HETATM   19  C   UNL     1     -11.073  13.910  68.954  1.00  0.00    -0.266 C  
HETATM   20  N   UNL     1      -9.219  15.201  67.446  1.00  0.00    -0.190 NA 
HETATM   21  C   UNL     1     -11.348  15.367  68.586  1.00  0.00    -0.330 C  
HETATM   22  O   UNL     1     -12.072  13.242  69.226  1.00  0.00    -0.301 OA 
HETATM   23  H   UNL     1     -10.717  16.655  67.086  1.00  0.00     0.000 HD 
HETATM   24  N   UNL     1     -10.469  15.840  67.645  1.00  0.00    -0.276 N  
HETATM   25  O   UNL     1     -12.274  16.022  69.035  1.00  0.00    -0.205 OA 
ENDBRANCH  14  15
ENDBRANCH  13  14
ENDBRANCH   4  13
BRANCH   6  26
HETATM   26  N   UNL     1      -8.522   7.531  64.291  1.00  0.00    -0.366 N  
HETATM   27  O   UNL     1      -8.950   8.807  62.454  1.00  0.00    -0.157 OA 
HETATM   28  C   UNL     1      -8.778   8.765  63.671  1.00  0.00     0.048 C  
HETATM   29  H   UNL     1      -8.446   6.763  63.625  1.00  0.00     0.000 HD 
BRANCH  28  30
HETATM   30  C   UNL     1      -8.662  10.075  64.402  1.00  0.00    -0.199 C  
BRANCH  30  31
HETATM   31  C   UNL     1      -9.736  11.072  64.503  1.00  0.00    -0.273 A  
HETATM   32  H2  UNL     1     -13.603  12.734  63.735  1.00  0.00     0.000 HD 
HETATM   33  C   UNL     1     -10.043  11.687  65.706  1.00  0.00    -0.240 A  
HETATM   34  H1  UNL     1     -12.947  11.900  62.327  1.00  0.00     0.000 HD 
HETATM   35  N   UNL     1     -10.732  11.222  63.524  1.00  0.00    -0.375 NA 
HETATM   36  N   UNL     1     -12.848  12.208  63.294  1.00  0.00    -0.712 NA 
HETATM   37  S   UNL     1     -11.570  12.451  65.621  1.00  0.00    -0.399 SA 
HETATM   38  C   UNL     1     -11.736  11.930  63.990  1.00  0.00    -0.378 A  
ENDBRANCH  30  31
BRANCH  30  39
HETATM   39  N   UNL     1      -7.539  10.554  64.823  1.00  0.00    -0.333 NA 
HETATM   40  H   UNL     1      -7.547  11.370  65.435  1.00  0.00     0.000 HD 
BRANCH  39  41
HETATM   41  O   UNL     1      -6.314   9.990  64.465  1.00  0.00    -0.116 OA 
HETATM   42  C   UNL     1      -5.178  10.779  64.168  1.00  0.00    -0.099 C  
ENDBRANCH  39  41
ENDBRANCH  30  39
ENDBRANCH  28  30
ENDBRANCH   6  26
TORSDOF 8
ENDMDL
MODEL      113
REMARK 921   NORMALIZED FREE ENERGY PREDICTED BY IDOCK:   -6.23 KCAL/MOL
REMARK 922        TOTAL FREE ENERGY PREDICTED BY IDOCK:  -10.41 KCAL/MOL
REMARK 923 INTER-LIGAND FREE ENERGY PREDICTED BY IDOCK:   -9.17 KCAL/MOL
REMARK 924 INTRA-LIGAND FREE ENERGY PREDICTED BY IDOCK:   -1.24 KCAL/MOL
REMARK 927      BINDING AFFINITY PREDICTED BY RF-SCORE:    0.00 PKD
ROOT
HETATM    1  C   UNL     1      -8.751  10.854  65.524  1.00  0.00    -0.171 C  
HETATM    2  S   UNL     1      -8.933  10.503  67.252  1.00  0.00    -0.139 SA 
HETATM    3  C   UNL     1      -8.952   8.674  67.335  1.00  0.00    -0.133 C  
HETATM    4  C   UNL     1      -8.745   7.876  66.079  1.00  0.00    -0.182 C  
HETATM    5  CA  UNL     1      -8.574   8.426  64.838  1.00  0.00    -0.080 C  
HETATM    6  CA  UNL     1      -9.670  11.630  64.486  1.00  0.00    -0.178 C  
HETATM    7  C   UNL     1      -9.147  10.508  63.536  1.00  0.00    -0.247 C  
HETATM    8  N   UNL     1      -8.728   9.764  64.594  1.00  0.00    -0.178 N  
HETATM    9  C   UNL     1      -8.213   7.525  63.686  1.00  0.00     0.062 C  
HETATM   10  O   UNL     1      -9.326  10.261  62.368  1.00  0.00    -0.279 OA 
HETATM   11  O   UNL     1      -8.762   7.792  62.484  1.00  0.00     0.045 OA 
HETATM   12  OXT UNL     1      -7.435   6.592  63.810  1.00  0.00    -0.071 OA 
ENDROOT
BRANCH   4  13
HETATM   13  C   UNL     1      -8.812   6.328  66.247  1.00  0.00    -0.147 C  
BRANCH  13  14
HETATM   14  S   UNL     1     -10.389   5.509  66.714  1.00  0.00    -0.294 SA 
BRANCH  14  15
HETATM   15  C   UNL     1     -10.524   5.640  68.485  1.00  0.00    -0.203 C  
HETATM   16  N   UNL     1     -11.380   6.507  68.900  1.00  0.00    -0.590 N  
HETATM   17  H   UNL     1     -12.010   6.987  68.258  1.00  0.00     0.000 HD 
HETATM   18  C   UNL     1      -8.558   4.062  68.871  1.00  0.00    -0.084 C  
HETATM   19  C   UNL     1     -11.404   6.756  70.257  1.00  0.00    -0.352 C  
HETATM   20  N   UNL     1      -9.657   4.907  69.301  1.00  0.00    -0.155 NA 
HETATM   21  C   UNL     1     -10.794   5.774  71.255  1.00  0.00    -0.247 C  
HETATM   22  O   UNL     1     -11.808   7.813  70.743  1.00  0.00    -0.271 OA 
HETATM   23  H   UNL     1      -9.079   4.605  71.317  1.00  0.00     0.000 HD 
HETATM   24  N   UNL     1      -9.767   5.047  70.708  1.00  0.00    -0.182 N  
HETATM   25  O   UNL     1     -11.140   5.681  72.422  1.00  0.00    -0.248 OA 
ENDBRANCH  14  15
ENDBRANCH  13  14
ENDBRANCH   4  13
BRANCH   6  26
HETATM   26  N   UNL     1     -11.181  11.844  64.327  1.00  0.00    -0.342 N  
HETATM   27  O   UNL     1     -13.338  12.467  64.710  1.00  0.00    -0.773 OA 
HETATM   28  C   UNL     1     -12.162  12.529  65.064  1.00  0.00    -0.456 C  
HETATM   29  H   UNL     1     -11.559  11.386  63.498  1.00  0.00     0.000 HD 
BRANCH  28  30
HETATM   30  C   UNL     1     -11.817  13.499  66.161  1.00  0.00    -0.389 C  
BRANCH  30  31
HETATM   31  C   UNL     1     -11.663  13.137  67.576  1.00  0.00    -0.366 A  
HETATM   32  H2  UNL     1     -12.186  13.590  71.799  1.00  0.00     0.000 HD 
HETATM   33  C   UNL     1     -11.784  11.826  68.006  1.00  0.00    -0.293 A  
HETATM   34  H1  UNL     1     -11.974  15.141  70.985  1.00  0.00     0.000 HD 
HETATM   35  N   UNL     1     -11.733  14.079  68.616  1.00  0.00    -0.332 NA 
HETATM   36  N   UNL     1     -12.028  14.123  70.943  1.00  0.00    -0.323 NA 
HETATM   37  S   UNL     1     -11.986  11.764  69.703  1.00  0.00    -0.291 SA 
HETATM   38  C   UNL     1     -11.893  13.479  69.774  1.00  0.00    -0.329 A  
ENDBRANCH  30  31
BRANCH  30  39
HETATM   39  N   UNL     1     -11.841  14.781  66.007  1.00  0.00    -0.263 NA 
HETATM   40  H   UNL     1     -12.643  15.306  66.354  1.00  0.00     0.000 HD 
BRANCH  39  41
HETATM   41  O   UNL     1     -10.802  15.470  65.380  1.00  0.00    -0.353 OA 
HETATM   42  C   UNL     1      -9.935  16.335  66.087  1.00  0.00    -0.334 C  
ENDBRANCH  39  41
ENDBRANCH  30  39
ENDBRANCH  28  30
ENDBRANCH   6  26
TORSDOF 8
ENDMDL
MODEL      114
REMARK 921   NORMALIZED FREE ENERGY PREDICTED BY IDOCK:   -6.23 KCAL/MOL
REMARK 922        TOTAL FREE ENERGY PREDICTED BY IDOCK:  -10.41 KCAL/MOL
REMARK 923 INTER-LIGAND FREE ENERGY PREDICTED BY IDOCK:   -8.19 KCAL/MOL
REMARK 924 INTRA-LIGAND FREE ENERGY PREDICTED BY IDOCK:   -2.23 KCAL/MOL
REMARK 927      BINDING AFFINITY PREDICTED BY RF-SCORE:    0.00 PKD
ROOT
HETATM    1  C   UNL     1     -10.998   6.303  69.229  1.00  0.00    -0.369 C  
HETATM    2  S   UNL     1      -9.942   5.250  68.273  1.00  0.00    -0.145 SA 
HETATM    3  C   UNL     1      -9.067   4.240  69.525  1.00  0.00    -0.120 C  
HETATM    4  C   UNL     1      -9.419   4.399  70.978  1.00  0.00    -0.232 C  
HETATM    5  CA  UNL     1     -10.343   5.289  71.452  1.00  0.00    -0.221 C  
HETATM    6  CA  UNL     1     -11.087   7.883  69.375  1.00  0.00     0.081 C  
HETATM    7  C   UNL     1     -11.405   7.497  70.853  1.00  0.00    -0.277 C  
HETATM    8  N   UNL     1     -10.932   6.238  70.659  1.00  0.00    -0.288 N  
HETATM    9  C   UNL     1     -10.723   5.238  72.909  1.00  0.00    -0.253 C  
HETATM   10  O   UNL     1     -11.665   8.142  71.840  1.00  0.00    -0.275 OA 
HETATM   11  O   UNL     1     -10.942   6.407  73.542  1.00  0.00    -0.222 OA 
HETATM   12  OXT UNL     1     -10.854   4.183  73.509  1.00  0.00    -0.205 OA 
ENDROOT
BRANCH   4  13
HETATM   13  C   UNL     1      -8.596   3.522  71.969  1.00  0.00    -0.086 C  
BRANCH  13  14
HETATM   14  S   UNL     1      -7.094   4.196  72.783  1.00  0.00    -0.064 SA 
BRANCH  14  15
HETATM   15  C   UNL     1      -7.007   5.919  72.343  1.00  0.00    -0.083 C  
HETATM   16  N   UNL     1      -7.676   6.708  73.109  1.00  0.00    -0.095 N  
HETATM   17  H   UNL     1      -8.117   6.374  73.966  1.00  0.00     0.000 HD 
HETATM   18  C   UNL     1      -5.731   5.428  70.190  1.00  0.00    -0.016 C  
HETATM   19  C   UNL     1      -7.768   8.027  72.715  1.00  0.00    -0.128 C  
HETATM   20  N   UNL     1      -6.338   6.303  71.177  1.00  0.00    -0.047 NA 
HETATM   21  C   UNL     1      -6.793   8.622  71.701  1.00  0.00    -0.085 C  
HETATM   22  O   UNL     1      -8.687   8.771  73.056  1.00  0.00    -0.368 OA 
HETATM   23  H   UNL     1      -5.914   7.968  69.938  1.00  0.00     0.000 HD 
HETATM   24  N   UNL     1      -6.304   7.678  70.834  1.00  0.00    -0.038 N  
HETATM   25  O   UNL     1      -6.520   9.809  71.631  1.00  0.00    -0.309 OA 
ENDBRANCH  14  15
ENDBRANCH  13  14
ENDBRANCH   4  13
BRANCH   6  26
HETATM   26  N   UNL     1     -10.077   9.036  69.298  1.00  0.00    -0.189 N  
HETATM   27  O   UNL     1      -9.076  11.015  68.777  1.00  0.00    -0.172 OA 
HETATM   28  C   UNL     1     -10.089  10.320  68.728  1.00  0.00    -0.187 C  
HETATM   29  H   UNL     1      -9.197   8.822  69.768  1.00  0.00     0.000 HD 
BRANCH  28  30
HETATM   30  C   UNL     1     -11.351  10.967  68.224  1.00  0.00    -0.299 C  
BRANCH  30  31
HETATM   31  C   UNL     1     -11.410  11.929  67.116  1.00  0.00    -0.331 A  
HETATM   32  H2  UNL     1     -12.080  13.206  63.087  1.00  0.00     0.000 HD 
HETATM   33  C   UNL     1     -11.934  13.200  67.287  1.00  0.00    -0.335 A  
HETATM   34  H1  UNL     1     -11.371  11.592  63.164  1.00  0.00     0.000 HD 
HETATM   35  N   UNL     1     -11.279  11.551  65.770  1.00  0.00    -0.223 NA 
HETATM   36  N   UNL     1     -11.714  12.428  63.637  1.00  0.00    -0.472 NA 
HETATM   37  S   UNL     1     -12.266  13.924  65.774  1.00  0.00    -0.485 SA 
HETATM   38  C   UNL     1     -11.688  12.515  64.976  1.00  0.00    -0.362 A  
ENDBRANCH  30  31
BRANCH  30  39
HETATM   39  N   UNL     1     -12.476  10.914  68.857  1.00  0.00    -0.705 NA 
HETATM   40  H   UNL     1     -13.341  10.845  68.322  1.00  0.00     0.000 HD 
BRANCH  39  41
HETATM   41  O   UNL     1     -12.543  10.948  70.250  1.00  0.00    -0.312 OA 
HETATM   42  C   UNL     1     -12.439  12.154  70.981  1.00  0.00    -0.269 C  
ENDBRANCH  39  41
ENDBRANCH  30  39
ENDBRANCH  28  30
ENDBRANCH   6  26
TORSDOF 8
ENDMDL
MODEL      115
REMARK 921   NORMALIZED FREE ENERGY PREDICTED BY IDOCK:   -6.23 KCAL/MOL
REMARK 922        TOTAL FREE ENERGY PREDICTED BY IDOCK:  -10.41 KCAL/MOL
REMARK 923 INTER-LIGAND FREE ENERGY PREDICTED BY IDOCK:   -9.43 KCAL/MOL
REMARK 924 INTRA-LIGAND FREE ENERGY PREDICTED BY IDOCK:   -0.97 KCAL/MOL
REMARK 927      BINDING AFFINITY PREDICTED BY RF-SCORE:    0.00 PKD
ROOT
HETATM    1  C   UNL     1      -8.788  12.059  68.087  1.00  0.00    -0.182 C  
HETATM    2  S   UNL     1      -8.019  10.909  69.193  1.00  0.00    -0.067 SA 
HETATM    3  C   UNL     1      -8.274   9.282  68.393  1.00  0.00    -0.115 C  
HETATM    4  C   UNL     1      -8.938   9.218  67.047  1.00  0.00    -0.142 C  
HETATM    5  CA  UNL     1      -9.412  10.308  66.370  1.00  0.00    -0.174 C  
HETATM    6  CA  UNL     1      -9.996  13.075  68.267  1.00  0.00    -0.235 C  
HETATM    7  C   UNL     1     -10.283  12.637  66.797  1.00  0.00    -0.237 C  
HETATM    8  N   UNL     1      -9.465  11.559  66.926  1.00  0.00    -0.179 N  
HETATM    9  C   UNL     1      -9.908  10.131  64.959  1.00  0.00    -0.322 C  
HETATM   10  O   UNL     1     -11.124  12.946  65.989  1.00  0.00    -0.273 OA 
HETATM   11  O   UNL     1     -10.988  10.842  64.580  1.00  0.00    -0.211 OA 
HETATM   12  OXT UNL     1      -9.354   9.389  64.164  1.00  0.00    -0.111 OA 
ENDROOT
BRANCH   4  13
HETATM   13  C   UNL     1      -9.141   7.786  66.464  1.00  0.00    -0.170 C  
BRANCH  13  14
HETATM   14  S   UNL     1     -10.671   6.838  66.835  1.00  0.00    -0.279 SA 
BRANCH  14  15
HETATM   15  C   UNL     1     -10.780   6.723  68.608  1.00  0.00    -0.234 C  
HETATM   16  N   UNL     1     -11.195   7.790  69.195  1.00  0.00    -0.404 N  
HETATM   17  H   UNL     1     -11.545   8.590  68.668  1.00  0.00     0.000 HD 
HETATM   18  C   UNL     1      -9.683   4.421  68.646  1.00  0.00    -0.120 C  
HETATM   19  C   UNL     1     -11.144   7.801  70.574  1.00  0.00    -0.257 C  
HETATM   20  N   UNL     1     -10.327   5.570  69.256  1.00  0.00    -0.250 NA 
HETATM   21  C   UNL     1     -11.034   6.504  71.374  1.00  0.00    -0.258 C  
HETATM   22  O   UNL     1     -11.071   8.834  71.240  1.00  0.00    -0.242 OA 
HETATM   23  H   UNL     1      -9.982   4.727  71.169  1.00  0.00     0.000 HD 
HETATM   24  N   UNL     1     -10.402   5.512  70.671  1.00  0.00    -0.244 N  
HETATM   25  O   UNL     1     -11.415   6.379  72.527  1.00  0.00    -0.270 OA 
ENDBRANCH  14  15
ENDBRANCH  13  14
ENDBRANCH   4  13
BRANCH   6  26
HETATM   26  N   UNL     1     -11.279  13.093  69.110  1.00  0.00    -0.342 N  
HETATM   27  O   UNL     1     -12.940  13.753  70.522  1.00  0.00    -0.203 OA 
HETATM   28  C   UNL     1     -11.927  14.060  69.897  1.00  0.00    -0.336 C  
HETATM   29  H   UNL     1     -11.774  12.202  69.095  1.00  0.00     0.000 HD 
BRANCH  28  30
HETATM   30  C   UNL     1     -11.549  15.516  69.860  1.00  0.00    -0.335 C  
BRANCH  30  31
HETATM   31  C   UNL     1     -10.621  16.113  68.891  1.00  0.00    -0.275 A  
HETATM   32  H2  UNL     1      -9.513  18.229  65.340  1.00  0.00     0.000 HD 
HETATM   33  C   UNL     1      -9.502  16.821  69.299  1.00  0.00    -0.091 A  
HETATM   34  H1  UNL     1     -10.925  17.202  65.089  1.00  0.00     0.000 HD 
HETATM   35  N   UNL     1     -10.954  16.318  67.542  1.00  0.00    -0.260 NA 
HETATM   36  N   UNL     1     -10.190  17.556  65.701  1.00  0.00    -0.621 NA 
HETATM   37  S   UNL     1      -8.866  17.743  68.007  1.00  0.00    -0.265 SA 
HETATM   38  C   UNL     1     -10.105  17.145  66.975  1.00  0.00    -0.297 A  
ENDBRANCH  30  31
BRANCH  30  39
HETATM   39  N   UNL     1     -11.827  16.345  70.811  1.00  0.00    -0.485 NA 
HETATM   40  H   UNL     1     -12.167  17.276  70.572  1.00  0.00     0.000 HD 
BRANCH  39  41
HETATM   41  O   UNL     1     -11.677  16.004  72.156  1.00  0.00    -0.455 OA 
HETATM   42  C   UNL     1     -12.770  15.973  73.053  1.00  0.00    -0.493 C  
ENDBRANCH  39  41
ENDBRANCH  30  39
ENDBRANCH  28  30
ENDBRANCH   6  26
TORSDOF 8
ENDMDL
MODEL      116
REMARK 921   NORMALIZED FREE ENERGY PREDICTED BY IDOCK:   -6.22 KCAL/MOL
REMARK 922        TOTAL FREE ENERGY PREDICTED BY IDOCK:  -10.39 KCAL/MOL
REMARK 923 INTER-LIGAND FREE ENERGY PREDICTED BY IDOCK:   -8.01 KCAL/MOL
REMARK 924 INTRA-LIGAND FREE ENERGY PREDICTED BY IDOCK:   -2.38 KCAL/MOL
REMARK 927      BINDING AFFINITY PREDICTED BY RF-SCORE:    0.00 PKD
ROOT
HETATM    1  C   UNL     1      -6.414  10.811  68.425  1.00  0.00    -0.054 C  
HETATM    2  S   UNL     1      -6.752  12.111  67.269  1.00  0.00    -0.125 SA 
HETATM    3  C   UNL     1      -8.580  12.189  67.209  1.00  0.00    -0.180 C  
HETATM    4  C   UNL     1      -9.387  11.299  68.112  1.00  0.00    -0.181 C  
HETATM    5  CA  UNL     1      -8.846  10.384  68.974  1.00  0.00    -0.172 C  
HETATM    6  CA  UNL     1      -5.653   9.423  68.283  1.00  0.00    -0.037 C  
HETATM    7  C   UNL     1      -6.778   8.969  69.264  1.00  0.00    -0.049 C  
HETATM    8  N   UNL     1      -7.511  10.081  68.988  1.00  0.00    -0.081 N  
HETATM    9  C   UNL     1      -9.752   9.670  69.941  1.00  0.00    -0.231 C  
HETATM   10  O   UNL     1      -7.036   7.919  69.801  1.00  0.00    -0.059 OA 
HETATM   11  O   UNL     1      -9.500   8.371  70.196  1.00  0.00    -0.162 OA 
HETATM   12  OXT UNL     1     -10.678  10.235  70.502  1.00  0.00    -0.283 OA 
ENDROOT
BRANCH   4  13
HETATM   13  C   UNL     1     -10.934  11.413  67.962  1.00  0.00    -0.237 C  
BRANCH  13  14
HETATM   14  S   UNL     1     -11.797  12.982  68.375  1.00  0.00    -0.292 SA 
BRANCH  14  15
HETATM   15  C   UNL     1     -11.638  14.040  66.952  1.00  0.00    -0.386 C  
HETATM   16  N   UNL     1     -12.338  13.685  65.933  1.00  0.00    -0.462 N  
HETATM   17  H   UNL     1     -13.018  12.926  65.988  1.00  0.00     0.000 HD 
HETATM   18  C   UNL     1      -9.779  15.413  68.033  1.00  0.00    -0.207 C  
HETATM   19  C   UNL     1     -12.125  14.380  64.760  1.00  0.00    -0.452 C  
HETATM   20  N   UNL     1     -10.719  15.093  66.973  1.00  0.00    -0.302 NA 
HETATM   21  C   UNL     1     -11.452  15.751  64.761  1.00  0.00    -0.255 C  
HETATM   22  O   UNL     1     -12.354  13.910  63.645  1.00  0.00    -0.696 OA 
HETATM   23  H   UNL     1      -9.857  16.612  65.774  1.00  0.00     0.000 HD 
HETATM   24  N   UNL     1     -10.592  15.907  65.818  1.00  0.00    -0.348 N  
HETATM   25  O   UNL     1     -11.616  16.594  63.894  1.00  0.00    -1.204 OA 
ENDBRANCH  14  15
ENDBRANCH  13  14
ENDBRANCH   4  13
BRANCH   6  26
HETATM   26  N   UNL     1      -5.453   8.408  67.148  1.00  0.00    -0.037 N  
HETATM   27  O   UNL     1      -5.850   6.870  65.516  1.00  0.00    -0.033 OA 
HETATM   28  C   UNL     1      -6.318   7.678  66.317  1.00  0.00    -0.045 C  
HETATM   29  H   UNL     1      -4.469   8.223  66.954  1.00  0.00     0.000 HD 
BRANCH  28  30
HETATM   30  C   UNL     1      -7.790   7.976  66.221  1.00  0.00    -0.099 C  
BRANCH  30  31
HETATM   31  C   UNL     1      -8.853   7.097  66.724  1.00  0.00    -0.130 A  
HETATM   32  H2  UNL     1     -10.604   4.176  69.315  1.00  0.00     0.000 HD 
HETATM   33  C   UNL     1     -10.166   7.530  66.821  1.00  0.00    -0.254 A  
HETATM   34  H1  UNL     1      -8.903   3.842  68.990  1.00  0.00     0.000 HD 
HETATM   35  N   UNL     1      -8.593   5.922  67.448  1.00  0.00    -0.107 NA 
HETATM   36  N   UNL     1      -9.731   4.421  68.848  1.00  0.00    -0.163 NA 
HETATM   37  S   UNL     1     -11.076   6.478  67.815  1.00  0.00    -0.175 SA 
HETATM   38  C   UNL     1      -9.681   5.501  68.054  1.00  0.00    -0.131 A  
ENDBRANCH  30  31
BRANCH  30  39
HETATM   39  N   UNL     1      -8.274   8.926  65.492  1.00  0.00    -0.121 NA 
HETATM   40  H   UNL     1      -9.285   8.991  65.372  1.00  0.00     0.000 HD 
BRANCH  39  41
HETATM   41  O   UNL     1      -7.457   9.865  64.862  1.00  0.00    -0.124 OA 
HETATM   42  C   UNL     1      -7.444  10.034  63.458  1.00  0.00    -0.140 C  
ENDBRANCH  39  41
ENDBRANCH  30  39
ENDBRANCH  28  30
ENDBRANCH   6  26
TORSDOF 8
ENDMDL
MODEL      117
REMARK 921   NORMALIZED FREE ENERGY PREDICTED BY IDOCK:   -6.22 KCAL/MOL
REMARK 922        TOTAL FREE ENERGY PREDICTED BY IDOCK:  -10.39 KCAL/MOL
REMARK 923 INTER-LIGAND FREE ENERGY PREDICTED BY IDOCK:   -8.96 KCAL/MOL
REMARK 924 INTRA-LIGAND FREE ENERGY PREDICTED BY IDOCK:   -1.43 KCAL/MOL
REMARK 927      BINDING AFFINITY PREDICTED BY RF-SCORE:    0.00 PKD
ROOT
HETATM    1  C   UNL     1      -8.895  10.541  68.708  1.00  0.00    -0.158 C  
HETATM    2  S   UNL     1      -8.245  10.755  67.073  1.00  0.00    -0.130 SA 
HETATM    3  C   UNL     1      -9.307  12.053  66.338  1.00  0.00    -0.228 C  
HETATM    4  C   UNL     1     -10.369  12.702  67.180  1.00  0.00    -0.239 C  
HETATM    5  CA  UNL     1     -10.634  12.364  68.478  1.00  0.00    -0.231 C  
HETATM    6  CA  UNL     1      -9.535   9.291  69.451  1.00  0.00    -0.168 C  
HETATM    7  C   UNL     1     -10.440  10.408  70.059  1.00  0.00    -0.182 C  
HETATM    8  N   UNL     1     -10.056  11.287  69.096  1.00  0.00    -0.131 N  
HETATM    9  C   UNL     1     -11.611  13.199  69.264  1.00  0.00    -0.314 C  
HETATM   10  O   UNL     1     -11.343  10.398  70.860  1.00  0.00    -0.335 OA 
HETATM   11  O   UNL     1     -12.437  12.563  70.118  1.00  0.00    -0.156 OA 
HETATM   12  OXT UNL     1     -11.657  14.415  69.160  1.00  0.00    -0.269 OA 
ENDROOT
BRANCH   4  13
HETATM   13  C   UNL     1     -11.243  13.770  66.455  1.00  0.00    -0.316 C  
BRANCH  13  14
HETATM   14  S   UNL     1     -10.514  14.841  65.152  1.00  0.00    -0.417 SA 
BRANCH  14  15
HETATM   15  C   UNL     1     -10.076  16.375  65.942  1.00  0.00    -0.347 C  
HETATM   16  N   UNL     1     -10.822  17.377  65.631  1.00  0.00    -0.154 N  
HETATM   17  H   UNL     1     -11.667  17.262  65.071  1.00  0.00     0.000 HD 
HETATM   18  C   UNL     1      -7.961  15.383  66.964  1.00  0.00    -0.224 C  
HETATM   19  C   UNL     1     -10.425  18.615  66.093  1.00  0.00    -0.430 C  
HETATM   20  N   UNL     1      -8.930  16.440  66.739  1.00  0.00    -0.218 NA 
HETATM   21  C   UNL     1      -9.439  18.751  67.252  1.00  0.00    -0.301 C  
HETATM   22  O   UNL     1     -10.740  19.673  65.547  1.00  0.00    -0.473 OA 
HETATM   23  H   UNL     1      -7.702  17.774  67.835  1.00  0.00     0.000 HD 
HETATM   24  N   UNL     1      -8.587  17.679  67.338  1.00  0.00    -0.224 N  
HETATM   25  O   UNL     1      -9.377  19.724  67.986  1.00  0.00    -0.339 OA 
ENDBRANCH  14  15
ENDBRANCH  13  14
ENDBRANCH   4  13
BRANCH   6  26
HETATM   26  N   UNL     1     -10.362   8.075  69.009  1.00  0.00    -0.217 N  
HETATM   27  O   UNL     1     -11.541   6.126  69.035  1.00  0.00    -0.236 OA 
HETATM   28  C   UNL     1     -10.987   7.012  69.683  1.00  0.00    -0.236 C  
HETATM   29  H   UNL     1     -10.485   8.028  67.998  1.00  0.00     0.000 HD 
BRANCH  28  30
HETATM   30  C   UNL     1     -11.180   7.005  71.175  1.00  0.00    -0.270 C  
BRANCH  30  31
HETATM   31  C   UNL     1     -10.093   6.899  72.157  1.00  0.00    -0.181 A  
HETATM   32  H2  UNL     1      -6.292   5.618  73.649  1.00  0.00     0.000 HD 
HETATM   33  C   UNL     1      -9.676   7.994  72.897  1.00  0.00    -0.283 A  
HETATM   34  H1  UNL     1      -7.077   4.375  72.674  1.00  0.00     0.000 HD 
HETATM   35  N   UNL     1      -9.185   5.828  72.177  1.00  0.00    -0.146 NA 
HETATM   36  N   UNL     1      -7.088   5.306  73.091  1.00  0.00    -0.083 NA 
HETATM   37  S   UNL     1      -8.155   7.691  73.617  1.00  0.00    -0.178 SA 
HETATM   38  C   UNL     1      -8.138   6.122  72.914  1.00  0.00    -0.109 A  
ENDBRANCH  30  31
BRANCH  30  39
HETATM   39  N   UNL     1     -12.334   6.865  71.739  1.00  0.00    -0.353 NA 
HETATM   40  H   UNL     1     -12.732   5.930  71.826  1.00  0.00     0.000 HD 
BRANCH  39  41
HETATM   41  O   UNL     1     -13.052   7.953  72.234  1.00  0.00    -0.203 OA 
HETATM   42  C   UNL     1     -14.347   8.278  71.767  1.00  0.00    -0.483 C  
ENDBRANCH  39  41
ENDBRANCH  30  39
ENDBRANCH  28  30
ENDBRANCH   6  26
TORSDOF 8
ENDMDL
MODEL      118
REMARK 921   NORMALIZED FREE ENERGY PREDICTED BY IDOCK:   -6.20 KCAL/MOL
REMARK 922        TOTAL FREE ENERGY PREDICTED BY IDOCK:  -10.36 KCAL/MOL
REMARK 923 INTER-LIGAND FREE ENERGY PREDICTED BY IDOCK:   -8.77 KCAL/MOL
REMARK 924 INTRA-LIGAND FREE ENERGY PREDICTED BY IDOCK:   -1.59 KCAL/MOL
REMARK 927      BINDING AFFINITY PREDICTED BY RF-SCORE:    0.00 PKD
ROOT
HETATM    1  C   UNL     1     -10.553  10.806  66.831  1.00  0.00    -0.258 C  
HETATM    2  S   UNL     1     -10.194  11.295  68.496  1.00  0.00    -0.211 SA 
HETATM    3  C   UNL     1     -10.831  13.009  68.604  1.00  0.00    -0.259 C  
HETATM    4  C   UNL     1     -11.546  13.605  67.425  1.00  0.00    -0.389 C  
HETATM    5  CA  UNL     1     -11.731  12.963  66.232  1.00  0.00    -0.399 C  
HETATM    6  CA  UNL     1      -9.624  10.358  65.623  1.00  0.00    -0.226 C  
HETATM    7  C   UNL     1     -10.689  11.159  64.810  1.00  0.00    -0.264 C  
HETATM    8  N   UNL     1     -11.146  11.759  65.941  1.00  0.00    -0.315 N  
HETATM    9  C   UNL     1     -12.604  13.605  65.186  1.00  0.00    -0.430 C  
HETATM   10  O   UNL     1     -10.833  11.388  63.633  1.00  0.00    -0.380 OA 
HETATM   11  O   UNL     1     -12.230  13.488  63.897  1.00  0.00    -0.566 OA 
HETATM   12  OXT UNL     1     -13.632  14.199  65.473  1.00  0.00    -0.568 OA 
ENDROOT
BRANCH   4  13
HETATM   13  C   UNL     1     -12.020  15.080  67.602  1.00  0.00    -0.068 C  
BRANCH  13  14
HETATM   14  S   UNL     1     -11.491  16.060  69.063  1.00  0.00    -0.335 SA 
BRANCH  14  15
HETATM   15  C   UNL     1     -10.350  17.289  68.465  1.00  0.00    -0.371 C  
HETATM   16  N   UNL     1     -10.899  18.311  67.907  1.00  0.00    -0.303 N  
HETATM   17  H   UNL     1     -11.909  18.450  67.922  1.00  0.00     0.000 HD 
HETATM   18  C   UNL     1      -8.322  15.830  68.979  1.00  0.00    -0.236 C  
HETATM   19  C   UNL     1     -10.055  19.210  67.289  1.00  0.00    -0.376 C  
HETATM   20  N   UNL     1      -8.975  17.046  68.528  1.00  0.00    -0.256 NA 
HETATM   21  C   UNL     1      -8.562  19.249  67.613  1.00  0.00    -0.296 C  
HETATM   22  O   UNL     1     -10.410  19.951  66.372  1.00  0.00    -0.454 OA 
HETATM   23  H   UNL     1      -7.089  17.829  67.963  1.00  0.00     0.000 HD 
HETATM   24  N   UNL     1      -8.087  18.030  68.022  1.00  0.00    -0.250 N  
HETATM   25  O   UNL     1      -7.858  20.236  67.473  1.00  0.00    -0.295 OA 
ENDBRANCH  14  15
ENDBRANCH  13  14
ENDBRANCH   4  13
BRANCH   6  26
HETATM   26  N   UNL     1      -8.197  10.697  65.170  1.00  0.00    -0.289 N  
HETATM   27  O   UNL     1      -5.935  10.954  65.134  1.00  0.00    -0.057 OA 
HETATM   28  C   UNL     1      -6.918  10.504  65.718  1.00  0.00    -0.125 C  
HETATM   29  H   UNL     1      -8.172  11.169  64.267  1.00  0.00     0.000 HD 
BRANCH  28  30
HETATM   30  C   UNL     1      -6.673   9.601  66.897  1.00  0.00    -0.075 C  
BRANCH  30  31
HETATM   31  C   UNL     1      -7.107   8.201  66.979  1.00  0.00    -0.079 A  
HETATM   32  H2  UNL     1      -9.915   5.007  67.455  1.00  0.00     0.000 HD 
HETATM   33  C   UNL     1      -6.616   7.237  66.112  1.00  0.00    -0.052 A  
HETATM   34  H1  UNL     1     -10.293   6.384  68.490  1.00  0.00     0.000 HD 
HETATM   35  N   UNL     1      -8.263   7.800  67.669  1.00  0.00    -0.123 NA 
HETATM   36  N   UNL     1      -9.691   5.942  67.796  1.00  0.00    -0.115 NA 
HETATM   37  S   UNL     1      -7.593   5.834  66.155  1.00  0.00    -0.092 SA 
HETATM   38  C   UNL     1      -8.607   6.579  67.326  1.00  0.00    -0.111 A  
ENDBRANCH  30  31
BRANCH  30  39
HETATM   39  N   UNL     1      -6.253  10.028  68.041  1.00  0.00    -0.053 NA 
HETATM   40  H   UNL     1      -5.858   9.361  68.703  1.00  0.00     0.000 HD 
BRANCH  39  41
HETATM   41  O   UNL     1      -6.325  11.374  68.400  1.00  0.00    -0.046 OA 
HETATM   42  C   UNL     1      -5.170  12.178  68.550  1.00  0.00    -0.050 C  
ENDBRANCH  39  41
ENDBRANCH  30  39
ENDBRANCH  28  30
ENDBRANCH   6  26
TORSDOF 8
ENDMDL
MODEL      119
REMARK 921   NORMALIZED FREE ENERGY PREDICTED BY IDOCK:   -6.19 KCAL/MOL
REMARK 922        TOTAL FREE ENERGY PREDICTED BY IDOCK:  -10.35 KCAL/MOL
REMARK 923 INTER-LIGAND FREE ENERGY PREDICTED BY IDOCK:   -8.89 KCAL/MOL
REMARK 924 INTRA-LIGAND FREE ENERGY PREDICTED BY IDOCK:   -1.46 KCAL/MOL
REMARK 927      BINDING AFFINITY PREDICTED BY RF-SCORE:    0.00 PKD
ROOT
HETATM    1  C   UNL     1      -8.931   8.244  66.869  1.00  0.00    -0.146 C  
HETATM    2  S   UNL     1      -8.940   9.496  65.615  1.00  0.00    -0.198 SA 
HETATM    3  C   UNL     1     -10.092  10.765  66.262  1.00  0.00    -0.232 C  
HETATM    4  C   UNL     1     -10.693  10.589  67.627  1.00  0.00    -0.324 C  
HETATM    5  CA  UNL     1     -10.468   9.506  68.432  1.00  0.00    -0.224 C  
HETATM    6  CA  UNL     1      -9.338   6.709  66.852  1.00  0.00    -0.148 C  
HETATM    7  C   UNL     1      -9.846   7.066  68.284  1.00  0.00    -0.144 C  
HETATM    8  N   UNL     1      -9.789   8.395  68.007  1.00  0.00    -0.163 N  
HETATM    9  C   UNL     1     -10.998   9.523  69.842  1.00  0.00    -0.238 C  
HETATM   10  O   UNL     1     -10.372   6.424  69.161  1.00  0.00    -0.179 OA 
HETATM   11  O   UNL     1     -11.483   8.371  70.345  1.00  0.00    -0.234 OA 
HETATM   12  OXT UNL     1     -10.979  10.532  70.530  1.00  0.00    -0.271 OA 
ENDROOT
BRANCH   4  13
HETATM   13  C   UNL     1     -11.687  11.703  68.074  1.00  0.00    -0.281 C  
BRANCH  13  14
HETATM   14  S   UNL     1     -11.081  13.398  68.443  1.00  0.00    -0.289 SA 
BRANCH  14  15
HETATM   15  C   UNL     1     -11.233  14.332  66.935  1.00  0.00    -0.326 C  
HETATM   16  N   UNL     1     -12.137  13.907  66.124  1.00  0.00    -0.422 N  
HETATM   17  H   UNL     1     -12.789  13.169  66.389  1.00  0.00     0.000 HD 
HETATM   18  C   UNL     1      -9.184  15.754  67.469  1.00  0.00    -0.204 C  
HETATM   19  C   UNL     1     -12.183  14.499  64.879  1.00  0.00    -0.402 C  
HETATM   20  N   UNL     1     -10.331  15.366  66.668  1.00  0.00    -0.273 NA 
HETATM   21  C   UNL     1     -11.524  15.853  64.619  1.00  0.00    -0.263 C  
HETATM   22  O   UNL     1     -12.647  13.943  63.883  1.00  0.00    -0.697 OA 
HETATM   23  H   UNL     1      -9.748  16.764  65.187  1.00  0.00     0.000 HD 
HETATM   24  N   UNL     1     -10.456  16.079  65.448  1.00  0.00    -0.397 N  
HETATM   25  O   UNL     1     -11.872  16.624  63.738  1.00  0.00    -0.933 OA 
ENDBRANCH  14  15
ENDBRANCH  13  14
ENDBRANCH   4  13
BRANCH   6  26
HETATM   26  N   UNL     1     -10.368   5.870  66.083  1.00  0.00    -0.435 N  
HETATM   27  O   UNL     1     -11.337   4.219  64.848  1.00  0.00    -0.278 OA 
HETATM   28  C   UNL     1     -10.344   4.612  65.457  1.00  0.00    -0.198 C  
HETATM   29  H   UNL     1     -11.275   6.330  66.008  1.00  0.00     0.000 HD 
BRANCH  28  30
HETATM   30  C   UNL     1      -9.221   3.631  65.661  1.00  0.00    -0.156 C  
BRANCH  30  31
HETATM   31  C   UNL     1      -7.986   3.600  64.867  1.00  0.00    -0.090 A  
HETATM   32  H2  UNL     1      -4.636   5.272  62.795  1.00  0.00     0.000 HD 
HETATM   33  C   UNL     1      -6.985   2.676  65.119  1.00  0.00    -0.052 A  
HETATM   34  H1  UNL     1      -6.090   6.255  62.611  1.00  0.00     0.000 HD 
HETATM   35  N   UNL     1      -7.572   4.672  64.060  1.00  0.00    -0.066 NA 
HETATM   36  N   UNL     1      -5.627   5.426  62.985  1.00  0.00    -0.014 NA 
HETATM   37  S   UNL     1      -5.528   3.141  64.354  1.00  0.00    -0.010 SA 
HETATM   38  C   UNL     1      -6.308   4.537  63.724  1.00  0.00    -0.026 A  
ENDBRANCH  30  31
BRANCH  30  39
HETATM   39  N   UNL     1      -9.326   2.579  66.403  1.00  0.00    -0.366 NA 
HETATM   40  H   UNL     1      -9.118   1.666  65.999  1.00  0.00     0.000 HD 
BRANCH  39  41
HETATM   41  O   UNL     1      -9.714   2.653  67.741  1.00  0.00    -0.094 OA 
HETATM   42  C   UNL     1      -8.892   3.238  68.733  1.00  0.00    -0.115 C  
ENDBRANCH  39  41
ENDBRANCH  30  39
ENDBRANCH  28  30
ENDBRANCH   6  26
TORSDOF 8
ENDMDL
MODEL      120
REMARK 921   NORMALIZED FREE ENERGY PREDICTED BY IDOCK:   -6.19 KCAL/MOL
REMARK 922        TOTAL FREE ENERGY PREDICTED BY IDOCK:  -10.34 KCAL/MOL
REMARK 923 INTER-LIGAND FREE ENERGY PREDICTED BY IDOCK:   -8.39 KCAL/MOL
REMARK 924 INTRA-LIGAND FREE ENERGY PREDICTED BY IDOCK:   -1.95 KCAL/MOL
REMARK 927      BINDING AFFINITY PREDICTED BY RF-SCORE:    0.00 PKD
ROOT
HETATM    1  C   UNL     1     -11.626  14.260  68.693  1.00  0.00    -0.317 C  
HETATM    2  S   UNL     1     -11.783  15.230  70.167  1.00  0.00    -0.341 SA 
HETATM    3  C   UNL     1     -11.036  16.842  69.720  1.00  0.00    -0.090 C  
HETATM    4  C   UNL     1     -10.554  17.068  68.315  1.00  0.00    -0.372 C  
HETATM    5  CA  UNL     1     -10.599  16.124  67.326  1.00  0.00    -0.305 C  
HETATM    6  CA  UNL     1     -10.869  12.898  68.383  1.00  0.00    -0.254 C  
HETATM    7  C   UNL     1     -10.610  13.620  67.023  1.00  0.00    -0.274 C  
HETATM    8  N   UNL     1     -10.950  14.821  67.561  1.00  0.00    -0.294 N  
HETATM    9  C   UNL     1     -10.237  16.524  65.920  1.00  0.00    -0.349 C  
HETATM   10  O   UNL     1     -10.041  13.297  66.008  1.00  0.00    -0.288 OA 
HETATM   11  O   UNL     1      -9.549  15.640  65.172  1.00  0.00    -0.255 OA 
HETATM   12  OXT UNL     1     -10.564  17.602  65.447  1.00  0.00    -0.657 OA 
ENDROOT
BRANCH   4  13
HETATM   13  C   UNL     1      -9.903  18.457  68.042  1.00  0.00    -0.338 C  
BRANCH  13  14
HETATM   14  S   UNL     1      -8.124  18.740  68.406  1.00  0.00    -0.349 SA 
BRANCH  14  15
HETATM   15  C   UNL     1      -7.351  17.137  68.440  1.00  0.00    -0.220 C  
HETATM   16  N   UNL     1      -7.382  16.545  69.582  1.00  0.00     0.005 N  
HETATM   17  H   UNL     1      -7.916  16.922  70.366  1.00  0.00     0.000 HD 
HETATM   18  C   UNL     1      -6.467  17.380  66.060  1.00  0.00    -0.126 C  
HETATM   19  C   UNL     1      -6.659  15.376  69.696  1.00  0.00    -0.178 C  
HETATM   20  N   UNL     1      -6.683  16.666  67.305  1.00  0.00    -0.160 NA 
HETATM   21  C   UNL     1      -6.220  14.591  68.462  1.00  0.00    -0.089 C  
HETATM   22  O   UNL     1      -6.229  14.949  70.768  1.00  0.00    -0.094 OA 
HETATM   23  H   UNL     1      -5.474  15.082  66.587  1.00  0.00     0.000 HD 
HETATM   24  N   UNL     1      -6.054  15.397  67.365  1.00  0.00    -0.056 N  
HETATM   25  O   UNL     1      -5.989  13.392  68.461  1.00  0.00    -0.078 OA 
ENDBRANCH  14  15
ENDBRANCH  13  14
ENDBRANCH   4  13
BRANCH   6  26
HETATM   26  N   UNL     1      -9.596  12.221  68.912  1.00  0.00    -0.406 N  
HETATM   27  O   UNL     1      -8.078  10.646  69.544  1.00  0.00    -0.135 OA 
HETATM   28  C   UNL     1      -9.150  10.892  68.996  1.00  0.00    -0.098 C  
HETATM   29  H   UNL     1      -8.922  12.888  69.287  1.00  0.00     0.000 HD 
BRANCH  28  30
HETATM   30  C   UNL     1      -9.833   9.764  68.271  1.00  0.00    -0.148 C  
BRANCH  30  31
HETATM   31  C   UNL     1      -9.681   9.479  66.838  1.00  0.00    -0.182 A  
HETATM   32  H2  UNL     1      -9.623  10.403  62.661  1.00  0.00     0.000 HD 
HETATM   33  C   UNL     1      -8.665   8.666  66.365  1.00  0.00    -0.130 A  
HETATM   34  H1  UNL     1     -10.875  11.299  63.522  1.00  0.00     0.000 HD 
HETATM   35  N   UNL     1     -10.297  10.250  65.838  1.00  0.00    -0.211 NA 
HETATM   36  N   UNL     1     -10.115  10.619  63.528  1.00  0.00    -0.292 NA 
HETATM   37  S   UNL     1      -8.474   8.859  64.677  1.00  0.00    -0.142 SA 
HETATM   38  C   UNL     1      -9.756  10.005  64.666  1.00  0.00    -0.269 A  
ENDBRANCH  30  31
BRANCH  30  39
HETATM   39  N   UNL     1     -10.793   9.070  68.786  1.00  0.00    -0.423 NA 
HETATM   40  H   UNL     1     -11.740   9.448  68.772  1.00  0.00     0.000 HD 
BRANCH  39  41
HETATM   41  O   UNL     1     -10.575   7.817  69.361  1.00  0.00    -0.224 OA 
HETATM   42  C   UNL     1     -11.420   7.290  70.364  1.00  0.00    -0.248 C  
ENDBRANCH  39  41
ENDBRANCH  30  39
ENDBRANCH  28  30
ENDBRANCH   6  26
TORSDOF 8
ENDMDL
MODEL      121
REMARK 921   NORMALIZED FREE ENERGY PREDICTED BY IDOCK:   -6.18 KCAL/MOL
REMARK 922        TOTAL FREE ENERGY PREDICTED BY IDOCK:  -10.33 KCAL/MOL
REMARK 923 INTER-LIGAND FREE ENERGY PREDICTED BY IDOCK:   -8.64 KCAL/MOL
REMARK 924 INTRA-LIGAND FREE ENERGY PREDICTED BY IDOCK:   -1.69 KCAL/MOL
REMARK 927      BINDING AFFINITY PREDICTED BY RF-SCORE:    0.00 PKD
ROOT
HETATM    1  C   UNL     1      -9.165  11.123  68.521  1.00  0.00    -0.183 C  
HETATM    2  S   UNL     1      -7.420  11.426  68.569  1.00  0.00    -0.120 SA 
HETATM    3  C   UNL     1      -7.285  13.252  68.584  1.00  0.00    -0.106 C  
HETATM    4  C   UNL     1      -8.535  14.084  68.636  1.00  0.00    -0.103 C  
HETATM    5  CA  UNL     1      -9.802  13.568  68.638  1.00  0.00    -0.125 C  
HETATM    6  CA  UNL     1     -10.095  10.385  67.466  1.00  0.00    -0.192 C  
HETATM    7  C   UNL     1     -11.075  11.529  67.875  1.00  0.00    -0.256 C  
HETATM    8  N   UNL     1     -10.061  12.239  68.437  1.00  0.00    -0.218 N  
HETATM    9  C   UNL     1     -10.966  14.498  68.858  1.00  0.00    -0.256 C  
HETATM   10  O   UNL     1     -12.203  11.811  67.549  1.00  0.00    -0.526 OA 
HETATM   11  O   UNL     1     -12.093  14.271  68.154  1.00  0.00    -0.323 OA 
HETATM   12  OXT UNL     1     -10.919  15.421  69.656  1.00  0.00    -0.246 OA 
ENDROOT
BRANCH   4  13
HETATM   13  C   UNL     1      -8.318  15.627  68.610  1.00  0.00    -0.177 C  
BRANCH  13  14
HETATM   14  S   UNL     1      -8.205  16.525  67.011  1.00  0.00    -0.218 SA 
BRANCH  14  15
HETATM   15  C   UNL     1      -9.528  15.913  65.990  1.00  0.00    -0.354 C  
HETATM   16  N   UNL     1      -9.455  14.661  65.702  1.00  0.00    -0.524 N  
HETATM   17  H   UNL     1      -8.757  14.053  66.130  1.00  0.00     0.000 HD 
HETATM   18  C   UNL     1     -10.492  18.248  65.632  1.00  0.00    -0.095 C  
HETATM   19  C   UNL     1     -10.368  14.180  64.786  1.00  0.00    -0.359 C  
HETATM   20  N   UNL     1     -10.480  16.804  65.483  1.00  0.00    -0.587 NA 
HETATM   21  C   UNL     1     -11.652  14.945  64.467  1.00  0.00    -0.352 C  
HETATM   22  O   UNL     1     -10.168  13.182  64.093  1.00  0.00    -0.391 OA 
HETATM   23  H   UNL     1     -12.151  16.940  64.188  1.00  0.00     0.000 HD 
HETATM   24  N   UNL     1     -11.510  16.296  64.652  1.00  0.00    -0.292 N  
HETATM   25  O   UNL     1     -12.671  14.423  64.044  1.00  0.00    -0.739 OA 
ENDBRANCH  14  15
ENDBRANCH  13  14
ENDBRANCH   4  13
BRANCH   6  26
HETATM   26  N   UNL     1     -10.063  10.188  65.944  1.00  0.00    -0.265 N  
HETATM   27  O   UNL     1      -9.390   9.630  63.841  1.00  0.00    -0.222 OA 
HETATM   28  C   UNL     1      -9.174   9.570  65.050  1.00  0.00    -0.236 C  
HETATM   29  H   UNL     1     -10.870  10.600  65.476  1.00  0.00     0.000 HD 
BRANCH  28  30
HETATM   30  C   UNL     1      -8.063   8.666  65.511  1.00  0.00    -0.114 C  
BRANCH  30  31
HETATM   31  C   UNL     1      -8.263   7.382  66.196  1.00  0.00    -0.130 A  
HETATM   32  H2  UNL     1     -10.364   3.808  67.252  1.00  0.00     0.000 HD 
HETATM   33  C   UNL     1      -7.239   6.455  66.311  1.00  0.00    -0.072 A  
HETATM   34  H1  UNL     1     -11.449   5.187  67.069  1.00  0.00     0.000 HD 
HETATM   35  N   UNL     1      -9.535   6.853  66.468  1.00  0.00    -0.169 NA 
HETATM   36  N   UNL     1     -10.506   4.799  67.055  1.00  0.00    -0.117 NA 
HETATM   37  S   UNL     1      -7.860   4.925  66.756  1.00  0.00    -0.100 SA 
HETATM   38  C   UNL     1      -9.449   5.579  66.779  1.00  0.00    -0.140 A  
ENDBRANCH  30  31
BRANCH  30  39
HETATM   39  N   UNL     1      -6.824   9.029  65.552  1.00  0.00    -0.072 NA 
HETATM   40  H   UNL     1      -6.122   8.358  65.863  1.00  0.00     0.000 HD 
BRANCH  39  41
HETATM   41  O   UNL     1      -6.417  10.312  65.185  1.00  0.00    -0.116 OA 
HETATM   42  C   UNL     1      -5.309  10.538  64.336  1.00  0.00    -0.145 C  
ENDBRANCH  39  41
ENDBRANCH  30  39
ENDBRANCH  28  30
ENDBRANCH   6  26
TORSDOF 8
ENDMDL
MODEL      122
REMARK 921   NORMALIZED FREE ENERGY PREDICTED BY IDOCK:   -6.17 KCAL/MOL
REMARK 922        TOTAL FREE ENERGY PREDICTED BY IDOCK:  -10.32 KCAL/MOL
REMARK 923 INTER-LIGAND FREE ENERGY PREDICTED BY IDOCK:   -8.82 KCAL/MOL
REMARK 924 INTRA-LIGAND FREE ENERGY PREDICTED BY IDOCK:   -1.50 KCAL/MOL
REMARK 927      BINDING AFFINITY PREDICTED BY RF-SCORE:    0.00 PKD
ROOT
HETATM    1  C   UNL     1     -10.648  11.859  65.458  1.00  0.00    -0.269 C  
HETATM    2  S   UNL     1     -12.304  12.486  65.392  1.00  0.00    -0.207 SA 
HETATM    3  C   UNL     1     -12.237  14.027  66.379  1.00  0.00    -0.460 C  
HETATM    4  C   UNL     1     -10.921  14.489  66.937  1.00  0.00    -0.316 C  
HETATM    5  CA  UNL     1      -9.743  13.809  66.791  1.00  0.00    -0.275 C  
HETATM    6  CA  UNL     1     -10.037  10.505  66.021  1.00  0.00    -0.256 C  
HETATM    7  C   UNL     1      -8.878  11.468  66.429  1.00  0.00    -0.193 C  
HETATM    8  N   UNL     1      -9.675  12.554  66.248  1.00  0.00    -0.252 N  
HETATM    9  C   UNL     1      -8.465  14.457  67.256  1.00  0.00    -0.212 C  
HETATM   10  O   UNL     1      -7.817  11.300  66.980  1.00  0.00    -0.135 OA 
HETATM   11  O   UNL     1      -7.537  13.671  67.836  1.00  0.00    -0.123 OA 
HETATM   12  OXT UNL     1      -8.250  15.650  67.105  1.00  0.00    -0.175 OA 
ENDROOT
BRANCH   4  13
HETATM   13  C   UNL     1     -10.973  15.791  67.792  1.00  0.00    -0.314 C  
BRANCH  13  14
HETATM   14  S   UNL     1     -10.721  15.723  69.610  1.00  0.00    -0.320 SA 
BRANCH  14  15
HETATM   15  C   UNL     1     -11.550  14.256  70.184  1.00  0.00    -0.246 C  
HETATM   16  N   UNL     1     -11.172  13.164  69.617  1.00  0.00    -0.474 N  
HETATM   17  H   UNL     1     -10.376  13.140  68.980  1.00  0.00     0.000 HD 
HETATM   18  C   UNL     1     -13.179  15.594  71.621  1.00  0.00    -0.472 C  
HETATM   19  C   UNL     1     -11.896  12.027  69.914  1.00  0.00    -0.331 C  
HETATM   20  N   UNL     1     -12.601  14.368  71.100  1.00  0.00    -0.329 NA 
HETATM   21  C   UNL     1     -12.789  11.955  71.151  1.00  0.00    -0.249 C  
HETATM   22  O   UNL     1     -11.962  11.053  69.163  1.00  0.00    -0.329 OA 
HETATM   23  H   UNL     1     -14.095  13.255  72.107  1.00  0.00     0.000 HD 
HETATM   24  N   UNL     1     -13.262  13.187  71.523  1.00  0.00    -0.324 N  
HETATM   25  O   UNL     1     -13.094  10.916  71.714  1.00  0.00    -0.464 OA 
ENDBRANCH  14  15
ENDBRANCH  13  14
ENDBRANCH   4  13
BRANCH   6  26
HETATM   26  N   UNL     1     -10.400   9.545  67.163  1.00  0.00    -0.246 N  
HETATM   27  O   UNL     1     -10.754   7.651  68.377  1.00  0.00    -0.155 OA 
HETATM   28  C   UNL     1     -10.312   8.155  67.346  1.00  0.00    -0.281 C  
HETATM   29  H   UNL     1     -10.794  10.026  67.972  1.00  0.00     0.000 HD 
BRANCH  28  30
HETATM   30  C   UNL     1      -9.525   7.267  66.421  1.00  0.00    -0.127 C  
BRANCH  30  31
HETATM   31  C   UNL     1      -8.229   7.621  65.827  1.00  0.00    -0.133 A  
HETATM   32  H2  UNL     1      -5.576   9.761  63.241  1.00  0.00     0.000 HD 
HETATM   33  C   UNL     1      -7.085   7.738  66.600  1.00  0.00    -0.079 A  
HETATM   34  H1  UNL     1      -7.135   9.442  62.478  1.00  0.00     0.000 HD 
HETATM   35  N   UNL     1      -8.106   8.194  64.551  1.00  0.00    -0.152 NA 
HETATM   36  N   UNL     1      -6.511   9.354  63.281  1.00  0.00    -0.092 NA 
HETATM   37  S   UNL     1      -5.858   8.561  65.740  1.00  0.00    -0.048 SA 
HETATM   38  C   UNL     1      -6.909   8.709  64.388  1.00  0.00    -0.077 A  
ENDBRANCH  30  31
BRANCH  30  39
HETATM   39  N   UNL     1     -10.011   6.200  65.880  1.00  0.00    -0.372 NA 
HETATM   40  H   UNL     1     -10.497   6.276  64.986  1.00  0.00     0.000 HD 
BRANCH  39  41
HETATM   41  O   UNL     1      -9.892   4.946  66.480  1.00  0.00    -0.163 OA 
HETATM   42  C   UNL     1      -9.474   3.802  65.761  1.00  0.00    -0.170 C  
ENDBRANCH  39  41
ENDBRANCH  30  39
ENDBRANCH  28  30
ENDBRANCH   6  26
TORSDOF 8
ENDMDL
MODEL      123
REMARK 921   NORMALIZED FREE ENERGY PREDICTED BY IDOCK:   -6.16 KCAL/MOL
REMARK 922        TOTAL FREE ENERGY PREDICTED BY IDOCK:  -10.31 KCAL/MOL
REMARK 923 INTER-LIGAND FREE ENERGY PREDICTED BY IDOCK:   -8.88 KCAL/MOL
REMARK 924 INTRA-LIGAND FREE ENERGY PREDICTED BY IDOCK:   -1.43 KCAL/MOL
REMARK 927      BINDING AFFINITY PREDICTED BY RF-SCORE:    0.00 PKD
ROOT
HETATM    1  C   UNL     1      -9.551  11.834  66.755  1.00  0.00    -0.200 C  
HETATM    2  S   UNL     1     -11.169  12.169  67.395  1.00  0.00    -0.324 SA 
HETATM    3  C   UNL     1     -10.997  13.800  68.210  1.00  0.00    -0.250 C  
HETATM    4  C   UNL     1      -9.687  14.531  68.129  1.00  0.00    -0.219 C  
HETATM    5  CA  UNL     1      -8.571  14.042  67.507  1.00  0.00    -0.192 C  
HETATM    6  CA  UNL     1      -8.508  10.670  67.037  1.00  0.00    -0.129 C  
HETATM    7  C   UNL     1      -7.498  11.848  66.874  1.00  0.00    -0.079 C  
HETATM    8  N   UNL     1      -8.493  12.763  67.024  1.00  0.00    -0.182 N  
HETATM    9  C   UNL     1      -7.371  14.938  67.353  1.00  0.00    -0.193 C  
HETATM   10  O   UNL     1      -6.294  11.920  66.916  1.00  0.00    -0.153 OA 
HETATM   11  O   UNL     1      -6.151  14.385  67.495  1.00  0.00    -0.327 OA 
HETATM   12  OXT UNL     1      -7.477  16.126  67.089  1.00  0.00    -0.169 OA 
ENDROOT
BRANCH   4  13
HETATM   13  C   UNL     1      -9.629  15.894  68.883  1.00  0.00    -0.230 C  
BRANCH  13  14
HETATM   14  S   UNL     1     -10.411  17.391  68.161  1.00  0.00    -0.388 SA 
BRANCH  14  15
HETATM   15  C   UNL     1      -9.129  18.619  68.026  1.00  0.00    -0.305 C  
HETATM   16  N   UNL     1      -8.190  18.520  68.901  1.00  0.00    -0.234 N  
HETATM   17  H   UNL     1      -8.134  17.725  69.538  1.00  0.00     0.000 HD 
HETATM   18  C   UNL     1     -10.383  19.903  66.214  1.00  0.00    -0.495 C  
HETATM   19  C   UNL     1      -7.262  19.540  68.936  1.00  0.00    -0.362 C  
HETATM   20  N   UNL     1      -9.253  19.650  67.090  1.00  0.00    -0.319 NA 
HETATM   21  C   UNL     1      -7.081  20.489  67.752  1.00  0.00    -0.298 C  
HETATM   22  O   UNL     1      -6.608  19.825  69.939  1.00  0.00    -0.336 OA 
HETATM   23  H   UNL     1      -8.352  21.446  66.419  1.00  0.00     0.000 HD 
HETATM   24  N   UNL     1      -8.231  20.630  67.019  1.00  0.00    -0.253 N  
HETATM   25  O   UNL     1      -6.049  21.095  67.515  1.00  0.00    -0.290 OA 
ENDBRANCH  14  15
ENDBRANCH  13  14
ENDBRANCH   4  13
BRANCH   6  26
HETATM   26  N   UNL     1      -8.162   9.796  68.251  1.00  0.00    -0.105 N  
HETATM   27  O   UNL     1      -8.343   8.488  70.107  1.00  0.00    -0.115 OA 
HETATM   28  C   UNL     1      -8.914   9.053  69.176  1.00  0.00    -0.140 C  
HETATM   29  H   UNL     1      -7.159   9.743  68.426  1.00  0.00     0.000 HD 
BRANCH  28  30
HETATM   30  C   UNL     1     -10.374   8.751  68.972  1.00  0.00    -0.213 C  
BRANCH  30  31
HETATM   31  C   UNL     1     -11.326   8.467  70.054  1.00  0.00    -0.007 A  
HETATM   32  H2  UNL     1     -13.050   6.184  73.235  1.00  0.00     0.000 HD 
HETATM   33  C   UNL     1     -11.721   9.449  70.948  1.00  0.00    -0.308 A  
HETATM   34  H1  UNL     1     -12.479   5.161  71.917  1.00  0.00     0.000 HD 
HETATM   35  N   UNL     1     -11.631   7.164  70.478  1.00  0.00    -0.303 NA 
HETATM   36  N   UNL     1     -12.618   6.089  72.316  1.00  0.00     0.010 NA 
HETATM   37  S   UNL     1     -12.470   8.751  72.318  1.00  0.00    -0.364 SA 
HETATM   38  C   UNL     1     -12.237   7.186  71.644  1.00  0.00    -0.350 A  
ENDBRANCH  30  31
BRANCH  30  39
HETATM   39  N   UNL     1     -10.890   8.492  67.816  1.00  0.00    -0.495 NA 
HETATM   40  H   UNL     1     -11.773   8.932  67.559  1.00  0.00     0.000 HD 
BRANCH  39  41
HETATM   41  O   UNL     1     -10.275   7.630  66.909  1.00  0.00    -0.255 OA 
HETATM   42  C   UNL     1     -10.546   6.242  66.884  1.00  0.00    -0.305 C  
ENDBRANCH  39  41
ENDBRANCH  30  39
ENDBRANCH  28  30
ENDBRANCH   6  26
TORSDOF 8
ENDMDL
MODEL      124
REMARK 921   NORMALIZED FREE ENERGY PREDICTED BY IDOCK:   -6.15 KCAL/MOL
REMARK 922        TOTAL FREE ENERGY PREDICTED BY IDOCK:  -10.28 KCAL/MOL
REMARK 923 INTER-LIGAND FREE ENERGY PREDICTED BY IDOCK:   -8.87 KCAL/MOL
REMARK 924 INTRA-LIGAND FREE ENERGY PREDICTED BY IDOCK:   -1.41 KCAL/MOL
REMARK 927      BINDING AFFINITY PREDICTED BY RF-SCORE:    0.00 PKD
ROOT
HETATM    1  C   UNL     1     -11.533  10.773  67.846  1.00  0.00    -0.227 C  
HETATM    2  S   UNL     1     -11.705  11.450  69.475  1.00  0.00    -0.379 SA 
HETATM    3  C   UNL     1     -11.608  13.261  69.217  1.00  0.00    -0.314 C  
HETATM    4  C   UNL     1     -11.500  13.802  67.819  1.00  0.00    -0.354 C  
HETATM    5  CA  UNL     1     -11.431  13.024  66.697  1.00  0.00    -0.336 C  
HETATM    6  CA  UNL     1     -10.456   9.800  67.200  1.00  0.00    -0.250 C  
HETATM    7  C   UNL     1     -10.704  10.722  65.965  1.00  0.00    -0.098 C  
HETATM    8  N   UNL     1     -11.298  11.662  66.747  1.00  0.00    -0.319 N  
HETATM    9  C   UNL     1     -11.489  13.688  65.346  1.00  0.00    -0.311 C  
HETATM   10  O   UNL     1     -10.266  10.736  64.840  1.00  0.00    -0.295 OA 
HETATM   11  O   UNL     1     -10.711  13.187  64.366  1.00  0.00    -0.367 OA 
HETATM   12  OXT UNL     1     -12.225  14.636  65.119  1.00  0.00    -0.356 OA 
ENDROOT
BRANCH   4  13
HETATM   13  C   UNL     1     -11.388  15.353  67.706  1.00  0.00    -0.306 C  
BRANCH  13  14
HETATM   14  S   UNL     1     -10.751  16.347  69.113  1.00  0.00    -0.333 SA 
BRANCH  14  15
HETATM   15  C   UNL     1      -9.789  17.668  68.408  1.00  0.00    -0.334 C  
HETATM   16  N   UNL     1     -10.470  18.550  67.764  1.00  0.00    -0.407 N  
HETATM   17  H   UNL     1     -11.490  18.546  67.768  1.00  0.00     0.000 HD 
HETATM   18  C   UNL     1      -7.581  16.560  69.044  1.00  0.00    -0.233 C  
HETATM   19  C   UNL     1      -9.754  19.502  67.068  1.00  0.00    -0.347 C  
HETATM   20  N   UNL     1      -8.394  17.628  68.490  1.00  0.00    -0.289 NA 
HETATM   21  C   UNL     1      -8.285  19.780  67.385  1.00  0.00    -0.307 C  
HETATM   22  O   UNL     1     -10.201  20.103  66.091  1.00  0.00    -0.448 OA 
HETATM   23  H   UNL     1      -6.631  18.617  67.855  1.00  0.00     0.000 HD 
HETATM   24  N   UNL     1      -7.648  18.680  67.898  1.00  0.00    -0.243 N  
HETATM   25  O   UNL     1      -7.726  20.841  67.158  1.00  0.00    -0.329 OA 
ENDBRANCH  14  15
ENDBRANCH  13  14
ENDBRANCH   4  13
BRANCH   6  26
HETATM   26  N   UNL     1      -8.958   9.543  67.419  1.00  0.00    -0.131 N  
HETATM   27  O   UNL     1      -6.891   8.589  67.377  1.00  0.00    -0.065 OA 
HETATM   28  C   UNL     1      -8.051   8.570  66.970  1.00  0.00    -0.103 C  
HETATM   29  H   UNL     1      -8.525  10.236  68.029  1.00  0.00     0.000 HD 
BRANCH  28  30
HETATM   30  C   UNL     1      -8.379   7.612  65.856  1.00  0.00    -0.139 C  
BRANCH  30  31
HETATM   31  C   UNL     1      -8.249   6.152  65.946  1.00  0.00    -0.131 A  
HETATM   32  H2  UNL     1      -8.262   2.347  67.902  1.00  0.00     0.000 HD 
HETATM   33  C   UNL     1      -8.774   5.317  64.974  1.00  0.00    -0.136 A  
HETATM   34  H1  UNL     1      -7.599   3.619  68.928  1.00  0.00     0.000 HD 
HETATM   35  N   UNL     1      -7.916   5.489  67.138  1.00  0.00    -0.101 NA 
HETATM   36  N   UNL     1      -7.999   3.323  68.038  1.00  0.00    -0.070 NA 
HETATM   37  S   UNL     1      -8.854   3.706  65.542  1.00  0.00    -0.130 SA 
HETATM   38  C   UNL     1      -8.180   4.205  67.043  1.00  0.00    -0.100 A  
ENDBRANCH  30  31
BRANCH  30  39
HETATM   39  N   UNL     1      -8.594   7.988  64.639  1.00  0.00    -0.382 NA 
HETATM   40  H   UNL     1      -9.495   7.779  64.209  1.00  0.00     0.000 HD 
BRANCH  39  41
HETATM   41  O   UNL     1      -7.632   8.671  63.895  1.00  0.00    -0.114 OA 
HETATM   42  C   UNL     1      -6.926   8.060  62.832  1.00  0.00    -0.086 C  
ENDBRANCH  39  41
ENDBRANCH  30  39
ENDBRANCH  28  30
ENDBRANCH   6  26
TORSDOF 8
ENDMDL
MODEL      125
REMARK 921   NORMALIZED FREE ENERGY PREDICTED BY IDOCK:   -6.14 KCAL/MOL
REMARK 922        TOTAL FREE ENERGY PREDICTED BY IDOCK:  -10.27 KCAL/MOL
REMARK 923 INTER-LIGAND FREE ENERGY PREDICTED BY IDOCK:   -8.25 KCAL/MOL
REMARK 924 INTRA-LIGAND FREE ENERGY PREDICTED BY IDOCK:   -2.02 KCAL/MOL
REMARK 927      BINDING AFFINITY PREDICTED BY RF-SCORE:    0.00 PKD
ROOT
HETATM    1  C   UNL     1      -7.680  10.124  68.700  1.00  0.00    -0.092 C  
HETATM    2  S   UNL     1      -6.976   9.304  70.104  1.00  0.00    -0.079 SA 
HETATM    3  C   UNL     1      -6.667   7.597  69.514  1.00  0.00    -0.036 C  
HETATM    4  C   UNL     1      -6.949   7.250  68.080  1.00  0.00    -0.076 C  
HETATM    5  CA  UNL     1      -7.467   8.125  67.164  1.00  0.00    -0.089 C  
HETATM    6  CA  UNL     1      -9.086  10.825  68.462  1.00  0.00    -0.170 C  
HETATM    7  C   UNL     1      -8.900  10.197  67.046  1.00  0.00    -0.135 C  
HETATM    8  N   UNL     1      -7.925   9.369  67.506  1.00  0.00    -0.102 N  
HETATM    9  C   UNL     1      -7.550   7.703  65.721  1.00  0.00    -0.088 C  
HETATM   10  O   UNL     1      -9.563  10.216  66.037  1.00  0.00    -0.183 OA 
HETATM   11  O   UNL     1      -8.631   8.090  65.015  1.00  0.00    -0.119 OA 
HETATM   12  OXT UNL     1      -6.670   7.050  65.183  1.00  0.00    -0.045 OA 
ENDROOT
BRANCH   4  13
HETATM   13  C   UNL     1      -6.687   5.766  67.684  1.00  0.00    -0.059 C  
BRANCH  13  14
HETATM   14  S   UNL     1      -8.064   4.549  67.666  1.00  0.00    -0.100 SA 
BRANCH  14  15
HETATM   15  C   UNL     1      -9.297   5.161  68.795  1.00  0.00    -0.125 C  
HETATM   16  N   UNL     1      -9.101   4.854  70.030  1.00  0.00    -0.105 N  
HETATM   17  H   UNL     1      -8.241   4.400  70.338  1.00  0.00     0.000 HD 
HETATM   18  C   UNL     1     -10.774   6.024  66.903  1.00  0.00    -0.334 C  
HETATM   19  C   UNL     1     -10.110   5.169  70.916  1.00  0.00    -0.232 C  
HETATM   20  N   UNL     1     -10.424   5.821  68.297  1.00  0.00    -0.215 NA 
HETATM   21  C   UNL     1     -11.182   6.199  70.565  1.00  0.00    -0.334 C  
HETATM   22  O   UNL     1     -10.282   4.577  71.982  1.00  0.00    -0.192 OA 
HETATM   23  H   UNL     1     -12.281   6.666  68.867  1.00  0.00     0.000 HD 
HETATM   24  N   UNL     1     -11.405   6.277  69.215  1.00  0.00    -0.407 N  
HETATM   25  O   UNL     1     -11.810   6.841  71.392  1.00  0.00    -0.301 OA 
ENDBRANCH  14  15
ENDBRANCH  13  14
ENDBRANCH   4  13
BRANCH   6  26
HETATM   26  N   UNL     1     -10.509  10.604  68.993  1.00  0.00    -0.202 N  
HETATM   27  O   UNL     1     -12.684  10.941  69.580  1.00  0.00    -0.267 OA 
HETATM   28  C   UNL     1     -11.684  11.374  69.009  1.00  0.00    -0.343 C  
HETATM   29  H   UNL     1     -10.629   9.693  69.435  1.00  0.00     0.000 HD 
BRANCH  28  30
HETATM   30  C   UNL     1     -11.840  12.627  68.190  1.00  0.00    -0.315 C  
BRANCH  30  31
HETATM   31  C   UNL     1     -11.584  12.717  66.747  1.00  0.00    -0.370 A  
HETATM   32  H2  UNL     1     -12.620  12.776  62.596  1.00  0.00     0.000 HD 
HETATM   33  C   UNL     1     -10.686  13.635  66.226  1.00  0.00    -0.285 A  
HETATM   34  H1  UNL     1     -13.612  11.641  63.512  1.00  0.00     0.000 HD 
HETATM   35  N   UNL     1     -12.442  12.160  65.784  1.00  0.00    -0.306 NA 
HETATM   36  N   UNL     1     -12.859  12.328  63.481  1.00  0.00    -0.796 NA 
HETATM   37  S   UNL     1     -10.910  13.807  64.540  1.00  0.00    -0.338 SA 
HETATM   38  C   UNL     1     -12.179  12.648  64.593  1.00  0.00    -0.452 A  
ENDBRANCH  30  31
BRANCH  30  39
HETATM   39  N   UNL     1     -11.997  13.798  68.711  1.00  0.00    -0.361 NA 
HETATM   40  H   UNL     1     -12.546  14.494  68.206  1.00  0.00     0.000 HD 
BRANCH  39  41
HETATM   41  O   UNL     1     -11.440  14.141  69.943  1.00  0.00    -0.262 OA 
HETATM   42  C   UNL     1     -12.233  14.540  71.045  1.00  0.00    -0.339 C  
ENDBRANCH  39  41
ENDBRANCH  30  39
ENDBRANCH  28  30
ENDBRANCH   6  26
TORSDOF 8
ENDMDL
MODEL      126
REMARK 921   NORMALIZED FREE ENERGY PREDICTED BY IDOCK:   -6.14 KCAL/MOL
REMARK 922        TOTAL FREE ENERGY PREDICTED BY IDOCK:  -10.27 KCAL/MOL
REMARK 923 INTER-LIGAND FREE ENERGY PREDICTED BY IDOCK:   -8.85 KCAL/MOL
REMARK 924 INTRA-LIGAND FREE ENERGY PREDICTED BY IDOCK:   -1.42 KCAL/MOL
REMARK 927      BINDING AFFINITY PREDICTED BY RF-SCORE:    0.00 PKD
ROOT
HETATM    1  C   UNL     1     -10.336  12.678  67.459  1.00  0.00    -0.218 C  
HETATM    2  S   UNL     1     -11.150  11.276  66.745  1.00  0.00    -0.188 SA 
HETATM    3  C   UNL     1      -9.779  10.238  66.114  1.00  0.00    -0.211 C  
HETATM    4  C   UNL     1      -8.359  10.663  66.360  1.00  0.00    -0.151 C  
HETATM    5  CA  UNL     1      -8.002  11.815  67.006  1.00  0.00    -0.164 C  
HETATM    6  CA  UNL     1     -10.397  14.232  67.134  1.00  0.00    -0.262 C  
HETATM    7  C   UNL     1      -8.880  14.130  67.486  1.00  0.00    -0.201 C  
HETATM    8  N   UNL     1      -8.910  12.777  67.360  1.00  0.00    -0.181 N  
HETATM    9  C   UNL     1      -6.550  12.047  67.333  1.00  0.00    -0.134 C  
HETATM   10  O   UNL     1      -7.985  14.939  67.536  1.00  0.00    -0.148 OA 
HETATM   11  O   UNL     1      -6.073  13.302  67.221  1.00  0.00    -0.328 OA 
HETATM   12  OXT UNL     1      -5.817  11.145  67.709  1.00  0.00    -0.046 OA 
ENDROOT
BRANCH   4  13
HETATM   13  C   UNL     1      -7.264   9.734  65.754  1.00  0.00    -0.104 C  
BRANCH  13  14
HETATM   14  S   UNL     1      -6.793   8.174  66.602  1.00  0.00    -0.069 SA 
BRANCH  14  15
HETATM   15  C   UNL     1      -8.231   7.628  67.499  1.00  0.00    -0.121 C  
HETATM   16  N   UNL     1      -9.056   6.913  66.816  1.00  0.00    -0.140 N  
HETATM   17  H   UNL     1      -8.832   6.591  65.875  1.00  0.00     0.000 HD 
HETATM   18  C   UNL     1      -7.633   9.026  69.547  1.00  0.00    -0.077 C  
HETATM   19  C   UNL     1     -10.257   6.603  67.420  1.00  0.00    -0.190 C  
HETATM   20  N   UNL     1      -8.441   8.073  68.807  1.00  0.00    -0.127 NA 
HETATM   21  C   UNL     1     -10.434   6.704  68.934  1.00  0.00    -0.212 C  
HETATM   22  O   UNL     1     -11.281   6.338  66.790  1.00  0.00    -0.310 OA 
HETATM   23  H   UNL     1      -9.832   8.039  70.405  1.00  0.00     0.000 HD 
HETATM   24  N   UNL     1      -9.607   7.645  69.492  1.00  0.00    -0.163 N  
HETATM   25  O   UNL     1     -11.254   6.062  69.571  1.00  0.00    -0.398 OA 
ENDBRANCH  14  15
ENDBRANCH  13  14
ENDBRANCH   4  13
BRANCH   6  26
HETATM   26  N   UNL     1     -10.626  15.065  65.864  1.00  0.00    -0.312 N  
HETATM   27  O   UNL     1     -10.960  16.818  64.449  1.00  0.00    -0.974 OA 
HETATM   28  C   UNL     1     -10.693  16.441  65.589  1.00  0.00    -0.270 C  
HETATM   29  H   UNL     1     -10.759  14.489  65.033  1.00  0.00     0.000 HD 
BRANCH  28  30
HETATM   30  C   UNL     1     -10.263  17.486  66.582  1.00  0.00    -0.332 C  
BRANCH  30  31
HETATM   31  C   UNL     1      -8.980  18.199  66.540  1.00  0.00    -0.275 A  
HETATM   32  H2  UNL     1      -5.173  19.290  64.919  1.00  0.00     0.000 HD 
HETATM   33  C   UNL     1      -8.887  19.542  66.870  1.00  0.00    -0.314 A  
HETATM   34  H1  UNL     1      -5.542  17.584  64.661  1.00  0.00     0.000 HD 
HETATM   35  N   UNL     1      -7.857  17.709  65.853  1.00  0.00    -0.553 NA 
HETATM   36  N   UNL     1      -5.802  18.495  65.038  1.00  0.00    -0.233 NA 
HETATM   37  S   UNL     1      -7.403  20.194  66.325  1.00  0.00    -0.263 SA 
HETATM   38  C   UNL     1      -6.964  18.658  65.690  1.00  0.00    -0.220 A  
ENDBRANCH  30  31
BRANCH  30  39
HETATM   39  N   UNL     1     -10.880  17.700  67.697  1.00  0.00    -0.304 NA 
HETATM   40  H   UNL     1     -11.743  18.241  67.688  1.00  0.00     0.000 HD 
BRANCH  39  41
HETATM   41  O   UNL     1     -10.400  17.212  68.913  1.00  0.00    -0.316 OA 
HETATM   42  C   UNL     1     -11.156  16.336  69.726  1.00  0.00    -0.337 C  
ENDBRANCH  39  41
ENDBRANCH  30  39
ENDBRANCH  28  30
ENDBRANCH   6  26
TORSDOF 8
ENDMDL
MODEL      127
REMARK 921   NORMALIZED FREE ENERGY PREDICTED BY IDOCK:   -6.12 KCAL/MOL
REMARK 922        TOTAL FREE ENERGY PREDICTED BY IDOCK:  -10.24 KCAL/MOL
REMARK 923 INTER-LIGAND FREE ENERGY PREDICTED BY IDOCK:   -8.23 KCAL/MOL
REMARK 924 INTRA-LIGAND FREE ENERGY PREDICTED BY IDOCK:   -2.01 KCAL/MOL
REMARK 927      BINDING AFFINITY PREDICTED BY RF-SCORE:    0.00 PKD
ROOT
HETATM    1  C   UNL     1      -9.439  11.530  68.252  1.00  0.00    -0.189 C  
HETATM    2  S   UNL     1     -11.024  11.339  69.021  1.00  0.00    -0.252 SA 
HETATM    3  C   UNL     1     -11.359   9.542  68.910  1.00  0.00     0.195 C  
HETATM    4  C   UNL     1     -10.314   8.631  68.332  1.00  0.00    -0.239 C  
HETATM    5  CA  UNL     1      -9.112   9.057  67.836  1.00  0.00    -0.135 C  
HETATM    6  CA  UNL     1      -8.959  12.348  66.977  1.00  0.00    -0.209 C  
HETATM    7  C   UNL     1      -8.044  11.096  66.805  1.00  0.00    -0.155 C  
HETATM    8  N   UNL     1      -8.805  10.381  67.676  1.00  0.00    -0.125 N  
HETATM    9  C   UNL     1      -8.085   8.031  67.435  1.00  0.00    -0.122 C  
HETATM   10  O   UNL     1      -7.202  10.789  65.995  1.00  0.00    -0.135 OA 
HETATM   11  O   UNL     1      -7.342   8.281  66.339  1.00  0.00    -0.078 OA 
HETATM   12  OXT UNL     1      -7.902   7.009  68.078  1.00  0.00    -0.110 OA 
ENDROOT
BRANCH   4  13
HETATM   13  C   UNL     1     -10.706   7.125  68.249  1.00  0.00    -0.153 C  
BRANCH  13  14
HETATM   14  S   UNL     1     -11.025   6.159  69.779  1.00  0.00    -0.415 SA 
BRANCH  14  15
HETATM   15  C   UNL     1      -9.977   6.848  71.042  1.00  0.00    -0.188 C  
HETATM   16  N   UNL     1      -8.736   6.515  70.958  1.00  0.00    -0.138 N  
HETATM   17  H   UNL     1      -8.375   5.996  70.158  1.00  0.00     0.000 HD 
HETATM   18  C   UNL     1     -11.956   7.837  72.312  1.00  0.00    -0.309 C  
HETATM   19  C   UNL     1      -7.919   6.894  72.003  1.00  0.00    -0.095 C  
HETATM   20  N   UNL     1     -10.543   7.595  72.080  1.00  0.00    -0.213 NA 
HETATM   21  C   UNL     1      -8.329   8.004  72.970  1.00  0.00    -0.185 C  
HETATM   22  O   UNL     1      -6.877   6.306  72.294  1.00  0.00    -0.070 OA 
HETATM   23  H   UNL     1     -10.094   8.568  73.907  1.00  0.00     0.000 HD 
HETATM   24  N   UNL     1      -9.691   8.112  73.088  1.00  0.00    -0.265 N  
HETATM   25  O   UNL     1      -7.539   8.682  73.607  1.00  0.00    -0.377 OA 
ENDBRANCH  14  15
ENDBRANCH  13  14
ENDBRANCH   4  13
BRANCH   6  26
HETATM   26  N   UNL     1      -9.606  12.761  65.648  1.00  0.00    -0.457 N  
HETATM   27  O   UNL     1     -10.871  13.840  64.092  1.00  0.00    -0.302 OA 
HETATM   28  C   UNL     1     -10.456  13.805  65.249  1.00  0.00    -0.363 C  
HETATM   29  H   UNL     1      -9.365  12.134  64.881  1.00  0.00     0.000 HD 
BRANCH  28  30
HETATM   30  C   UNL     1     -10.731  15.000  66.121  1.00  0.00    -0.327 C  
BRANCH  30  31
HETATM   31  C   UNL     1      -9.957  16.248  66.096  1.00  0.00    -0.334 A  
HETATM   32  H2  UNL     1      -9.059  20.306  67.114  1.00  0.00     0.000 HD 
HETATM   33  C   UNL     1      -8.572  16.243  66.158  1.00  0.00    -0.307 A  
HETATM   34  H1  UNL     1     -10.793  20.032  66.938  1.00  0.00     0.000 HD 
HETATM   35  N   UNL     1     -10.527  17.505  66.354  1.00  0.00    -0.315 NA 
HETATM   36  N   UNL     1      -9.837  19.679  66.906  1.00  0.00    -0.355 NA 
HETATM   37  S   UNL     1      -7.981  17.801  66.539  1.00  0.00    -0.273 SA 
HETATM   38  C   UNL     1      -9.592  18.397  66.593  1.00  0.00    -0.320 A  
ENDBRANCH  30  31
BRANCH  30  39
HETATM   39  N   UNL     1     -11.532  14.969  67.134  1.00  0.00    -0.332 NA 
HETATM   40  H   UNL     1     -12.538  15.003  66.970  1.00  0.00     0.000 HD 
BRANCH  39  41
HETATM   41  O   UNL     1     -11.063  14.888  68.445  1.00  0.00    -0.253 OA 
HETATM   42  C   UNL     1     -11.906  15.098  69.562  1.00  0.00    -0.332 C  
ENDBRANCH  39  41
ENDBRANCH  30  39
ENDBRANCH  28  30
ENDBRANCH   6  26
TORSDOF 8
ENDMDL
MODEL      128
REMARK 921   NORMALIZED FREE ENERGY PREDICTED BY IDOCK:   -6.08 KCAL/MOL
REMARK 922        TOTAL FREE ENERGY PREDICTED BY IDOCK:  -10.19 KCAL/MOL
REMARK 923 INTER-LIGAND FREE ENERGY PREDICTED BY IDOCK:   -8.85 KCAL/MOL
REMARK 924 INTRA-LIGAND FREE ENERGY PREDICTED BY IDOCK:   -1.34 KCAL/MOL
REMARK 927      BINDING AFFINITY PREDICTED BY RF-SCORE:    0.00 PKD
ROOT
HETATM    1  C   UNL     1     -10.496   8.616  70.506  1.00  0.00    -0.206 C  
HETATM    2  S   UNL     1     -11.642   9.317  71.661  1.00  0.00    -0.398 SA 
HETATM    3  C   UNL     1     -12.167  10.884  70.871  1.00  0.00    -0.381 C  
HETATM    4  C   UNL     1     -11.661  11.224  69.498  1.00  0.00    -0.415 C  
HETATM    5  CA  UNL     1     -10.786  10.448  68.787  1.00  0.00    -0.232 C  
HETATM    6  CA  UNL     1      -8.957   8.237  70.620  1.00  0.00    -0.151 C  
HETATM    7  C   UNL     1      -8.960   8.746  69.145  1.00  0.00    -0.137 C  
HETATM    8  N   UNL     1     -10.163   9.354  69.324  1.00  0.00    -0.194 N  
HETATM    9  C   UNL     1     -10.483  10.815  67.358  1.00  0.00    -0.225 C  
HETATM   10  O   UNL     1      -8.106   8.832  68.296  1.00  0.00    -0.111 OA 
HETATM   11  O   UNL     1      -9.219  10.650  66.922  1.00  0.00    -0.154 OA 
HETATM   12  OXT UNL     1     -11.343  11.231  66.597  1.00  0.00    -0.338 OA 
ENDROOT
BRANCH   4  13
HETATM   13  C   UNL     1     -12.136  12.594  68.925  1.00  0.00    -0.123 C  
BRANCH  13  14
HETATM   14  S   UNL     1     -11.046  14.070  69.018  1.00  0.00    -0.265 SA 
BRANCH  14  15
HETATM   15  C   UNL     1     -11.102  14.844  67.415  1.00  0.00    -0.325 C  
HETATM   16  N   UNL     1     -11.604  14.116  66.480  1.00  0.00    -0.359 N  
HETATM   17  H   UNL     1     -12.041  13.216  66.678  1.00  0.00     0.000 HD 
HETATM   18  C   UNL     1      -9.788  16.877  68.219  1.00  0.00    -0.266 C  
HETATM   19  C   UNL     1     -11.521  14.612  65.195  1.00  0.00    -0.375 C  
HETATM   20  N   UNL     1     -10.525  16.104  67.235  1.00  0.00    -0.306 NA 
HETATM   21  C   UNL     1     -11.268  16.095  64.931  1.00  0.00    -0.285 C  
HETATM   22  O   UNL     1     -11.532  13.896  64.193  1.00  0.00    -0.342 OA 
HETATM   23  H   UNL     1     -10.056  17.558  65.767  1.00  0.00     0.000 HD 
HETATM   24  N   UNL     1     -10.560  16.689  65.944  1.00  0.00    -0.291 N  
HETATM   25  O   UNL     1     -11.608  16.675  63.912  1.00  0.00    -1.204 OA 
ENDBRANCH  14  15
ENDBRANCH  13  14
ENDBRANCH   4  13
BRANCH   6  26
HETATM   26  N   UNL     1      -7.761   8.793  71.405  1.00  0.00    -0.125 N  
HETATM   27  O   UNL     1      -6.226   9.169  73.045  1.00  0.00    -0.300 OA 
HETATM   28  C   UNL     1      -7.165   8.487  72.640  1.00  0.00    -0.025 C  
HETATM   29  H   UNL     1      -7.292   9.558  70.920  1.00  0.00     0.000 HD 
BRANCH  28  30
HETATM   30  C   UNL     1      -7.498   7.237  73.409  1.00  0.00    -0.075 C  
BRANCH  30  31
HETATM   31  C   UNL     1      -8.664   6.383  73.149  1.00  0.00    -0.122 A  
HETATM   32  H2  UNL     1     -10.720   2.706  72.399  1.00  0.00     0.000 HD 
HETATM   33  C   UNL     1      -9.860   6.564  73.826  1.00  0.00    -0.228 A  
HETATM   34  H1  UNL     1      -9.143   2.760  71.609  1.00  0.00     0.000 HD 
HETATM   35  N   UNL     1      -8.573   5.147  72.489  1.00  0.00    -0.120 NA 
HETATM   36  N   UNL     1      -9.856   3.206  72.187  1.00  0.00    -0.160 NA 
HETATM   37  S   UNL     1     -10.869   5.195  73.643  1.00  0.00    -0.283 SA 
HETATM   38  C   UNL     1      -9.668   4.444  72.670  1.00  0.00    -0.149 A  
ENDBRANCH  30  31
BRANCH  30  39
HETATM   39  N   UNL     1      -6.918   6.911  74.516  1.00  0.00    -0.094 NA 
HETATM   40  H   UNL     1      -7.238   7.336  75.386  1.00  0.00     0.000 HD 
BRANCH  39  41
HETATM   41  O   UNL     1      -5.866   5.995  74.558  1.00  0.00    -0.059 OA 
HETATM   42  C   UNL     1      -5.138   5.628  73.402  1.00  0.00    -0.022 C  
ENDBRANCH  39  41
ENDBRANCH  30  39
ENDBRANCH  28  30
ENDBRANCH   6  26
TORSDOF 8
ENDMDL
MODEL      129
REMARK 921   NORMALIZED FREE ENERGY PREDICTED BY IDOCK:   -6.08 KCAL/MOL
REMARK 922        TOTAL FREE ENERGY PREDICTED BY IDOCK:  -10.18 KCAL/MOL
REMARK 923 INTER-LIGAND FREE ENERGY PREDICTED BY IDOCK:   -8.50 KCAL/MOL
REMARK 924 INTRA-LIGAND FREE ENERGY PREDICTED BY IDOCK:   -1.68 KCAL/MOL
REMARK 927      BINDING AFFINITY PREDICTED BY RF-SCORE:    0.00 PKD
ROOT
HETATM    1  C   UNL     1      -9.002   9.204  67.612  1.00  0.00    -0.123 C  
HETATM    2  S   UNL     1      -8.801  10.258  66.202  1.00  0.00    -0.155 SA 
HETATM    3  C   UNL     1     -10.085  11.545  66.420  1.00  0.00    -0.216 C  
HETATM    4  C   UNL     1     -10.932  11.538  67.661  1.00  0.00    -0.296 C  
HETATM    5  CA  UNL     1     -10.840  10.597  68.650  1.00  0.00    -0.227 C  
HETATM    6  CA  UNL     1      -9.362   7.663  67.755  1.00  0.00    -0.142 C  
HETATM    7  C   UNL     1     -10.143   8.198  68.996  1.00  0.00    -0.205 C  
HETATM    8  N   UNL     1     -10.066   9.474  68.534  1.00  0.00    -0.171 N  
HETATM    9  C   UNL     1     -11.631  10.793  69.917  1.00  0.00    -0.331 C  
HETATM   10  O   UNL     1     -10.812   7.664  69.848  1.00  0.00    -0.249 OA 
HETATM   11  O   UNL     1     -12.176   9.703  70.492  1.00  0.00    -0.206 OA 
HETATM   12  OXT UNL     1     -11.769  11.891  70.434  1.00  0.00    -0.283 OA 
ENDROOT
BRANCH   4  13
HETATM   13  C   UNL     1     -12.020  12.652  67.739  1.00  0.00    -0.243 C  
BRANCH  13  14
HETATM   14  S   UNL     1     -11.548  14.424  67.618  1.00  0.00    -0.386 SA 
BRANCH  14  15
HETATM   15  C   UNL     1     -11.735  15.112  69.250  1.00  0.00    -0.329 C  
HETATM   16  N   UNL     1     -12.763  14.693  69.900  1.00  0.00    -0.569 N  
HETATM   17  H   UNL     1     -13.349  13.937  69.545  1.00  0.00     0.000 HD 
HETATM   18  C   UNL     1      -9.800  16.740  68.915  1.00  0.00    -0.264 C  
HETATM   19  C   UNL     1     -13.036  15.315  71.101  1.00  0.00    -0.454 C  
HETATM   20  N   UNL     1     -10.857  16.109  69.685  1.00  0.00    -0.314 NA 
HETATM   21  C   UNL     1     -11.968  16.124  71.836  1.00  0.00    -0.507 C  
HETATM   22  O   UNL     1     -14.161  15.358  71.600  1.00  0.00    -0.496 OA 
HETATM   23  H   UNL     1     -10.480  17.458  71.275  1.00  0.00     0.000 HD 
HETATM   24  N   UNL     1     -11.041  16.659  70.979  1.00  0.00     0.064 N  
HETATM   25  O   UNL     1     -11.968  16.320  73.040  1.00  0.00    -0.509 OA 
ENDBRANCH  14  15
ENDBRANCH  13  14
ENDBRANCH   4  13
BRANCH   6  26
HETATM   26  N   UNL     1     -10.205   6.668  66.945  1.00  0.00    -0.220 N  
HETATM   27  O   UNL     1     -10.888   4.798  65.839  1.00  0.00    -0.304 OA 
HETATM   28  C   UNL     1     -10.046   5.326  66.563  1.00  0.00    -0.229 C  
HETATM   29  H   UNL     1     -11.078   7.073  66.608  1.00  0.00     0.000 HD 
BRANCH  28  30
HETATM   30  C   UNL     1      -8.987   4.437  67.158  1.00  0.00    -0.119 C  
BRANCH  30  31
HETATM   31  C   UNL     1      -8.966   3.985  68.556  1.00  0.00    -0.117 A  
HETATM   32  H2  UNL     1     -10.137   3.973  72.671  1.00  0.00     0.000 HD 
HETATM   33  C   UNL     1      -8.904   2.640  68.881  1.00  0.00    -0.100 A  
HETATM   34  H1  UNL     1     -10.100   5.602  71.996  1.00  0.00     0.000 HD 
HETATM   35  N   UNL     1      -9.348   4.807  69.629  1.00  0.00    -0.119 NA 
HETATM   36  N   UNL     1      -9.962   4.597  71.884  1.00  0.00    -0.182 NA 
HETATM   37  S   UNL     1      -9.322   2.397  70.522  1.00  0.00    -0.114 SA 
HETATM   38  C   UNL     1      -9.554   4.090  70.711  1.00  0.00    -0.193 A  
ENDBRANCH  30  31
BRANCH  30  39
HETATM   39  N   UNL     1      -7.874   4.164  66.563  1.00  0.00    -0.093 NA 
HETATM   40  H   UNL     1      -7.819   3.333  65.974  1.00  0.00     0.000 HD 
BRANCH  39  41
HETATM   41  O   UNL     1      -6.745   4.972  66.699  1.00  0.00    -0.054 OA 
HETATM   42  C   UNL     1      -6.366   5.913  65.713  1.00  0.00    -0.042 C  
ENDBRANCH  39  41
ENDBRANCH  30  39
ENDBRANCH  28  30
ENDBRANCH   6  26
TORSDOF 8
ENDMDL
MODEL      130
REMARK 921   NORMALIZED FREE ENERGY PREDICTED BY IDOCK:   -6.05 KCAL/MOL
REMARK 922        TOTAL FREE ENERGY PREDICTED BY IDOCK:  -10.14 KCAL/MOL
REMARK 923 INTER-LIGAND FREE ENERGY PREDICTED BY IDOCK:   -8.53 KCAL/MOL
REMARK 924 INTRA-LIGAND FREE ENERGY PREDICTED BY IDOCK:   -1.61 KCAL/MOL
REMARK 927      BINDING AFFINITY PREDICTED BY RF-SCORE:    0.00 PKD
ROOT
HETATM    1  C   UNL     1      -8.971  13.807  66.809  1.00  0.00    -0.185 C  
HETATM    2  S   UNL     1      -7.359  13.640  67.528  1.00  0.00    -0.130 SA 
HETATM    3  C   UNL     1      -7.486  12.133  68.561  1.00  0.00    -0.117 C  
HETATM    4  C   UNL     1      -8.761  11.339  68.553  1.00  0.00    -0.156 C  
HETATM    5  CA  UNL     1      -9.878  11.683  67.842  1.00  0.00    -0.184 C  
HETATM    6  CA  UNL     1     -10.070  14.950  66.899  1.00  0.00    -0.242 C  
HETATM    7  C   UNL     1     -11.024  13.714  66.881  1.00  0.00    -0.289 C  
HETATM    8  N   UNL     1      -9.996  12.877  67.182  1.00  0.00    -0.236 N  
HETATM    9  C   UNL     1     -11.034  10.719  67.789  1.00  0.00    -0.297 C  
HETATM   10  O   UNL     1     -12.225  13.594  66.904  1.00  0.00    -0.399 OA 
HETATM   11  O   UNL     1     -12.280  11.231  67.823  1.00  0.00    -0.504 OA 
HETATM   12  OXT UNL     1     -10.870   9.513  67.698  1.00  0.00    -0.279 OA 
ENDROOT
BRANCH   4  13
HETATM   13  C   UNL     1      -8.783  10.094  69.491  1.00  0.00    -0.174 C  
BRANCH  13  14
HETATM   14  S   UNL     1      -7.564   8.737  69.268  1.00  0.00    -0.095 SA 
BRANCH  14  15
HETATM   15  C   UNL     1      -7.799   8.110  67.618  1.00  0.00    -0.114 C  
HETATM   16  N   UNL     1      -7.622   8.974  66.680  1.00  0.00    -0.089 N  
HETATM   17  H   UNL     1      -7.259   9.907  66.874  1.00  0.00     0.000 HD 
HETATM   18  C   UNL     1      -8.637   5.855  68.465  1.00  0.00    -0.110 C  
HETATM   19  C   UNL     1      -7.947   8.576  65.400  1.00  0.00    -0.113 C  
HETATM   20  N   UNL     1      -8.250   6.800  67.433  1.00  0.00    -0.121 NA 
HETATM   21  C   UNL     1      -8.079   7.098  65.037  1.00  0.00    -0.119 C  
HETATM   22  O   UNL     1      -8.257   9.364  64.506  1.00  0.00    -0.129 OA 
HETATM   23  H   UNL     1      -8.879   5.418  65.956  1.00  0.00     0.000 HD 
HETATM   24  N   UNL     1      -8.453   6.331  66.110  1.00  0.00    -0.132 N  
HETATM   25  O   UNL     1      -7.924   6.655  63.910  1.00  0.00    -0.119 OA 
ENDBRANCH  14  15
ENDBRANCH  13  14
ENDBRANCH   4  13
BRANCH   6  26
HETATM   26  N   UNL     1     -10.489  15.968  67.969  1.00  0.00    -0.266 N  
HETATM   27  O   UNL     1     -10.480  17.736  69.405  1.00  0.00    -0.200 OA 
HETATM   28  C   UNL     1      -9.926  17.151  68.477  1.00  0.00    -0.309 C  
HETATM   29  H   UNL     1     -11.377  15.733  68.412  1.00  0.00     0.000 HD 
BRANCH  28  30
HETATM   30  C   UNL     1      -8.772  17.848  67.807  1.00  0.00    -0.250 C  
BRANCH  30  31
HETATM   31  C   UNL     1      -7.524  18.228  68.480  1.00  0.00    -0.288 A  
HETATM   32  H2  UNL     1      -5.041  20.554  71.076  1.00  0.00     0.000 HD 
HETATM   33  C   UNL     1      -6.665  17.276  69.007  1.00  0.00    -0.238 A  
HETATM   34  H1  UNL     1      -6.233  21.544  70.233  1.00  0.00     0.000 HD 
HETATM   35  N   UNL     1      -7.273  19.530  68.944  1.00  0.00    -0.353 NA 
HETATM   36  N   UNL     1      -5.811  20.633  70.411  1.00  0.00    -0.527 NA 
HETATM   37  S   UNL     1      -5.548  18.001  70.080  1.00  0.00    -0.226 SA 
HETATM   38  C   UNL     1      -6.259  19.537  69.780  1.00  0.00    -0.308 A  
ENDBRANCH  30  31
BRANCH  30  39
HETATM   39  N   UNL     1      -8.851  18.380  66.633  1.00  0.00    -0.282 NA 
HETATM   40  H   UNL     1      -8.003  18.739  66.195  1.00  0.00     0.000 HD 
BRANCH  39  41
HETATM   41  O   UNL     1     -10.061  18.481  65.946  1.00  0.00    -0.532 OA 
HETATM   42  C   UNL     1     -10.784  19.694  65.863  1.00  0.00    -0.413 C  
ENDBRANCH  39  41
ENDBRANCH  30  39
ENDBRANCH  28  30
ENDBRANCH   6  26
TORSDOF 8
ENDMDL
MODEL      131
REMARK 921   NORMALIZED FREE ENERGY PREDICTED BY IDOCK:   -6.03 KCAL/MOL
REMARK 922        TOTAL FREE ENERGY PREDICTED BY IDOCK:  -10.11 KCAL/MOL
REMARK 923 INTER-LIGAND FREE ENERGY PREDICTED BY IDOCK:   -8.84 KCAL/MOL
REMARK 924 INTRA-LIGAND FREE ENERGY PREDICTED BY IDOCK:   -1.27 KCAL/MOL
REMARK 927      BINDING AFFINITY PREDICTED BY RF-SCORE:    0.00 PKD
ROOT
HETATM    1  C   UNL     1      -8.790  10.403  68.358  1.00  0.00    -0.136 C  
HETATM    2  S   UNL     1      -8.062  10.879  66.814  1.00  0.00    -0.148 SA 
HETATM    3  C   UNL     1      -9.047  12.330  66.285  1.00  0.00    -0.125 C  
HETATM    4  C   UNL     1     -10.123  12.860  67.190  1.00  0.00    -0.243 C  
HETATM    5  CA  UNL     1     -10.456  12.306  68.396  1.00  0.00    -0.233 C  
HETATM    6  CA  UNL     1      -9.503   9.068  68.839  1.00  0.00    -0.151 C  
HETATM    7  C   UNL     1     -10.396  10.093  69.604  1.00  0.00    -0.247 C  
HETATM    8  N   UNL     1      -9.941  11.114  68.830  1.00  0.00    -0.197 N  
HETATM    9  C   UNL     1     -11.439  13.026  69.281  1.00  0.00    -0.289 C  
HETATM   10  O   UNL     1     -11.334   9.977  70.356  1.00  0.00    -0.273 OA 
HETATM   11  O   UNL     1     -12.322  12.282  69.975  1.00  0.00    -0.200 OA 
HETATM   12  OXT UNL     1     -11.440  14.242  69.397  1.00  0.00    -0.262 OA 
ENDROOT
BRANCH   4  13
HETATM   13  C   UNL     1     -10.928  14.075  66.637  1.00  0.00    -0.300 C  
BRANCH  13  14
HETATM   14  S   UNL     1     -10.120  15.306  65.538  1.00  0.00    -0.372 SA 
BRANCH  14  15
HETATM   15  C   UNL     1     -10.067  16.838  66.444  1.00  0.00    -0.317 C  
HETATM   16  N   UNL     1     -10.651  17.829  65.867  1.00  0.00    -0.300 N  
HETATM   17  H   UNL     1     -11.200  17.705  65.016  1.00  0.00     0.000 HD 
HETATM   18  C   UNL     1      -8.511  15.872  68.220  1.00  0.00    -0.170 C  
HETATM   19  C   UNL     1     -10.498  19.068  66.454  1.00  0.00    -0.446 C  
HETATM   20  N   UNL     1      -9.334  16.914  67.632  1.00  0.00    -0.231 NA 
HETATM   21  C   UNL     1     -10.057  19.207  67.910  1.00  0.00    -0.386 C  
HETATM   22  O   UNL     1     -10.593  20.127  65.833  1.00  0.00    -0.398 OA 
HETATM   23  H   UNL     1      -8.675  18.257  69.132  1.00  0.00     0.000 HD 
HETATM   24  N   UNL     1      -9.286  18.151  68.323  1.00  0.00    -0.294 N  
HETATM   25  O   UNL     1     -10.314  20.172  68.612  1.00  0.00    -0.407 OA 
ENDBRANCH  14  15
ENDBRANCH  13  14
ENDBRANCH   4  13
BRANCH   6  26
HETATM   26  N   UNL     1     -10.349   7.984  68.156  1.00  0.00    -0.224 N  
HETATM   27  O   UNL     1     -11.242   5.971  67.577  1.00  0.00    -0.229 OA 
HETATM   28  C   UNL     1     -10.519   6.603  68.345  1.00  0.00    -0.211 C  
HETATM   29  H   UNL     1     -10.915   8.350  67.391  1.00  0.00     0.000 HD 
BRANCH  28  30
HETATM   30  C   UNL     1     -10.012   5.887  69.567  1.00  0.00    -0.185 C  
BRANCH  30  31
HETATM   31  C   UNL     1     -10.090   6.414  70.936  1.00  0.00    -0.187 A  
HETATM   32  H2  UNL     1      -9.015   8.953  74.207  1.00  0.00     0.000 HD 
HETATM   33  C   UNL     1     -11.308   6.631  71.560  1.00  0.00    -0.281 A  
HETATM   34  H1  UNL     1      -7.615   8.487  73.240  1.00  0.00     0.000 HD 
HETATM   35  N   UNL     1      -9.010   7.049  71.571  1.00  0.00    -0.139 NA 
HETATM   36  N   UNL     1      -8.618   8.439  73.420  1.00  0.00    -0.349 NA 
HETATM   37  S   UNL     1     -11.110   7.627  72.936  1.00  0.00    -0.361 SA 
HETATM   38  C   UNL     1      -9.420   7.707  72.633  1.00  0.00    -0.176 A  
ENDBRANCH  30  31
BRANCH  30  39
HETATM   39  N   UNL     1      -9.257   4.840  69.512  1.00  0.00    -0.110 NA 
HETATM   40  H   UNL     1      -8.244   4.961  69.494  1.00  0.00     0.000 HD 
BRANCH  39  41
HETATM   41  O   UNL     1      -9.784   3.549  69.478  1.00  0.00    -0.159 OA 
HETATM   42  C   UNL     1      -8.965   2.397  69.531  1.00  0.00    -0.104 C  
ENDBRANCH  39  41
ENDBRANCH  30  39
ENDBRANCH  28  30
ENDBRANCH   6  26
TORSDOF 8
ENDMDL
MODEL      132
REMARK 921   NORMALIZED FREE ENERGY PREDICTED BY IDOCK:   -6.01 KCAL/MOL
REMARK 922        TOTAL FREE ENERGY PREDICTED BY IDOCK:  -10.08 KCAL/MOL
REMARK 923 INTER-LIGAND FREE ENERGY PREDICTED BY IDOCK:   -8.96 KCAL/MOL
REMARK 924 INTRA-LIGAND FREE ENERGY PREDICTED BY IDOCK:   -1.12 KCAL/MOL
REMARK 927      BINDING AFFINITY PREDICTED BY RF-SCORE:    0.00 PKD
ROOT
HETATM    1  C   UNL     1     -11.178   9.645  69.835  1.00  0.00    -0.207 C  
HETATM    2  S   UNL     1     -11.913  10.580  71.148  1.00  0.00    -0.294 SA 
HETATM    3  C   UNL     1     -12.187  12.237  70.417  1.00  0.00    -0.288 C  
HETATM    4  C   UNL     1     -11.861  12.466  68.968  1.00  0.00    -0.349 C  
HETATM    5  CA  UNL     1     -11.327  11.517  68.140  1.00  0.00    -0.298 C  
HETATM    6  CA  UNL     1      -9.774   8.916  69.695  1.00  0.00    -0.174 C  
HETATM    7  C   UNL     1      -9.913   9.430  68.228  1.00  0.00    -0.174 C  
HETATM    8  N   UNL     1     -10.892  10.300  68.593  1.00  0.00    -0.221 N  
HETATM    9  C   UNL     1     -11.198  11.822  66.671  1.00  0.00    -0.323 C  
HETATM   10  O   UNL     1      -9.222   9.326  67.244  1.00  0.00    -0.125 OA 
HETATM   11  O   UNL     1     -10.102  11.371  66.030  1.00  0.00    -0.218 OA 
HETATM   12  OXT UNL     1     -12.056  12.437  66.057  1.00  0.00    -0.600 OA 
ENDROOT
BRANCH   4  13
HETATM   13  C   UNL     1     -12.095  13.917  68.448  1.00  0.00    -0.291 C  
BRANCH  13  14
HETATM   14  S   UNL     1     -11.363  15.353  69.330  1.00  0.00    -0.342 SA 
BRANCH  14  15
HETATM   15  C   UNL     1     -10.263  16.149  68.178  1.00  0.00    -0.247 C  
HETATM   16  N   UNL     1     -10.769  17.154  67.553  1.00  0.00    -0.318 N  
HETATM   17  H   UNL     1     -11.687  17.528  67.794  1.00  0.00     0.000 HD 
HETATM   18  C   UNL     1      -8.462  14.370  68.485  1.00  0.00    -0.170 C  
HETATM   19  C   UNL     1     -10.010  17.701  66.539  1.00  0.00    -0.332 C  
HETATM   20  N   UNL     1      -8.999  15.604  67.939  1.00  0.00    -0.179 NA 
HETATM   21  C   UNL     1      -8.507  17.445  66.446  1.00  0.00    -0.257 C  
HETATM   22  O   UNL     1     -10.493  18.327  65.595  1.00  0.00    -0.627 OA 
HETATM   23  H   UNL     1      -7.268  15.804  66.734  1.00  0.00     0.000 HD 
HETATM   24  N   UNL     1      -8.150  16.242  67.000  1.00  0.00    -0.187 N  
HETATM   25  O   UNL     1      -7.719  18.196  65.894  1.00  0.00    -0.485 OA 
ENDBRANCH  14  15
ENDBRANCH  13  14
ENDBRANCH   4  13
BRANCH   6  26
HETATM   26  N   UNL     1      -8.364   9.166  70.247  1.00  0.00    -0.153 N  
HETATM   27  O   UNL     1      -6.578   9.317  71.653  1.00  0.00    -0.240 OA 
HETATM   28  C   UNL     1      -7.738   8.944  71.485  1.00  0.00    -0.053 C  
HETATM   29  H   UNL     1      -7.740   9.589  69.561  1.00  0.00     0.000 HD 
BRANCH  28  30
HETATM   30  C   UNL     1      -8.355   8.092  72.561  1.00  0.00    -0.172 C  
BRANCH  30  31
HETATM   31  C   UNL     1      -9.455   7.143  72.345  1.00  0.00    -0.145 A  
HETATM   32  H2  UNL     1     -13.470   5.956  71.462  1.00  0.00     0.000 HD 
HETATM   33  C   UNL     1      -9.271   5.972  71.627  1.00  0.00    -0.145 A  
HETATM   34  H1  UNL     1     -13.409   7.438  72.418  1.00  0.00     0.000 HD 
HETATM   35  N   UNL     1     -10.805   7.485  72.528  1.00  0.00    -0.273 NA 
HETATM   36  N   UNL     1     -12.928   6.670  71.949  1.00  0.00    -0.230 NA 
HETATM   37  S   UNL     1     -10.777   5.298  71.177  1.00  0.00    -0.050 SA 
HETATM   38  C   UNL     1     -11.588   6.591  71.967  1.00  0.00    -0.311 A  
ENDBRANCH  30  31
BRANCH  30  39
HETATM   39  N   UNL     1      -8.134   8.271  73.821  1.00  0.00    -0.307 NA 
HETATM   40  H   UNL     1      -8.575   9.060  74.293  1.00  0.00     0.000 HD 
BRANCH  39  41
HETATM   41  O   UNL     1      -7.309   7.419  74.555  1.00  0.00    -0.114 OA 
HETATM   42  C   UNL     1      -6.178   6.788  73.986  1.00  0.00    -0.064 C  
ENDBRANCH  39  41
ENDBRANCH  30  39
ENDBRANCH  28  30
ENDBRANCH   6  26
TORSDOF 8
ENDMDL
MODEL      133
REMARK 921   NORMALIZED FREE ENERGY PREDICTED BY IDOCK:   -6.00 KCAL/MOL
REMARK 922        TOTAL FREE ENERGY PREDICTED BY IDOCK:  -10.07 KCAL/MOL
REMARK 923 INTER-LIGAND FREE ENERGY PREDICTED BY IDOCK:   -8.46 KCAL/MOL
REMARK 924 INTRA-LIGAND FREE ENERGY PREDICTED BY IDOCK:   -1.61 KCAL/MOL
REMARK 927      BINDING AFFINITY PREDICTED BY RF-SCORE:    0.00 PKD
ROOT
HETATM    1  C   UNL     1      -9.116   6.101  67.266  1.00  0.00    -0.115 C  
HETATM    2  S   UNL     1     -10.746   6.656  67.683  1.00  0.00    -0.326 SA 
HETATM    3  C   UNL     1     -10.762   8.415  67.172  1.00  0.00    -0.152 C  
HETATM    4  C   UNL     1      -9.558   8.994  66.485  1.00  0.00    -0.286 C  
HETATM    5  CA  UNL     1      -8.406   8.300  66.237  1.00  0.00    -0.124 C  
HETATM    6  CA  UNL     1      -7.926   5.519  68.142  1.00  0.00    -0.096 C  
HETATM    7  C   UNL     1      -7.079   6.348  67.127  1.00  0.00    -0.073 C  
HETATM    8  N   UNL     1      -8.178   7.043  66.730  1.00  0.00    -0.109 N  
HETATM    9  C   UNL     1      -7.334   8.944  65.397  1.00  0.00    -0.085 C  
HETATM   10  O   UNL     1      -5.893   6.520  66.982  1.00  0.00    -0.016 OA 
HETATM   11  O   UNL     1      -6.050   8.727  65.744  1.00  0.00    -0.051 OA 
HETATM   12  OXT UNL     1      -7.597   9.626  64.419  1.00  0.00    -0.117 OA 
ENDROOT
BRANCH   4  13
HETATM   13  C   UNL     1      -9.655  10.507  66.121  1.00  0.00    -0.190 C  
BRANCH  13  14
HETATM   14  S   UNL     1     -10.816  11.609  67.021  1.00  0.00    -0.280 SA 
BRANCH  14  15
HETATM   15  C   UNL     1     -10.972  13.090  66.044  1.00  0.00    -0.275 C  
HETATM   16  N   UNL     1     -11.921  13.068  65.175  1.00  0.00    -0.375 N  
HETATM   17  H   UNL     1     -12.599  12.307  65.142  1.00  0.00     0.000 HD 
HETATM   18  C   UNL     1      -8.841  14.099  67.018  1.00  0.00    -0.221 C  
HETATM   19  C   UNL     1     -11.978  14.125  64.290  1.00  0.00    -0.435 C  
HETATM   20  N   UNL     1     -10.030  14.114  66.185  1.00  0.00    -0.303 NA 
HETATM   21  C   UNL     1     -11.264  15.444  64.582  1.00  0.00    -0.364 C  
HETATM   22  O   UNL     1     -12.500  14.048  63.178  1.00  0.00    -0.733 OA 
HETATM   23  H   UNL     1      -9.429  15.983  65.389  1.00  0.00     0.000 HD 
HETATM   24  N   UNL     1     -10.160  15.272  65.378  1.00  0.00    -0.365 N  
HETATM   25  O   UNL     1     -11.602  16.521  64.118  1.00  0.00    -1.052 OA 
ENDBRANCH  14  15
ENDBRANCH  13  14
ENDBRANCH   4  13
BRANCH   6  26
HETATM   26  N   UNL     1      -7.440   5.728  69.583  1.00  0.00    -0.074 N  
HETATM   27  O   UNL     1      -7.016   6.659  71.618  1.00  0.00    -0.072 OA 
HETATM   28  C   UNL     1      -7.593   6.748  70.536  1.00  0.00    -0.091 C  
HETATM   29  H   UNL     1      -6.877   4.949  69.927  1.00  0.00     0.000 HD 
BRANCH  28  30
HETATM   30  C   UNL     1      -8.592   7.862  70.372  1.00  0.00    -0.132 C  
BRANCH  30  31
HETATM   31  C   UNL     1      -9.940   7.866  70.954  1.00  0.00    -0.182 A  
HETATM   32  H2  UNL     1     -13.976   9.203  71.442  1.00  0.00     0.000 HD 
HETATM   33  C   UNL     1     -10.617   6.687  71.224  1.00  0.00    -0.223 A  
HETATM   34  H1  UNL     1     -12.869  10.536  71.111  1.00  0.00     0.000 HD 
HETATM   35  N   UNL     1     -10.766   9.002  70.956  1.00  0.00    -0.245 NA 
HETATM   36  N   UNL     1     -13.030   9.540  71.261  1.00  0.00    -0.339 NA 
HETATM   37  S   UNL     1     -12.280   6.991  71.478  1.00  0.00    -0.384 SA 
HETATM   38  C   UNL     1     -12.009   8.670  71.225  1.00  0.00    -0.293 A  
ENDBRANCH  30  31
BRANCH  30  39
HETATM   39  N   UNL     1      -8.447   8.824  69.522  1.00  0.00    -0.125 NA 
HETATM   40  H   UNL     1      -9.230   9.072  68.918  1.00  0.00     0.000 HD 
BRANCH  39  41
HETATM   41  O   UNL     1      -7.251   9.533  69.404  1.00  0.00    -0.058 OA 
HETATM   42  C   UNL     1      -7.216  10.893  69.017  1.00  0.00    -0.101 C  
ENDBRANCH  39  41
ENDBRANCH  30  39
ENDBRANCH  28  30
ENDBRANCH   6  26
TORSDOF 8
ENDMDL
MODEL      134
REMARK 921   NORMALIZED FREE ENERGY PREDICTED BY IDOCK:   -6.00 KCAL/MOL
REMARK 922        TOTAL FREE ENERGY PREDICTED BY IDOCK:  -10.07 KCAL/MOL
REMARK 923 INTER-LIGAND FREE ENERGY PREDICTED BY IDOCK:   -8.55 KCAL/MOL
REMARK 924 INTRA-LIGAND FREE ENERGY PREDICTED BY IDOCK:   -1.51 KCAL/MOL
REMARK 927      BINDING AFFINITY PREDICTED BY RF-SCORE:    0.00 PKD
ROOT
HETATM    1  C   UNL     1     -10.162  10.743  66.526  1.00  0.00    -0.235 C  
HETATM    2  S   UNL     1      -9.609  11.343  68.098  1.00  0.00    -0.196 SA 
HETATM    3  C   UNL     1     -10.134  13.098  68.115  1.00  0.00    -0.237 C  
HETATM    4  C   UNL     1     -10.930  13.640  66.961  1.00  0.00    -0.298 C  
HETATM    5  CA  UNL     1     -11.271  12.914  65.853  1.00  0.00    -0.293 C  
HETATM    6  CA  UNL     1      -9.387  10.137  65.278  1.00  0.00    -0.224 C  
HETATM    7  C   UNL     1     -10.482  10.935  64.503  1.00  0.00    -0.323 C  
HETATM    8  N   UNL     1     -10.787  11.656  65.615  1.00  0.00    -0.282 N  
HETATM    9  C   UNL     1     -12.208  13.523  64.844  1.00  0.00    -0.410 C  
HETATM   10  O   UNL     1     -10.731  11.075  63.330  1.00  0.00    -0.318 OA 
HETATM   11  O   UNL     1     -11.974  13.276  63.540  1.00  0.00    -0.512 OA 
HETATM   12  OXT UNL     1     -13.167  14.204  65.174  1.00  0.00    -0.743 OA 
ENDROOT
BRANCH   4  13
HETATM   13  C   UNL     1     -11.299  15.152  67.051  1.00  0.00    -0.277 C  
BRANCH  13  14
HETATM   14  S   UNL     1     -10.424  16.389  66.013  1.00  0.00    -0.294 SA 
BRANCH  14  15
HETATM   15  C   UNL     1      -9.341  17.291  67.101  1.00  0.00    -0.243 C  
HETATM   16  N   UNL     1      -8.421  16.583  67.658  1.00  0.00    -0.172 N  
HETATM   17  H   UNL     1      -8.262  15.611  67.396  1.00  0.00     0.000 HD 
HETATM   18  C   UNL     1     -10.728  19.422  66.909  1.00  0.00    -0.465 C  
HETATM   19  C   UNL     1      -7.662  17.204  68.628  1.00  0.00    -0.260 C  
HETATM   20  N   UNL     1      -9.597  18.638  67.370  1.00  0.00    -0.292 NA 
HETATM   21  C   UNL     1      -7.596  18.727  68.731  1.00  0.00    -0.311 C  
HETATM   22  O   UNL     1      -7.085  16.594  69.529  1.00  0.00    -0.212 OA 
HETATM   23  H   UNL     1      -8.963  20.279  68.551  1.00  0.00     0.000 HD 
HETATM   24  N   UNL     1      -8.735  19.329  68.260  1.00  0.00    -0.326 N  
HETATM   25  O   UNL     1      -6.663  19.339  69.225  1.00  0.00    -0.304 OA 
ENDBRANCH  14  15
ENDBRANCH  13  14
ENDBRANCH   4  13
BRANCH   6  26
HETATM   26  N   UNL     1      -7.997  10.344  64.662  1.00  0.00    -0.261 N  
HETATM   27  O   UNL     1      -5.746  10.589  64.415  1.00  0.00    -0.140 OA 
HETATM   28  C   UNL     1      -6.684  10.313  65.161  1.00  0.00    -0.120 C  
HETATM   29  H   UNL     1      -8.034  10.552  63.664  1.00  0.00     0.000 HD 
BRANCH  28  30
HETATM   30  C   UNL     1      -6.351   9.766  66.522  1.00  0.00    -0.069 C  
BRANCH  30  31
HETATM   31  C   UNL     1      -6.679   8.410  66.980  1.00  0.00    -0.062 A  
HETATM   32  H2  UNL     1      -9.043   5.407  68.904  1.00  0.00     0.000 HD 
HETATM   33  C   UNL     1      -6.472   7.303  66.174  1.00  0.00    -0.045 A  
HETATM   34  H1  UNL     1      -9.102   6.948  69.760  1.00  0.00     0.000 HD 
HETATM   35  N   UNL     1      -7.521   8.158  68.077  1.00  0.00    -0.096 NA 
HETATM   36  N   UNL     1      -8.753   6.381  68.987  1.00  0.00    -0.123 NA 
HETATM   37  S   UNL     1      -7.325   5.949  66.778  1.00  0.00    -0.080 SA 
HETATM   38  C   UNL     1      -7.914   6.905  68.080  1.00  0.00    -0.115 A  
ENDBRANCH  30  31
BRANCH  30  39
HETATM   39  N   UNL     1      -5.943  10.503  67.501  1.00  0.00    -0.051 NA 
HETATM   40  H   UNL     1      -5.231  10.137  68.134  1.00  0.00     0.000 HD 
BRANCH  39  41
HETATM   41  O   UNL     1      -6.445  11.786  67.720  1.00  0.00    -0.063 OA 
HETATM   42  C   UNL     1      -5.667  12.948  67.505  1.00  0.00    -0.099 C  
ENDBRANCH  39  41
ENDBRANCH  30  39
ENDBRANCH  28  30
ENDBRANCH   6  26
TORSDOF 8
ENDMDL
MODEL      135
REMARK 921   NORMALIZED FREE ENERGY PREDICTED BY IDOCK:   -5.99 KCAL/MOL
REMARK 922        TOTAL FREE ENERGY PREDICTED BY IDOCK:  -10.05 KCAL/MOL
REMARK 923 INTER-LIGAND FREE ENERGY PREDICTED BY IDOCK:   -8.10 KCAL/MOL
REMARK 924 INTRA-LIGAND FREE ENERGY PREDICTED BY IDOCK:   -1.95 KCAL/MOL
REMARK 927      BINDING AFFINITY PREDICTED BY RF-SCORE:    0.00 PKD
ROOT
HETATM    1  C   UNL     1     -10.016   9.712  70.176  1.00  0.00    -0.261 C  
HETATM    2  S   UNL     1      -8.873   8.367  70.034  1.00  0.00    -0.139 SA 
HETATM    3  C   UNL     1      -8.706   8.113  68.228  1.00  0.00    -0.133 C  
HETATM    4  C   UNL     1      -9.417   9.041  67.284  1.00  0.00    -0.189 C  
HETATM    5  CA  UNL     1     -10.231  10.066  67.681  1.00  0.00    -0.204 C  
HETATM    6  CA  UNL     1     -11.449   9.833  70.852  1.00  0.00    -0.369 C  
HETATM    7  C   UNL     1     -11.701  10.748  69.613  1.00  0.00    -0.323 C  
HETATM    8  N   UNL     1     -10.601  10.255  68.985  1.00  0.00    -0.210 N  
HETATM    9  C   UNL     1     -10.755  11.024  66.643  1.00  0.00    -0.249 C  
HETATM   10  O   UNL     1     -12.652  11.391  69.237  1.00  0.00    -0.225 OA 
HETATM   11  O   UNL     1     -12.017  11.473  66.783  1.00  0.00    -0.470 OA 
HETATM   12  OXT UNL     1     -10.068  11.410  65.709  1.00  0.00    -0.226 OA 
ENDROOT
BRANCH   4  13
HETATM   13  C   UNL     1      -9.241   8.723  65.768  1.00  0.00    -0.206 C  
BRANCH  13  14
HETATM   14  S   UNL     1      -7.810   7.730  65.184  1.00  0.00    -0.129 SA 
BRANCH  14  15
HETATM   15  C   UNL     1      -8.275   6.020  65.350  1.00  0.00    -0.141 C  
HETATM   16  N   UNL     1      -9.364   5.694  64.747  1.00  0.00    -0.226 N  
HETATM   17  H   UNL     1      -9.847   6.344  64.127  1.00  0.00     0.000 HD 
HETATM   18  C   UNL     1      -6.406   5.550  67.021  1.00  0.00    -0.039 C  
HETATM   19  C   UNL     1      -9.847   4.422  64.979  1.00  0.00    -0.157 C  
HETATM   20  N   UNL     1      -7.529   5.177  66.180  1.00  0.00    -0.085 NA 
HETATM   21  C   UNL     1      -8.948   3.323  65.541  1.00  0.00    -0.142 C  
HETATM   22  O   UNL     1     -11.034   4.118  64.860  1.00  0.00    -0.235 OA 
HETATM   23  H   UNL     1      -7.469   3.223  66.995  1.00  0.00     0.000 HD 
HETATM   24  N   UNL     1      -7.934   3.825  66.316  1.00  0.00    -0.089 N  
HETATM   25  O   UNL     1      -9.138   2.130  65.367  1.00  0.00    -0.130 OA 
ENDBRANCH  14  15
ENDBRANCH  13  14
ENDBRANCH   4  13
BRANCH   6  26
HETATM   26  N   UNL     1     -12.620   8.869  71.087  1.00  0.00    -0.460 N  
HETATM   27  O   UNL     1     -13.832   7.006  71.585  1.00  0.00    -0.346 OA 
HETATM   28  C   UNL     1     -12.732   7.554  71.568  1.00  0.00    -0.359 C  
HETATM   29  H   UNL     1     -13.522   9.275  70.838  1.00  0.00     0.000 HD 
BRANCH  28  30
HETATM   30  C   UNL     1     -11.593   6.844  72.250  1.00  0.00    -0.270 C  
BRANCH  30  31
HETATM   31  C   UNL     1     -11.083   5.522  71.864  1.00  0.00    -0.166 A  
HETATM   32  H2  UNL     1      -8.914   2.727  69.458  1.00  0.00     0.000 HD 
HETATM   33  C   UNL     1     -10.597   4.630  72.805  1.00  0.00    -0.208 A  
HETATM   34  H1  UNL     1      -9.679   3.985  68.488  1.00  0.00     0.000 HD 
HETATM   35  N   UNL     1     -10.726   5.198  70.544  1.00  0.00    -0.148 NA 
HETATM   36  N   UNL     1      -9.494   3.564  69.398  1.00  0.00    -0.179 NA 
HETATM   37  S   UNL     1      -9.696   3.388  72.050  1.00  0.00    -0.170 SA 
HETATM   38  C   UNL     1     -10.007   4.099  70.516  1.00  0.00    -0.107 A  
ENDBRANCH  30  31
BRANCH  30  39
HETATM   39  N   UNL     1     -11.096   7.225  73.380  1.00  0.00    -0.581 NA 
HETATM   40  H   UNL     1     -11.533   6.906  74.245  1.00  0.00     0.000 HD 
BRANCH  39  41
HETATM   41  O   UNL     1      -9.980   8.058  73.454  1.00  0.00    -0.289 OA 
HETATM   42  C   UNL     1      -8.782   7.660  74.092  1.00  0.00    -0.240 C  
ENDBRANCH  39  41
ENDBRANCH  30  39
ENDBRANCH  28  30
ENDBRANCH   6  26
TORSDOF 8
ENDMDL
MODEL      136
REMARK 921   NORMALIZED FREE ENERGY PREDICTED BY IDOCK:   -5.97 KCAL/MOL
REMARK 922        TOTAL FREE ENERGY PREDICTED BY IDOCK:  -10.02 KCAL/MOL
REMARK 923 INTER-LIGAND FREE ENERGY PREDICTED BY IDOCK:   -8.72 KCAL/MOL
REMARK 924 INTRA-LIGAND FREE ENERGY PREDICTED BY IDOCK:   -1.30 KCAL/MOL
REMARK 927      BINDING AFFINITY PREDICTED BY RF-SCORE:    0.00 PKD
ROOT
HETATM    1  C   UNL     1      -9.200   9.471  68.065  1.00  0.00    -0.129 C  
HETATM    2  S   UNL     1     -10.529   9.681  66.912  1.00  0.00    -0.179 SA 
HETATM    3  C   UNL     1     -10.424  11.444  66.428  1.00  0.00    -0.254 C  
HETATM    4  C   UNL     1      -9.304  12.290  66.962  1.00  0.00    -0.205 C  
HETATM    5  CA  UNL     1      -8.350  11.842  67.834  1.00  0.00    -0.149 C  
HETATM    6  CA  UNL     1      -9.166   9.044  69.595  1.00  0.00    -0.159 C  
HETATM    7  C   UNL     1      -8.015  10.097  69.625  1.00  0.00    -0.173 C  
HETATM    8  N   UNL     1      -8.411  10.611  68.430  1.00  0.00    -0.126 N  
HETATM    9  C   UNL     1      -7.188  12.740  68.167  1.00  0.00    -0.115 C  
HETATM   10  O   UNL     1      -7.278  10.495  70.494  1.00  0.00    -0.232 OA 
HETATM   11  O   UNL     1      -6.732  12.734  69.436  1.00  0.00    -0.095 OA 
HETATM   12  OXT UNL     1      -6.648  13.443  67.327  1.00  0.00    -0.234 OA 
ENDROOT
BRANCH   4  13
HETATM   13  C   UNL     1      -9.320  13.785  66.520  1.00  0.00    -0.233 C  
BRANCH  13  14
HETATM   14  S   UNL     1     -10.889  14.741  66.528  1.00  0.00    -0.324 SA 
BRANCH  14  15
HETATM   15  C   UNL     1     -10.478  16.387  67.066  1.00  0.00    -0.291 C  
HETATM   16  N   UNL     1     -10.063  17.174  66.136  1.00  0.00    -0.314 N  
HETATM   17  H   UNL     1     -10.088  16.900  65.153  1.00  0.00     0.000 HD 
HETATM   18  C   UNL     1     -10.800  15.792  69.526  1.00  0.00    -0.287 C  
HETATM   19  C   UNL     1      -9.583  18.406  66.531  1.00  0.00    -0.327 C  
HETATM   20  N   UNL     1     -10.518  16.700  68.428  1.00  0.00    -0.303 NA 
HETATM   21  C   UNL     1      -9.923  18.987  67.902  1.00  0.00    -0.358 C  
HETATM   22  O   UNL     1      -8.776  19.060  65.870  1.00  0.00    -0.451 OA 
HETATM   23  H   UNL     1     -10.084  18.230  69.828  1.00  0.00     0.000 HD 
HETATM   24  N   UNL     1     -10.162  18.011  68.835  1.00  0.00    -0.370 N  
HETATM   25  O   UNL     1      -9.927  20.181  68.156  1.00  0.00    -0.392 OA 
ENDBRANCH  14  15
ENDBRANCH  13  14
ENDBRANCH   4  13
BRANCH   6  26
HETATM   26  N   UNL     1     -10.117   9.215  70.788  1.00  0.00    -0.245 N  
HETATM   27  O   UNL     1     -11.619   8.786  72.446  1.00  0.00    -0.352 OA 
HETATM   28  C   UNL     1     -10.883   8.335  71.570  1.00  0.00    -0.249 C  
HETATM   29  H   UNL     1     -10.215  10.187  71.078  1.00  0.00     0.000 HD 
BRANCH  28  30
HETATM   30  C   UNL     1     -10.701   6.842  71.519  1.00  0.00    -0.226 C  
BRANCH  30  31
HETATM   31  C   UNL     1     -10.635   6.051  70.283  1.00  0.00    -0.273 A  
HETATM   32  H2  UNL     1     -10.683   5.412  66.052  1.00  0.00     0.000 HD 
HETATM   33  C   UNL     1      -9.709   5.033  70.122  1.00  0.00    -0.210 A  
HETATM   34  H1  UNL     1     -11.820   6.667  66.548  1.00  0.00     0.000 HD 
HETATM   35  N   UNL     1     -11.229   6.466  69.080  1.00  0.00    -0.353 NA 
HETATM   36  N   UNL     1     -11.118   5.968  66.790  1.00  0.00    -0.236 NA 
HETATM   37  S   UNL     1      -9.577   4.592  68.476  1.00  0.00    -0.147 SA 
HETATM   38  C   UNL     1     -10.761   5.771  68.068  1.00  0.00    -0.209 A  
ENDBRANCH  30  31
BRANCH  30  39
HETATM   39  N   UNL     1     -10.808   6.079  72.556  1.00  0.00    -0.233 NA 
HETATM   40  H   UNL     1     -11.537   5.366  72.572  1.00  0.00     0.000 HD 
BRANCH  39  41
HETATM   41  O   UNL     1      -9.957   6.200  73.654  1.00  0.00    -0.172 OA 
HETATM   42  C   UNL     1      -8.852   5.338  73.852  1.00  0.00    -0.117 C  
ENDBRANCH  39  41
ENDBRANCH  30  39
ENDBRANCH  28  30
ENDBRANCH   6  26
TORSDOF 8
ENDMDL
MODEL      137
REMARK 921   NORMALIZED FREE ENERGY PREDICTED BY IDOCK:   -5.96 KCAL/MOL
REMARK 922        TOTAL FREE ENERGY PREDICTED BY IDOCK:  -10.01 KCAL/MOL
REMARK 923 INTER-LIGAND FREE ENERGY PREDICTED BY IDOCK:   -8.26 KCAL/MOL
REMARK 924 INTRA-LIGAND FREE ENERGY PREDICTED BY IDOCK:   -1.74 KCAL/MOL
REMARK 927      BINDING AFFINITY PREDICTED BY RF-SCORE:    0.00 PKD
ROOT
HETATM    1  C   UNL     1     -11.186  12.371  67.842  1.00  0.00    -0.266 C  
HETATM    2  S   UNL     1     -10.254  11.110  67.017  1.00  0.00    -0.223 SA 
HETATM    3  C   UNL     1      -8.542  11.759  67.002  1.00  0.00    -0.173 C  
HETATM    4  C   UNL     1      -8.240  13.059  67.691  1.00  0.00    -0.171 C  
HETATM    5  CA  UNL     1      -9.179  13.835  68.315  1.00  0.00    -0.204 C  
HETATM    6  CA  UNL     1     -12.404  13.279  67.378  1.00  0.00    -0.030 C  
HETATM    7  C   UNL     1     -11.650  14.333  68.247  1.00  0.00    -0.324 C  
HETATM    8  N   UNL     1     -10.521  13.576  68.241  1.00  0.00    -0.246 N  
HETATM    9  C   UNL     1      -8.724  15.032  69.108  1.00  0.00    -0.188 C  
HETATM   10  O   UNL     1     -11.875  15.483  68.535  1.00  0.00    -0.354 OA 
HETATM   11  O   UNL     1      -9.483  16.144  69.058  1.00  0.00    -0.224 OA 
HETATM   12  OXT UNL     1      -7.715  15.010  69.796  1.00  0.00    -0.183 OA 
ENDROOT
BRANCH   4  13
HETATM   13  C   UNL     1      -6.762  13.545  67.594  1.00  0.00    -0.167 C  
BRANCH  13  14
HETATM   14  S   UNL     1      -5.389  12.331  67.470  1.00  0.00    -0.116 SA 
BRANCH  14  15
HETATM   15  C   UNL     1      -5.736  11.048  68.653  1.00  0.00    -0.043 C  
HETATM   16  N   UNL     1      -5.803  11.443  69.876  1.00  0.00    -0.093 N  
HETATM   17  H   UNL     1      -5.778  12.432  70.121  1.00  0.00     0.000 HD 
HETATM   18  C   UNL     1      -5.555   9.211  66.893  1.00  0.00    -0.040 C  
HETATM   19  C   UNL     1      -5.912  10.462  70.841  1.00  0.00    -0.042 C  
HETATM   20  N   UNL     1      -5.808   9.717  68.230  1.00  0.00    -0.043 NA 
HETATM   21  C   UNL     1      -6.370   9.048  70.488  1.00  0.00    -0.048 C  
HETATM   22  O   UNL     1      -5.549  10.618  72.007  1.00  0.00    -0.309 OA 
HETATM   23  H   UNL     1      -6.014   7.727  68.927  1.00  0.00     0.000 HD 
HETATM   24  N   UNL     1      -6.061   8.710  69.195  1.00  0.00    -0.042 N  
HETATM   25  O   UNL     1      -6.902   8.285  71.278  1.00  0.00    -0.050 OA 
ENDBRANCH  14  15
ENDBRANCH  13  14
ENDBRANCH   4  13
BRANCH   6  26
HETATM   26  N   UNL     1     -12.862  13.876  66.040  1.00  0.00    -0.434 N  
HETATM   27  O   UNL     1     -12.903  15.041  64.083  1.00  0.00    -0.644 OA 
HETATM   28  C   UNL     1     -12.242  14.647  65.042  1.00  0.00    -0.322 C  
HETATM   29  H   UNL     1     -13.837  13.665  65.826  1.00  0.00     0.000 HD 
BRANCH  28  30
HETATM   30  C   UNL     1     -10.753  14.855  64.992  1.00  0.00    -0.431 C  
BRANCH  30  31
HETATM   31  C   UNL     1     -10.078  16.127  65.282  1.00  0.00    -0.070 A  
HETATM   32  H2  UNL     1      -9.770  20.138  66.740  1.00  0.00     0.000 HD 
HETATM   33  C   UNL     1      -8.789  16.164  65.791  1.00  0.00     0.034 A  
HETATM   34  H1  UNL     1     -11.338  19.819  65.996  1.00  0.00     0.000 HD 
HETATM   35  N   UNL     1     -10.766  17.345  65.405  1.00  0.00    -0.576 NA 
HETATM   36  N   UNL     1     -10.405  19.500  66.259  1.00  0.00    -0.467 NA 
HETATM   37  S   UNL     1      -8.434  17.713  66.422  1.00  0.00    -0.219 SA 
HETATM   38  C   UNL     1     -10.006  18.251  65.978  1.00  0.00    -0.215 A  
ENDBRANCH  30  31
BRANCH  30  39
HETATM   39  N   UNL     1      -9.936  14.001  64.472  1.00  0.00    -0.694 NA 
HETATM   40  H   UNL     1      -9.004  14.312  64.196  1.00  0.00     0.000 HD 
BRANCH  39  41
HETATM   41  O   UNL     1     -10.288  12.665  64.276  1.00  0.00    -0.354 OA 
HETATM   42  C   UNL     1      -9.968  11.967  63.089  1.00  0.00    -0.294 C  
ENDBRANCH  39  41
ENDBRANCH  30  39
ENDBRANCH  28  30
ENDBRANCH   6  26
TORSDOF 8
ENDMDL
MODEL      138
REMARK 921   NORMALIZED FREE ENERGY PREDICTED BY IDOCK:   -5.95 KCAL/MOL
REMARK 922        TOTAL FREE ENERGY PREDICTED BY IDOCK:  -10.00 KCAL/MOL
REMARK 923 INTER-LIGAND FREE ENERGY PREDICTED BY IDOCK:   -8.21 KCAL/MOL
REMARK 924 INTRA-LIGAND FREE ENERGY PREDICTED BY IDOCK:   -1.79 KCAL/MOL
REMARK 927      BINDING AFFINITY PREDICTED BY RF-SCORE:    0.00 PKD
ROOT
HETATM    1  C   UNL     1      -8.268  10.013  65.914  1.00  0.00    -0.128 C  
HETATM    2  S   UNL     1      -9.963   9.652  66.284  1.00  0.00    -0.254 SA 
HETATM    3  C   UNL     1     -10.485  11.030  67.371  1.00  0.00    -0.218 C  
HETATM    4  C   UNL     1      -9.524  12.148  67.658  1.00  0.00    -0.187 C  
HETATM    5  CA  UNL     1      -8.241  12.200  67.185  1.00  0.00    -0.182 C  
HETATM    6  CA  UNL     1      -6.919   9.223  66.194  1.00  0.00    -0.086 C  
HETATM    7  C   UNL     1      -6.387  10.673  66.417  1.00  0.00    -0.109 C  
HETATM    8  N   UNL     1      -7.653  11.155  66.524  1.00  0.00    -0.146 N  
HETATM    9  C   UNL     1      -7.433  13.451  67.408  1.00  0.00    -0.123 C  
HETATM   10  O   UNL     1      -5.302  11.124  66.696  1.00  0.00    -0.075 OA 
HETATM   11  O   UNL     1      -6.121  13.311  67.685  1.00  0.00    -0.148 OA 
HETATM   12  OXT UNL     1      -7.924  14.566  67.325  1.00  0.00    -0.193 OA 
ENDROOT
BRANCH   4  13
HETATM   13  C   UNL     1     -10.049  13.256  68.620  1.00  0.00    -0.146 C  
BRANCH  13  14
HETATM   14  S   UNL     1     -11.839  13.662  68.686  1.00  0.00    -0.377 SA 
BRANCH  14  15
HETATM   15  C   UNL     1     -12.130  14.427  70.267  1.00  0.00    -0.331 C  
HETATM   16  N   UNL     1     -12.847  13.734  71.080  1.00  0.00    -0.342 N  
HETATM   17  H   UNL     1     -13.119  12.774  70.869  1.00  0.00     0.000 HD 
HETATM   18  C   UNL     1     -11.029  16.612  69.546  1.00  0.00    -0.228 C  
HETATM   19  C   UNL     1     -13.230  14.352  72.253  1.00  0.00    -0.406 C  
HETATM   20  N   UNL     1     -11.678  15.730  70.499  1.00  0.00    -0.348 NA 
HETATM   21  C   UNL     1     -12.503  15.592  72.771  1.00  0.00    -0.418 C  
HETATM   22  O   UNL     1     -14.230  14.026  72.893  1.00  0.00    -0.478 OA 
HETATM   23  H   UNL     1     -11.716  17.309  71.911  1.00  0.00     0.000 HD 
HETATM   24  N   UNL     1     -11.943  16.327  71.758  1.00  0.00    -0.464 N  
HETATM   25  O   UNL     1     -12.469  15.923  73.945  1.00  0.00    -0.511 OA 
ENDBRANCH  14  15
ENDBRANCH  13  14
ENDBRANCH   4  13
BRANCH   6  26
HETATM   26  N   UNL     1      -6.430   8.268  67.293  1.00  0.00    -0.057 N  
HETATM   27  O   UNL     1      -5.999   7.339  69.327  1.00  0.00    -0.028 OA 
HETATM   28  C   UNL     1      -6.575   8.218  68.689  1.00  0.00    -0.054 C  
HETATM   29  H   UNL     1      -5.875   7.496  66.926  1.00  0.00     0.000 HD 
BRANCH  28  30
HETATM   30  C   UNL     1      -7.564   9.078  69.430  1.00  0.00    -0.078 C  
BRANCH  30  31
HETATM   31  C   UNL     1      -8.951   8.693  69.720  1.00  0.00    -0.145 A  
HETATM   32  H2  UNL     1     -12.173   5.978  70.465  1.00  0.00     0.000 HD 
HETATM   33  C   UNL     1      -9.714   9.381  70.650  1.00  0.00    -0.273 A  
HETATM   34  H1  UNL     1     -11.039   5.352  69.268  1.00  0.00     0.000 HD 
HETATM   35  N   UNL     1      -9.485   7.443  69.368  1.00  0.00    -0.155 NA 
HETATM   36  N   UNL     1     -11.328   6.094  69.905  1.00  0.00    -0.421 NA 
HETATM   37  S   UNL     1     -11.096   8.472  71.086  1.00  0.00    -0.274 SA 
HETATM   38  C   UNL     1     -10.609   7.221  70.012  1.00  0.00    -0.233 A  
ENDBRANCH  30  31
BRANCH  30  39
HETATM   39  N   UNL     1      -7.362  10.327  69.689  1.00  0.00    -0.134 NA 
HETATM   40  H   UNL     1      -7.791  11.032  69.090  1.00  0.00     0.000 HD 
BRANCH  39  41
HETATM   41  O   UNL     1      -6.574  10.742  70.763  1.00  0.00    -0.331 OA 
HETATM   42  C   UNL     1      -5.332  11.394  70.581  1.00  0.00    -0.129 C  
ENDBRANCH  39  41
ENDBRANCH  30  39
ENDBRANCH  28  30
ENDBRANCH   6  26
TORSDOF 8
ENDMDL
MODEL      139
REMARK 921   NORMALIZED FREE ENERGY PREDICTED BY IDOCK:   -5.93 KCAL/MOL
REMARK 922        TOTAL FREE ENERGY PREDICTED BY IDOCK:   -9.97 KCAL/MOL
REMARK 923 INTER-LIGAND FREE ENERGY PREDICTED BY IDOCK:   -7.58 KCAL/MOL
REMARK 924 INTRA-LIGAND FREE ENERGY PREDICTED BY IDOCK:   -2.39 KCAL/MOL
REMARK 927      BINDING AFFINITY PREDICTED BY RF-SCORE:    0.00 PKD
ROOT
HETATM    1  C   UNL     1      -6.361   8.553  67.117  1.00  0.00    -0.057 C  
HETATM    2  S   UNL     1      -6.210   9.746  65.816  1.00  0.00    -0.078 SA 
HETATM    3  C   UNL     1      -6.407  11.358  66.664  1.00  0.00    -0.127 C  
HETATM    4  C   UNL     1      -6.558  11.391  68.159  1.00  0.00    -0.057 C  
HETATM    5  CA  UNL     1      -6.597  10.278  68.953  1.00  0.00    -0.052 C  
HETATM    6  CA  UNL     1      -7.390   7.369  67.370  1.00  0.00    -0.102 C  
HETATM    7  C   UNL     1      -7.205   7.832  68.849  1.00  0.00    -0.081 C  
HETATM    8  N   UNL     1      -6.654   9.007  68.445  1.00  0.00    -0.059 N  
HETATM    9  C   UNL     1      -6.587  10.450  70.449  1.00  0.00    -0.119 C  
HETATM   10  O   UNL     1      -7.654   7.445  69.901  1.00  0.00    -0.086 OA 
HETATM   11  O   UNL     1      -7.347   9.612  71.182  1.00  0.00    -0.332 OA 
HETATM   12  OXT UNL     1      -5.906  11.300  71.001  1.00  0.00    -0.347 OA 
ENDROOT
BRANCH   4  13
HETATM   13  C   UNL     1      -6.755  12.805  68.783  1.00  0.00    -0.093 C  
BRANCH  13  14
HETATM   14  S   UNL     1      -7.218  14.235  67.726  1.00  0.00    -0.187 SA 
BRANCH  14  15
HETATM   15  C   UNL     1      -8.809  14.794  68.295  1.00  0.00    -0.179 C  
HETATM   16  N   UNL     1      -9.732  13.897  68.288  1.00  0.00    -0.219 N  
HETATM   17  H   UNL     1      -9.527  12.919  68.085  1.00  0.00     0.000 HD 
HETATM   18  C   UNL     1      -8.036  17.219  68.449  1.00  0.00    -0.253 C  
HETATM   19  C   UNL     1     -11.015  14.322  68.568  1.00  0.00    -0.252 C  
HETATM   20  N   UNL     1      -8.999  16.144  68.604  1.00  0.00    -0.210 NA 
HETATM   21  C   UNL     1     -11.273  15.653  69.272  1.00  0.00    -0.320 C  
HETATM   22  O   UNL     1     -12.023  13.731  68.180  1.00  0.00    -0.362 OA 
HETATM   23  H   UNL     1     -10.469  17.564  69.161  1.00  0.00     0.000 HD 
HETATM   24  N   UNL     1     -10.282  16.570  69.031  1.00  0.00    -0.267 N  
HETATM   25  O   UNL     1     -12.273  15.895  69.929  1.00  0.00    -0.319 OA 
ENDBRANCH  14  15
ENDBRANCH  13  14
ENDBRANCH   4  13
BRANCH   6  26
HETATM   26  N   UNL     1      -8.870   7.130  67.036  1.00  0.00    -0.121 N  
HETATM   27  O   UNL     1     -11.139   7.316  66.973  1.00  0.00    -0.308 OA 
HETATM   28  C   UNL     1     -10.068   7.796  67.341  1.00  0.00    -0.222 C  
HETATM   29  H   UNL     1      -9.015   6.299  66.463  1.00  0.00     0.000 HD 
BRANCH  28  30
HETATM   30  C   UNL     1     -10.095   9.180  67.933  1.00  0.00    -0.199 C  
BRANCH  30  31
HETATM   31  C   UNL     1     -10.631   9.509  69.260  1.00  0.00    -0.220 A  
HETATM   32  H2  UNL     1     -13.202  11.490  72.048  1.00  0.00     0.000 HD 
HETATM   33  C   UNL     1     -10.846   8.531  70.218  1.00  0.00    -0.238 A  
HETATM   34  H1  UNL     1     -12.736  12.541  70.710  1.00  0.00     0.000 HD 
HETATM   35  N   UNL     1     -11.278  10.724  69.541  1.00  0.00    -0.259 NA 
HETATM   36  N   UNL     1     -12.684  11.638  71.182  1.00  0.00    -0.370 NA 
HETATM   37  S   UNL     1     -11.853   9.122  71.467  1.00  0.00    -0.383 SA 
HETATM   38  C   UNL     1     -11.941  10.644  70.673  1.00  0.00    -0.367 A  
ENDBRANCH  30  31
BRANCH  30  39
HETATM   39  N   UNL     1      -9.854  10.248  67.249  1.00  0.00    -0.176 NA 
HETATM   40  H   UNL     1      -9.077  10.848  67.525  1.00  0.00     0.000 HD 
BRANCH  39  41
HETATM   41  O   UNL     1     -10.625  10.607  66.143  1.00  0.00    -0.219 OA 
HETATM   42  C   UNL     1     -10.137  10.508  64.819  1.00  0.00    -0.336 C  
ENDBRANCH  39  41
ENDBRANCH  30  39
ENDBRANCH  28  30
ENDBRANCH   6  26
TORSDOF 8
ENDMDL
MODEL      140
REMARK 921   NORMALIZED FREE ENERGY PREDICTED BY IDOCK:   -5.93 KCAL/MOL
REMARK 922        TOTAL FREE ENERGY PREDICTED BY IDOCK:   -9.97 KCAL/MOL
REMARK 923 INTER-LIGAND FREE ENERGY PREDICTED BY IDOCK:   -8.55 KCAL/MOL
REMARK 924 INTRA-LIGAND FREE ENERGY PREDICTED BY IDOCK:   -1.41 KCAL/MOL
REMARK 927      BINDING AFFINITY PREDICTED BY RF-SCORE:    0.00 PKD
ROOT
HETATM    1  C   UNL     1     -11.227  11.231  67.067  1.00  0.00    -0.255 C  
HETATM    2  S   UNL     1     -10.258  10.964  65.608  1.00  0.00    -0.255 SA 
HETATM    3  C   UNL     1      -9.405   9.375  65.924  1.00  0.00    -0.230 C  
HETATM    4  C   UNL     1      -9.706   8.614  67.183  1.00  0.00    -0.248 C  
HETATM    5  CA  UNL     1     -10.566   9.045  68.156  1.00  0.00    -0.171 C  
HETATM    6  CA  UNL     1     -11.226  12.386  68.158  1.00  0.00    -0.265 C  
HETATM    7  C   UNL     1     -11.523  11.179  69.101  1.00  0.00    -0.298 C  
HETATM    8  N   UNL     1     -11.125  10.295  68.148  1.00  0.00    -0.278 N  
HETATM    9  C   UNL     1     -10.908   8.116  69.291  1.00  0.00    -0.050 C  
HETATM   10  O   UNL     1     -11.720  11.084  70.289  1.00  0.00    -0.309 OA 
HETATM   11  O   UNL     1     -11.044   8.651  70.521  1.00  0.00    -0.240 OA 
HETATM   12  OXT UNL     1     -11.079   6.919  69.122  1.00  0.00    -0.219 OA 
ENDROOT
BRANCH   4  13
HETATM   13  C   UNL     1      -8.905   7.291  67.378  1.00  0.00    -0.119 C  
BRANCH  13  14
HETATM   14  S   UNL     1      -7.322   7.290  68.310  1.00  0.00    -0.102 SA 
BRANCH  14  15
HETATM   15  C   UNL     1      -7.750   7.303  70.038  1.00  0.00    -0.096 C  
HETATM   16  N   UNL     1      -8.272   6.211  70.475  1.00  0.00    -0.112 N  
HETATM   17  H   UNL     1      -8.320   5.372  69.897  1.00  0.00     0.000 HD 
HETATM   18  C   UNL     1      -7.196   9.781  70.279  1.00  0.00    -0.149 C  
HETATM   19  C   UNL     1      -8.765   6.230  71.764  1.00  0.00    -0.133 C  
HETATM   20  N   UNL     1      -7.606   8.481  70.778  1.00  0.00    -0.066 NA 
HETATM   21  C   UNL     1      -8.333   7.302  72.763  1.00  0.00    -0.107 C  
HETATM   22  O   UNL     1      -9.651   5.472  72.160  1.00  0.00    -0.149 OA 
HETATM   23  H   UNL     1      -7.979   9.346  72.675  1.00  0.00     0.000 HD 
HETATM   24  N   UNL     1      -7.977   8.474  72.146  1.00  0.00    -0.119 N  
HETATM   25  O   UNL     1      -8.354   7.155  73.975  1.00  0.00    -0.127 OA 
ENDBRANCH  14  15
ENDBRANCH  13  14
ENDBRANCH   4  13
BRANCH   6  26
HETATM   26  N   UNL     1     -10.157  13.315  68.750  1.00  0.00    -0.415 N  
HETATM   27  O   UNL     1      -8.724  15.058  69.056  1.00  0.00    -0.193 OA 
HETATM   28  C   UNL     1      -9.653  14.580  68.408  1.00  0.00    -0.213 C  
HETATM   29  H   UNL     1      -9.712  12.924  69.580  1.00  0.00     0.000 HD 
BRANCH  28  30
HETATM   30  C   UNL     1     -10.327  15.472  67.400  1.00  0.00    -0.266 C  
BRANCH  30  31
HETATM   31  C   UNL     1     -10.168  16.931  67.339  1.00  0.00    -0.298 A  
HETATM   32  H2  UNL     1     -10.702  20.849  65.706  1.00  0.00     0.000 HD 
HETATM   33  C   UNL     1     -10.265  17.719  68.475  1.00  0.00    -0.382 A  
HETATM   34  H1  UNL     1     -10.517  19.625  64.449  1.00  0.00     0.000 HD 
HETATM   35  N   UNL     1     -10.256  17.658  66.140  1.00  0.00    -0.458 NA 
HETATM   36  N   UNL     1     -10.553  19.877  65.437  1.00  0.00    -0.321 NA 
HETATM   37  S   UNL     1     -10.467  19.363  68.052  1.00  0.00    -0.349 SA 
HETATM   38  C   UNL     1     -10.406  18.940  66.386  1.00  0.00    -0.443 A  
ENDBRANCH  30  31
BRANCH  30  39
HETATM   39  N   UNL     1     -11.285  15.074  66.630  1.00  0.00    -0.332 NA 
HETATM   40  H   UNL     1     -12.248  15.162  66.954  1.00  0.00     0.000 HD 
BRANCH  39  41
HETATM   41  O   UNL     1     -11.042  14.527  65.370  1.00  0.00    -0.315 OA 
HETATM   42  C   UNL     1     -12.088  14.180  64.484  1.00  0.00    -0.468 C  
ENDBRANCH  39  41
ENDBRANCH  30  39
ENDBRANCH  28  30
ENDBRANCH   6  26
TORSDOF 8
ENDMDL
MODEL      141
REMARK 921   NORMALIZED FREE ENERGY PREDICTED BY IDOCK:   -5.92 KCAL/MOL
REMARK 922        TOTAL FREE ENERGY PREDICTED BY IDOCK:   -9.95 KCAL/MOL
REMARK 923 INTER-LIGAND FREE ENERGY PREDICTED BY IDOCK:   -7.80 KCAL/MOL
REMARK 924 INTRA-LIGAND FREE ENERGY PREDICTED BY IDOCK:   -2.15 KCAL/MOL
REMARK 927      BINDING AFFINITY PREDICTED BY RF-SCORE:    0.00 PKD
ROOT
HETATM    1  C   UNL     1      -6.628   8.267  66.993  1.00  0.00    -0.058 C  
HETATM    2  S   UNL     1      -6.617   9.390  65.623  1.00  0.00    -0.072 SA 
HETATM    3  C   UNL     1      -6.940  11.025  66.384  1.00  0.00    -0.122 C  
HETATM    4  C   UNL     1      -7.058  11.132  67.878  1.00  0.00    -0.081 C  
HETATM    5  CA  UNL     1      -6.976  10.069  68.734  1.00  0.00    -0.062 C  
HETATM    6  CA  UNL     1      -7.539   7.013  67.342  1.00  0.00    -0.109 C  
HETATM    7  C   UNL     1      -7.361   7.577  68.786  1.00  0.00    -0.095 C  
HETATM    8  N   UNL     1      -6.930   8.771  68.301  1.00  0.00    -0.072 N  
HETATM    9  C   UNL     1      -6.947  10.329  70.218  1.00  0.00    -0.129 C  
HETATM   10  O   UNL     1      -7.748   7.214  69.871  1.00  0.00    -0.102 OA 
HETATM   11  O   UNL     1      -7.609   9.471  71.019  1.00  0.00    -0.311 OA 
HETATM   12  OXT UNL     1      -6.333  11.268  70.701  1.00  0.00    -0.329 OA 
ENDROOT
BRANCH   4  13
HETATM   13  C   UNL     1      -7.368  12.558  68.427  1.00  0.00    -0.114 C  
BRANCH  13  14
HETATM   14  S   UNL     1      -6.519  14.030  67.729  1.00  0.00    -0.146 SA 
BRANCH  14  15
HETATM   15  C   UNL     1      -7.744  15.318  67.619  1.00  0.00    -0.165 C  
HETATM   16  N   UNL     1      -8.615  15.158  66.685  1.00  0.00    -0.363 N  
HETATM   17  H   UNL     1      -8.662  14.299  66.138  1.00  0.00     0.000 HD 
HETATM   18  C   UNL     1      -6.571  16.747  69.376  1.00  0.00    -0.228 C  
HETATM   19  C   UNL     1      -9.484  16.206  66.461  1.00  0.00    -0.264 C  
HETATM   20  N   UNL     1      -7.640  16.443  68.442  1.00  0.00    -0.170 NA 
HETATM   21  C   UNL     1      -9.708  17.291  67.513  1.00  0.00    -0.264 C  
HETATM   22  O   UNL     1     -10.042  16.401  65.381  1.00  0.00    -0.543 OA 
HETATM   23  H   UNL     1      -8.498  18.340  68.833  1.00  0.00     0.000 HD 
HETATM   24  N   UNL     1      -8.613  17.467  68.319  1.00  0.00    -0.259 N  
HETATM   25  O   UNL     1     -10.723  17.964  67.594  1.00  0.00    -0.399 OA 
ENDBRANCH  14  15
ENDBRANCH  13  14
ENDBRANCH   4  13
BRANCH   6  26
HETATM   26  N   UNL     1      -8.998   6.623  67.066  1.00  0.00    -0.116 N  
HETATM   27  O   UNL     1     -11.275   6.583  67.082  1.00  0.00    -0.388 OA 
HETATM   28  C   UNL     1     -10.245   7.173  67.404  1.00  0.00    -0.226 C  
HETATM   29  H   UNL     1      -9.080   5.771  66.511  1.00  0.00     0.000 HD 
BRANCH  28  30
HETATM   30  C   UNL     1     -10.388   8.557  67.977  1.00  0.00    -0.217 C  
BRANCH  30  31
HETATM   31  C   UNL     1     -10.372   9.794  67.185  1.00  0.00    -0.248 A  
HETATM   32  H2  UNL     1     -10.633  12.150  63.623  1.00  0.00     0.000 HD 
HETATM   33  C   UNL     1     -10.987  10.951  67.634  1.00  0.00    -0.293 A  
HETATM   34  H1  UNL     1      -9.844  10.598  63.337  1.00  0.00     0.000 HD 
HETATM   35  N   UNL     1     -10.060   9.818  65.815  1.00  0.00    -0.278 NA 
HETATM   36  N   UNL     1     -10.290  11.256  63.976  1.00  0.00    -0.339 NA 
HETATM   37  S   UNL     1     -11.179  12.068  66.354  1.00  0.00    -0.347 SA 
HETATM   38  C   UNL     1     -10.428  10.959  65.277  1.00  0.00    -0.230 A  
ENDBRANCH  30  31
BRANCH  30  39
HETATM   39  N   UNL     1     -10.316   8.811  69.241  1.00  0.00    -0.212 NA 
HETATM   40  H   UNL     1      -9.610   9.468  69.574  1.00  0.00     0.000 HD 
BRANCH  39  41
HETATM   41  O   UNL     1     -11.174   8.215  70.166  1.00  0.00    -0.232 OA 
HETATM   42  C   UNL     1     -10.698   7.410  71.227  1.00  0.00    -0.221 C  
ENDBRANCH  39  41
ENDBRANCH  30  39
ENDBRANCH  28  30
ENDBRANCH   6  26
TORSDOF 8
ENDMDL
MODEL      142
REMARK 921   NORMALIZED FREE ENERGY PREDICTED BY IDOCK:   -5.92 KCAL/MOL
REMARK 922        TOTAL FREE ENERGY PREDICTED BY IDOCK:   -9.95 KCAL/MOL
REMARK 923 INTER-LIGAND FREE ENERGY PREDICTED BY IDOCK:   -8.53 KCAL/MOL
REMARK 924 INTRA-LIGAND FREE ENERGY PREDICTED BY IDOCK:   -1.41 KCAL/MOL
REMARK 927      BINDING AFFINITY PREDICTED BY RF-SCORE:    0.00 PKD
ROOT
HETATM    1  C   UNL     1      -8.568  11.682  67.825  1.00  0.00    -0.144 C  
HETATM    2  S   UNL     1      -8.178  10.511  69.097  1.00  0.00    -0.134 SA 
HETATM    3  C   UNL     1      -8.474   8.884  68.311  1.00  0.00    -0.130 C  
HETATM    4  C   UNL     1      -8.867   8.825  66.862  1.00  0.00    -0.142 C  
HETATM    5  CA  UNL     1      -9.060   9.926  66.073  1.00  0.00    -0.158 C  
HETATM    6  CA  UNL     1      -9.651  12.840  67.731  1.00  0.00    -0.204 C  
HETATM    7  C   UNL     1      -9.699  12.359  66.248  1.00  0.00    -0.246 C  
HETATM    8  N   UNL     1      -9.063  11.202  66.569  1.00  0.00    -0.176 N  
HETATM    9  C   UNL     1      -9.292   9.732  64.597  1.00  0.00    -0.256 C  
HETATM   10  O   UNL     1     -10.323  12.721  65.279  1.00  0.00    -0.288 OA 
HETATM   11  O   UNL     1     -10.180  10.542  63.989  1.00  0.00    -0.319 OA 
HETATM   12  OXT UNL     1      -8.691   8.888  63.950  1.00  0.00    -0.151 OA 
ENDROOT
BRANCH   4  13
HETATM   13  C   UNL     1      -9.130   7.398  66.294  1.00  0.00    -0.156 C  
BRANCH  13  14
HETATM   14  S   UNL     1     -10.653   6.478  66.755  1.00  0.00    -0.219 SA 
BRANCH  14  15
HETATM   15  C   UNL     1     -10.175   5.296  67.997  1.00  0.00    -0.143 C  
HETATM   16  N   UNL     1      -9.684   4.198  67.539  1.00  0.00    -0.166 N  
HETATM   17  H   UNL     1      -9.477   4.077  66.548  1.00  0.00     0.000 HD 
HETATM   18  C   UNL     1     -11.165   6.699  69.883  1.00  0.00    -0.364 C  
HETATM   19  C   UNL     1      -9.449   3.193  68.455  1.00  0.00    -0.147 C  
HETATM   20  N   UNL     1     -10.447   5.559  69.343  1.00  0.00    -0.284 NA 
HETATM   21  C   UNL     1      -9.348   3.489  69.950  1.00  0.00    -0.177 C  
HETATM   22  O   UNL     1      -9.416   1.999  68.154  1.00  0.00    -0.198 OA 
HETATM   23  H   UNL     1     -10.361   4.715  71.284  1.00  0.00     0.000 HD 
HETATM   24  N   UNL     1     -10.080   4.591  70.312  1.00  0.00    -0.212 N  
HETATM   25  O   UNL     1      -8.734   2.795  70.744  1.00  0.00    -0.067 OA 
ENDBRANCH  14  15
ENDBRANCH  13  14
ENDBRANCH   4  13
BRANCH   6  26
HETATM   26  N   UNL     1     -11.061  13.053  68.300  1.00  0.00    -0.249 N  
HETATM   27  O   UNL     1     -12.811  13.842  69.526  1.00  0.00     0.080 OA 
HETATM   28  C   UNL     1     -11.629  13.962  69.208  1.00  0.00    -0.309 C  
HETATM   29  H   UNL     1     -11.738  12.383  67.937  1.00  0.00     0.000 HD 
BRANCH  28  30
HETATM   30  C   UNL     1     -10.909  15.201  69.668  1.00  0.00    -0.286 C  
BRANCH  30  31
HETATM   31  C   UNL     1     -10.407  16.253  68.775  1.00  0.00    -0.261 A  
HETATM   32  H2  UNL     1     -10.164  18.502  65.143  1.00  0.00     0.000 HD 
HETATM   33  C   UNL     1     -10.169  17.539  69.233  1.00  0.00    -0.180 A  
HETATM   34  H1  UNL     1     -10.440  16.785  64.845  1.00  0.00     0.000 HD 
HETATM   35  N   UNL     1     -10.461  16.156  67.375  1.00  0.00    -0.305 NA 
HETATM   36  N   UNL     1     -10.292  17.554  65.498  1.00  0.00    -0.636 NA 
HETATM   37  S   UNL     1     -10.013  18.627  67.923  1.00  0.00    -0.369 SA 
HETATM   38  C   UNL     1     -10.262  17.331  66.821  1.00  0.00    -0.318 A  
ENDBRANCH  30  31
BRANCH  30  39
HETATM   39  N   UNL     1     -10.463  15.356  70.870  1.00  0.00    -0.350 NA 
HETATM   40  H   UNL     1      -9.499  15.661  71.005  1.00  0.00     0.000 HD 
BRANCH  39  41
HETATM   41  O   UNL     1     -11.260  15.121  71.991  1.00  0.00    -0.389 OA 
HETATM   42  C   UNL     1     -12.342  15.963  72.338  1.00  0.00    -0.482 C  
ENDBRANCH  39  41
ENDBRANCH  30  39
ENDBRANCH  28  30
ENDBRANCH   6  26
TORSDOF 8
ENDMDL
MODEL      143
REMARK 921   NORMALIZED FREE ENERGY PREDICTED BY IDOCK:   -5.91 KCAL/MOL
REMARK 922        TOTAL FREE ENERGY PREDICTED BY IDOCK:   -9.94 KCAL/MOL
REMARK 923 INTER-LIGAND FREE ENERGY PREDICTED BY IDOCK:   -8.49 KCAL/MOL
REMARK 924 INTRA-LIGAND FREE ENERGY PREDICTED BY IDOCK:   -1.44 KCAL/MOL
REMARK 927      BINDING AFFINITY PREDICTED BY RF-SCORE:    0.00 PKD
ROOT
HETATM    1  C   UNL     1      -8.497   9.705  68.489  1.00  0.00    -0.118 C  
HETATM    2  S   UNL     1     -10.061  10.246  67.856  1.00  0.00    -0.179 SA 
HETATM    3  C   UNL     1      -9.939  12.074  67.870  1.00  0.00    -0.197 C  
HETATM    4  C   UNL     1      -8.649  12.724  68.284  1.00  0.00    -0.166 C  
HETATM    5  CA  UNL     1      -7.541  12.038  68.697  1.00  0.00    -0.112 C  
HETATM    6  CA  UNL     1      -8.096   8.854  69.769  1.00  0.00    -0.109 C  
HETATM    7  C   UNL     1      -6.893   9.848  69.768  1.00  0.00    -0.084 C  
HETATM    8  N   UNL     1      -7.547  10.687  68.922  1.00  0.00    -0.104 N  
HETATM    9  C   UNL     1      -6.260  12.795  68.929  1.00  0.00    -0.085 C  
HETATM   10  O   UNL     1      -5.921   9.973  70.473  1.00  0.00    -0.071 OA 
HETATM   11  O   UNL     1      -5.487  12.420  69.967  1.00  0.00    -0.088 OA 
HETATM   12  OXT UNL     1      -5.904  13.709  68.201  1.00  0.00    -0.098 OA 
ENDROOT
BRANCH   4  13
HETATM   13  C   UNL     1      -8.655  14.282  68.296  1.00  0.00    -0.176 C  
BRANCH  13  14
HETATM   14  S   UNL     1     -10.167  15.205  68.786  1.00  0.00    -0.242 SA 
BRANCH  14  15
HETATM   15  C   UNL     1     -10.136  16.744  67.892  1.00  0.00    -0.284 C  
HETATM   16  N   UNL     1      -9.968  17.791  68.621  1.00  0.00    -0.362 N  
HETATM   17  H   UNL     1      -9.751  17.721  69.615  1.00  0.00     0.000 HD 
HETATM   18  C   UNL     1     -10.768  15.617  65.693  1.00  0.00    -0.364 C  
HETATM   19  C   UNL     1     -10.096  19.013  67.994  1.00  0.00    -0.385 C  
HETATM   20  N   UNL     1     -10.392  16.751  66.517  1.00  0.00    -0.310 NA 
HETATM   21  C   UNL     1      -9.997  19.139  66.474  1.00  0.00    -0.383 C  
HETATM   22  O   UNL     1     -10.404  20.047  68.586  1.00  0.00    -0.437 OA 
HETATM   23  H   UNL     1     -10.673  18.032  64.854  1.00  0.00     0.000 HD 
HETATM   24  N   UNL     1     -10.386  17.992  65.831  1.00  0.00    -0.337 N  
HETATM   25  O   UNL     1      -9.663  20.159  65.894  1.00  0.00    -0.400 OA 
ENDBRANCH  14  15
ENDBRANCH  13  14
ENDBRANCH   4  13
BRANCH   6  26
HETATM   26  N   UNL     1      -8.679   8.676  71.178  1.00  0.00    -0.178 N  
HETATM   27  O   UNL     1     -10.126   8.313  72.899  1.00  0.00    -0.294 OA 
HETATM   28  C   UNL     1      -9.936   8.307  71.684  1.00  0.00    -0.212 C  
HETATM   29  H   UNL     1      -8.000   8.871  71.913  1.00  0.00     0.000 HD 
BRANCH  28  30
HETATM   30  C   UNL     1     -11.013   7.712  70.817  1.00  0.00    -0.252 C  
BRANCH  30  31
HETATM   31  C   UNL     1     -10.857   6.495  70.010  1.00  0.00    -0.287 A  
HETATM   32  H2  UNL     1      -9.991   4.238  66.480  1.00  0.00     0.000 HD 
HETATM   33  C   UNL     1     -10.249   5.360  70.521  1.00  0.00    -0.256 A  
HETATM   34  H1  UNL     1     -10.814   5.755  66.113  1.00  0.00     0.000 HD 
HETATM   35  N   UNL     1     -10.978   6.487  68.610  1.00  0.00    -0.294 NA 
HETATM   36  N   UNL     1     -10.426   5.104  66.797  1.00  0.00    -0.263 NA 
HETATM   37  S   UNL     1      -9.827   4.283  69.261  1.00  0.00    -0.019 SA 
HETATM   38  C   UNL     1     -10.481   5.379  68.109  1.00  0.00    -0.120 A  
ENDBRANCH  30  31
BRANCH  30  39
HETATM   39  N   UNL     1     -12.106   8.333  70.520  1.00  0.00    -0.479 NA 
HETATM   40  H   UNL     1     -12.888   7.801  70.137  1.00  0.00     0.000 HD 
BRANCH  39  41
HETATM   41  O   UNL     1     -12.250   9.708  70.706  1.00  0.00    -0.284 OA 
HETATM   42  C   UNL     1     -13.055  10.250  71.734  1.00  0.00    -0.465 C  
ENDBRANCH  39  41
ENDBRANCH  30  39
ENDBRANCH  28  30
ENDBRANCH   6  26
TORSDOF 8
ENDMDL
MODEL      144
REMARK 921   NORMALIZED FREE ENERGY PREDICTED BY IDOCK:   -5.90 KCAL/MOL
REMARK 922        TOTAL FREE ENERGY PREDICTED BY IDOCK:   -9.92 KCAL/MOL
REMARK 923 INTER-LIGAND FREE ENERGY PREDICTED BY IDOCK:   -8.57 KCAL/MOL
REMARK 924 INTRA-LIGAND FREE ENERGY PREDICTED BY IDOCK:   -1.35 KCAL/MOL
REMARK 927      BINDING AFFINITY PREDICTED BY RF-SCORE:    0.00 PKD
ROOT
HETATM    1  C   UNL     1     -10.448  10.979  67.038  1.00  0.00    -0.240 C  
HETATM    2  S   UNL     1      -9.655  11.290  68.592  1.00  0.00    -0.162 SA 
HETATM    3  C   UNL     1      -9.144  13.046  68.487  1.00  0.00    -0.053 C  
HETATM    4  C   UNL     1      -9.521  13.853  67.277  1.00  0.00    -0.239 C  
HETATM    5  CA  UNL     1     -10.204  13.353  66.202  1.00  0.00    -0.301 C  
HETATM    6  CA  UNL     1     -10.128   9.967  65.856  1.00  0.00    -0.245 C  
HETATM    7  C   UNL     1     -10.616  11.176  64.998  1.00  0.00    -0.273 C  
HETATM    8  N   UNL     1     -10.480  12.021  66.054  1.00  0.00    -0.241 N  
HETATM    9  C   UNL     1     -10.663  14.302  65.126  1.00  0.00    -0.394 C  
HETATM   10  O   UNL     1     -10.752  11.348  63.811  1.00  0.00    -0.359 OA 
HETATM   11  O   UNL     1     -10.602  13.880  63.848  1.00  0.00     0.060 OA 
HETATM   12  OXT UNL     1     -11.098  15.414  65.382  1.00  0.00    -0.343 OA 
ENDROOT
BRANCH   4  13
HETATM   13  C   UNL     1      -9.011  15.326  67.265  1.00  0.00    -0.195 C  
BRANCH  13  14
HETATM   14  S   UNL     1      -9.400  16.457  68.660  1.00  0.00    -0.242 SA 
BRANCH  14  15
HETATM   15  C   UNL     1      -8.685  18.035  68.248  1.00  0.00    -0.283 C  
HETATM   16  N   UNL     1      -7.625  18.339  68.912  1.00  0.00    -0.263 N  
HETATM   17  H   UNL     1      -7.172  17.669  69.533  1.00  0.00     0.000 HD 
HETATM   18  C   UNL     1     -10.631  18.651  66.718  1.00  0.00    -0.371 C  
HETATM   19  C   UNL     1      -7.130  19.616  68.741  1.00  0.00    -0.346 C  
HETATM   20  N   UNL     1      -9.341  18.877  67.345  1.00  0.00    -0.287 NA 
HETATM   21  C   UNL     1      -7.523  20.465  67.534  1.00  0.00    -0.319 C  
HETATM   22  O   UNL     1      -6.442  20.192  69.585  1.00  0.00    -0.336 OA 
HETATM   23  H   UNL     1      -9.278  20.810  66.480  1.00  0.00     0.000 HD 
HETATM   24  N   UNL     1      -8.765  20.139  67.052  1.00  0.00    -0.332 N  
HETATM   25  O   UNL     1      -6.838  21.367  67.081  1.00  0.00    -0.552 OA 
ENDBRANCH  14  15
ENDBRANCH  13  14
ENDBRANCH   4  13
BRANCH   6  26
HETATM   26  N   UNL     1      -8.849   9.346  65.278  1.00  0.00    -0.178 N  
HETATM   27  O   UNL     1      -7.165   7.886  64.808  1.00  0.00    -0.069 OA 
HETATM   28  C   UNL     1      -8.260   8.072  65.336  1.00  0.00    -0.151 C  
HETATM   29  H   UNL     1      -8.303  10.008  64.727  1.00  0.00     0.000 HD 
BRANCH  28  30
HETATM   30  C   UNL     1      -8.996   6.864  65.850  1.00  0.00    -0.064 C  
BRANCH  30  31
HETATM   31  C   UNL     1      -9.466   6.700  67.231  1.00  0.00    -0.133 A  
HETATM   32  H2  UNL     1     -10.334   7.942  71.233  1.00  0.00     0.000 HD 
HETATM   33  C   UNL     1     -10.616   5.984  67.525  1.00  0.00    -0.273 A  
HETATM   34  H1  UNL     1      -8.867   8.696  70.606  1.00  0.00     0.000 HD 
HETATM   35  N   UNL     1      -9.020   7.507  68.290  1.00  0.00    -0.131 NA 
HETATM   36  N   UNL     1      -9.657   8.062  70.479  1.00  0.00    -0.170 NA 
HETATM   37  S   UNL     1     -11.142   6.317  69.118  1.00  0.00    -0.354 SA 
HETATM   38  C   UNL     1      -9.812   7.385  69.332  1.00  0.00    -0.168 A  
ENDBRANCH  30  31
BRANCH  30  39
HETATM   39  N   UNL     1      -9.092   5.759  65.189  1.00  0.00    -0.363 NA 
HETATM   40  H   UNL     1      -9.908   5.606  64.597  1.00  0.00     0.000 HD 
BRANCH  39  41
HETATM   41  O   UNL     1      -8.114   4.767  65.260  1.00  0.00    -0.101 OA 
HETATM   42  C   UNL     1      -8.437   3.396  65.388  1.00  0.00    -0.104 C  
ENDBRANCH  39  41
ENDBRANCH  30  39
ENDBRANCH  28  30
ENDBRANCH   6  26
TORSDOF 8
ENDMDL
MODEL      145
REMARK 921   NORMALIZED FREE ENERGY PREDICTED BY IDOCK:   -5.88 KCAL/MOL
REMARK 922        TOTAL FREE ENERGY PREDICTED BY IDOCK:   -9.89 KCAL/MOL
REMARK 923 INTER-LIGAND FREE ENERGY PREDICTED BY IDOCK:   -8.22 KCAL/MOL
REMARK 924 INTRA-LIGAND FREE ENERGY PREDICTED BY IDOCK:   -1.67 KCAL/MOL
REMARK 927      BINDING AFFINITY PREDICTED BY RF-SCORE:    0.00 PKD
ROOT
HETATM    1  C   UNL     1      -9.781  10.886  67.949  1.00  0.00    -0.165 C  
HETATM    2  S   UNL     1      -8.107  10.782  68.520  1.00  0.00    -0.141 SA 
HETATM    3  C   UNL     1      -7.584  12.530  68.688  1.00  0.00    -0.080 C  
HETATM    4  C   UNL     1      -8.579  13.625  68.428  1.00  0.00    -0.151 C  
HETATM    5  CA  UNL     1      -9.870  13.413  68.030  1.00  0.00    -0.229 C  
HETATM    6  CA  UNL     1     -10.495  10.375  66.625  1.00  0.00    -0.215 C  
HETATM    7  C   UNL     1     -11.275  11.714  66.804  1.00  0.00    -0.308 C  
HETATM    8  N   UNL     1     -10.343  12.177  67.679  1.00  0.00    -0.201 N  
HETATM    9  C   UNL     1     -10.813  14.585  67.961  1.00  0.00    -0.244 C  
HETATM   10  O   UNL     1     -12.164  12.245  66.184  1.00  0.00    -0.647 OA 
HETATM   11  O   UNL     1     -11.702  14.618  66.948  1.00  0.00    -0.375 OA 
HETATM   12  OXT UNL     1     -10.803  15.477  68.795  1.00  0.00    -0.235 OA 
ENDROOT
BRANCH   4  13
HETATM   13  C   UNL     1      -8.030  15.078  68.564  1.00  0.00    -0.144 C  
BRANCH  13  14
HETATM   14  S   UNL     1      -7.295  15.935  67.114  1.00  0.00    -0.214 SA 
BRANCH  14  15
HETATM   15  C   UNL     1      -8.069  17.536  67.024  1.00  0.00    -0.217 C  
HETATM   16  N   UNL     1      -9.217  17.615  67.600  1.00  0.00    -0.243 N  
HETATM   17  H   UNL     1      -9.588  16.849  68.162  1.00  0.00     0.000 HD 
HETATM   18  C   UNL     1      -6.273  18.449  65.460  1.00  0.00    -0.262 C  
HETATM   19  C   UNL     1      -9.923  18.786  67.419  1.00  0.00    -0.335 C  
HETATM   20  N   UNL     1      -7.470  18.553  66.274  1.00  0.00    -0.248 NA 
HETATM   21  C   UNL     1      -9.231  20.067  66.957  1.00  0.00    -0.376 C  
HETATM   22  O   UNL     1     -11.150  18.856  67.505  1.00  0.00    -0.356 OA 
HETATM   23  H   UNL     1      -7.755  20.531  65.573  1.00  0.00     0.000 HD 
HETATM   24  N   UNL     1      -8.119  19.812  66.197  1.00  0.00    -0.341 N  
HETATM   25  O   UNL     1      -9.648  21.191  67.189  1.00  0.00    -0.282 OA 
ENDBRANCH  14  15
ENDBRANCH  13  14
ENDBRANCH   4  13
BRANCH   6  26
HETATM   26  N   UNL     1     -10.057  10.168  65.169  1.00  0.00    -0.312 N  
HETATM   27  O   UNL     1      -8.877   9.538  63.325  1.00  0.00    -0.225 OA 
HETATM   28  C   UNL     1      -9.014   9.464  64.545  1.00  0.00    -0.181 C  
HETATM   29  H   UNL     1     -10.659  10.653  64.503  1.00  0.00     0.000 HD 
BRANCH  28  30
HETATM   30  C   UNL     1      -8.165   8.460  65.278  1.00  0.00    -0.151 C  
BRANCH  30  31
HETATM   31  C   UNL     1      -8.688   7.281  65.980  1.00  0.00    -0.151 A  
HETATM   32  H2  UNL     1     -11.348   5.128  68.548  1.00  0.00     0.000 HD 
HETATM   33  C   UNL     1      -8.772   6.046  65.358  1.00  0.00    -0.083 A  
HETATM   34  H1  UNL     1     -11.035   6.762  69.135  1.00  0.00     0.000 HD 
HETATM   35  N   UNL     1      -9.442   7.368  67.161  1.00  0.00    -0.142 NA 
HETATM   36  N   UNL     1     -10.877   6.027  68.445  1.00  0.00    -0.285 NA 
HETATM   37  S   UNL     1      -9.791   4.994  66.241  1.00  0.00    -0.222 SA 
HETATM   38  C   UNL     1     -10.056   6.232  67.404  1.00  0.00    -0.156 A  
ENDBRANCH  30  31
BRANCH  30  39
HETATM   39  N   UNL     1      -6.919   8.654  65.554  1.00  0.00    -0.077 NA 
HETATM   40  H   UNL     1      -6.291   7.851  65.595  1.00  0.00     0.000 HD 
BRANCH  39  41
HETATM   41  O   UNL     1      -6.404   9.927  65.797  1.00  0.00    -0.073 OA 
HETATM   42  C   UNL     1      -5.386  10.496  64.996  1.00  0.00    -0.148 C  
ENDBRANCH  39  41
ENDBRANCH  30  39
ENDBRANCH  28  30
ENDBRANCH   6  26
TORSDOF 8
ENDMDL
MODEL      146
REMARK 921   NORMALIZED FREE ENERGY PREDICTED BY IDOCK:   -5.85 KCAL/MOL
REMARK 922        TOTAL FREE ENERGY PREDICTED BY IDOCK:   -9.85 KCAL/MOL
REMARK 923 INTER-LIGAND FREE ENERGY PREDICTED BY IDOCK:   -8.42 KCAL/MOL
REMARK 924 INTRA-LIGAND FREE ENERGY PREDICTED BY IDOCK:   -1.44 KCAL/MOL
REMARK 927      BINDING AFFINITY PREDICTED BY RF-SCORE:    0.00 PKD
ROOT
HETATM    1  C   UNL     1      -8.638   9.683  64.927  1.00  0.00    -0.170 C  
HETATM    2  S   UNL     1      -9.529  10.199  63.485  1.00  0.00    -0.178 SA 
HETATM    3  C   UNL     1     -10.125  11.878  63.907  1.00  0.00    -0.370 C  
HETATM    4  C   UNL     1      -9.727  12.494  65.218  1.00  0.00    -0.074 C  
HETATM    5  CA  UNL     1      -8.963  11.866  66.163  1.00  0.00    -0.116 C  
HETATM    6  CA  UNL     1      -8.841   8.471  65.934  1.00  0.00    -0.182 C  
HETATM    7  C   UNL     1      -8.372   9.548  66.962  1.00  0.00    -0.124 C  
HETATM    8  N   UNL     1      -8.609  10.547  66.071  1.00  0.00    -0.154 N  
HETATM    9  C   UNL     1      -8.498  12.649  67.363  1.00  0.00    -0.186 C  
HETATM   10  O   UNL     1      -8.182   9.529  68.154  1.00  0.00    -0.112 OA 
HETATM   11  O   UNL     1      -8.468  12.017  68.552  1.00  0.00    -0.155 OA 
HETATM   12  OXT UNL     1      -8.136  13.813  67.279  1.00  0.00    -0.175 OA 
ENDROOT
BRANCH   4  13
HETATM   13  C   UNL     1     -10.312  13.911  65.501  1.00  0.00    -0.333 C  
BRANCH  13  14
HETATM   14  S   UNL     1     -12.057  14.108  66.044  1.00  0.00    -0.429 SA 
BRANCH  14  15
HETATM   15  C   UNL     1     -12.025  14.237  67.819  1.00  0.00    -0.349 C  
HETATM   16  N   UNL     1     -11.926  15.437  68.273  1.00  0.00    -0.501 N  
HETATM   17  H   UNL     1     -11.985  16.248  67.658  1.00  0.00     0.000 HD 
HETATM   18  C   UNL     1     -11.922  11.706  68.121  1.00  0.00    -0.144 C  
HETATM   19  C   UNL     1     -11.738  15.574  69.633  1.00  0.00    -0.357 C  
HETATM   20  N   UNL     1     -11.999  13.076  68.597  1.00  0.00    -0.308 NA 
HETATM   21  C   UNL     1     -12.067  14.436  70.598  1.00  0.00    -0.334 C  
HETATM   22  O   UNL     1     -11.199  16.555  70.145  1.00  0.00    -0.323 OA 
HETATM   23  H   UNL     1     -11.824  12.375  70.588  1.00  0.00     0.000 HD 
HETATM   24  N   UNL     1     -11.948  13.204  70.008  1.00  0.00    -0.339 N  
HETATM   25  O   UNL     1     -12.349  14.598  71.774  1.00  0.00    -0.328 OA 
ENDBRANCH  14  15
ENDBRANCH  13  14
ENDBRANCH   4  13
BRANCH   6  26
HETATM   26  N   UNL     1     -10.053   7.686  66.455  1.00  0.00    -0.476 N  
HETATM   27  O   UNL     1     -11.376   6.300  67.686  1.00  0.00    -0.246 OA 
HETATM   28  C   UNL     1     -10.286   6.855  67.563  1.00  0.00    -0.217 C  
HETATM   29  H   UNL     1     -10.875   7.791  65.861  1.00  0.00     0.000 HD 
BRANCH  28  30
HETATM   30  C   UNL     1      -9.327   6.764  68.719  1.00  0.00    -0.132 C  
BRANCH  30  31
HETATM   31  C   UNL     1      -9.526   7.412  70.022  1.00  0.00    -0.161 A  
HETATM   32  H2  UNL     1     -11.582   8.292  73.670  1.00  0.00     0.000 HD 
HETATM   33  C   UNL     1      -8.486   7.559  70.925  1.00  0.00    -0.125 A  
HETATM   34  H1  UNL     1     -12.692   8.083  72.315  1.00  0.00     0.000 HD 
HETATM   35  N   UNL     1     -10.796   7.611  70.589  1.00  0.00    -0.233 NA 
HETATM   36  N   UNL     1     -11.740   8.107  72.679  1.00  0.00    -0.398 NA 
HETATM   37  S   UNL     1      -9.086   7.942  72.480  1.00  0.00    -0.210 SA 
HETATM   38  C   UNL     1     -10.692   7.900  71.867  1.00  0.00    -0.237 A  
ENDBRANCH  30  31
BRANCH  30  39
HETATM   39  N   UNL     1      -8.129   6.293  68.611  1.00  0.00    -0.108 NA 
HETATM   40  H   UNL     1      -7.337   6.928  68.708  1.00  0.00     0.000 HD 
BRANCH  39  41
HETATM   41  O   UNL     1      -7.886   4.941  68.364  1.00  0.00    -0.081 OA 
HETATM   42  C   UNL     1      -7.675   4.010  69.408  1.00  0.00    -0.053 C  
ENDBRANCH  39  41
ENDBRANCH  30  39
ENDBRANCH  28  30
ENDBRANCH   6  26
TORSDOF 8
ENDMDL
MODEL      147
REMARK 921   NORMALIZED FREE ENERGY PREDICTED BY IDOCK:   -5.84 KCAL/MOL
REMARK 922        TOTAL FREE ENERGY PREDICTED BY IDOCK:   -9.83 KCAL/MOL
REMARK 923 INTER-LIGAND FREE ENERGY PREDICTED BY IDOCK:   -8.42 KCAL/MOL
REMARK 924 INTRA-LIGAND FREE ENERGY PREDICTED BY IDOCK:   -1.40 KCAL/MOL
REMARK 927      BINDING AFFINITY PREDICTED BY RF-SCORE:    0.00 PKD
ROOT
HETATM    1  C   UNL     1     -10.930  13.727  68.006  1.00  0.00    -0.250 C  
HETATM    2  S   UNL     1      -9.978  12.794  66.838  1.00  0.00    -0.236 SA 
HETATM    3  C   UNL     1     -10.051  11.078  67.475  1.00  0.00    -0.180 C  
HETATM    4  C   UNL     1     -10.882  10.777  68.689  1.00  0.00    -0.260 C  
HETATM    5  CA  UNL     1     -11.580  11.717  69.396  1.00  0.00    -0.322 C  
HETATM    6  CA  UNL     1     -10.559  14.937  68.967  1.00  0.00    -0.245 C  
HETATM    7  C   UNL     1     -11.546  14.185  69.914  1.00  0.00    -0.264 C  
HETATM    8  N   UNL     1     -11.466  13.060  69.155  1.00  0.00    -0.284 N  
HETATM    9  C   UNL     1     -12.505  11.264  70.495  1.00  0.00    -0.310 C  
HETATM   10  O   UNL     1     -11.958  14.407  71.027  1.00  0.00    -0.325 OA 
HETATM   11  O   UNL     1     -12.572  12.017  71.611  1.00  0.00    -0.237 OA 
HETATM   12  OXT UNL     1     -13.195  10.262  70.392  1.00  0.00    -0.226 OA 
ENDROOT
BRANCH   4  13
HETATM   13  C   UNL     1     -10.852   9.295  69.174  1.00  0.00    -0.133 C  
BRANCH  13  14
HETATM   14  S   UNL     1      -9.360   8.616  70.002  1.00  0.00    -0.166 SA 
BRANCH  14  15
HETATM   15  C   UNL     1      -9.942   7.565  71.316  1.00  0.00    -0.186 C  
HETATM   16  N   UNL     1     -11.060   6.973  71.081  1.00  0.00    -0.250 N  
HETATM   17  H   UNL     1     -11.505   7.015  70.164  1.00  0.00     0.000 HD 
HETATM   18  C   UNL     1      -8.086   8.314  72.898  1.00  0.00    -0.150 C  
HETATM   19  C   UNL     1     -11.627   6.277  72.129  1.00  0.00    -0.319 C  
HETATM   20  N   UNL     1      -9.245   7.522  72.527  1.00  0.00    -0.140 NA 
HETATM   21  C   UNL     1     -10.799   5.853  73.341  1.00  0.00    -0.245 C  
HETATM   22  O   UNL     1     -12.834   6.050  72.214  1.00  0.00    -0.023 OA 
HETATM   23  H   UNL     1      -9.310   6.730  74.491  1.00  0.00     0.000 HD 
HETATM   24  N   UNL     1      -9.742   6.696  73.568  1.00  0.00    -0.175 N  
HETATM   25  O   UNL     1     -11.075   4.906  74.059  1.00  0.00    -0.287 OA 
ENDBRANCH  14  15
ENDBRANCH  13  14
ENDBRANCH   4  13
BRANCH   6  26
HETATM   26  N   UNL     1      -9.291  15.379  69.711  1.00  0.00    -0.409 N  
HETATM   27  O   UNL     1      -7.156  16.028  70.167  1.00  0.00     0.157 OA 
HETATM   28  C   UNL     1      -8.008  15.789  69.313  1.00  0.00    -0.239 C  
HETATM   29  H   UNL     1      -9.407  15.374  70.724  1.00  0.00     0.000 HD 
BRANCH  28  30
HETATM   30  C   UNL     1      -7.678  16.138  67.887  1.00  0.00    -0.137 C  
BRANCH  30  31
HETATM   31  C   UNL     1      -8.016  17.412  67.241  1.00  0.00    -0.200 A  
HETATM   32  H2  UNL     1     -10.618  20.500  65.825  1.00  0.00     0.000 HD 
HETATM   33  C   UNL     1      -7.271  18.559  67.464  1.00  0.00    -0.210 A  
HETATM   34  H1  UNL     1     -11.322  18.895  65.627  1.00  0.00     0.000 HD 
HETATM   35  N   UNL     1      -9.267  17.660  66.652  1.00  0.00    -0.263 NA 
HETATM   36  N   UNL     1     -10.547  19.487  65.924  1.00  0.00    -0.510 NA 
HETATM   37  S   UNL     1      -8.127  19.945  66.944  1.00  0.00    -0.324 SA 
HETATM   38  C   UNL     1      -9.434  18.947  66.443  1.00  0.00    -0.336 A  
ENDBRANCH  30  31
BRANCH  30  39
HETATM   39  N   UNL     1      -7.264  15.271  67.023  1.00  0.00    -0.272 NA 
HETATM   40  H   UNL     1      -7.743  15.200  66.126  1.00  0.00     0.000 HD 
BRANCH  39  41
HETATM   41  O   UNL     1      -6.182  14.429  67.281  1.00  0.00    -0.301 OA 
HETATM   42  C   UNL     1      -6.350  13.062  67.604  1.00  0.00    -0.161 C  
ENDBRANCH  39  41
ENDBRANCH  30  39
ENDBRANCH  28  30
ENDBRANCH   6  26
TORSDOF 8
ENDMDL
MODEL      148
REMARK 921   NORMALIZED FREE ENERGY PREDICTED BY IDOCK:   -5.82 KCAL/MOL
REMARK 922        TOTAL FREE ENERGY PREDICTED BY IDOCK:   -9.81 KCAL/MOL
REMARK 923 INTER-LIGAND FREE ENERGY PREDICTED BY IDOCK:   -7.13 KCAL/MOL
REMARK 924 INTRA-LIGAND FREE ENERGY PREDICTED BY IDOCK:   -2.68 KCAL/MOL
REMARK 927      BINDING AFFINITY PREDICTED BY RF-SCORE:    0.00 PKD
ROOT
HETATM    1  C   UNL     1      -6.651  10.359  70.081  1.00  0.00    -0.146 C  
HETATM    2  S   UNL     1      -6.737  11.398  68.648  1.00  0.00    -0.077 SA 
HETATM    3  C   UNL     1      -8.506  11.361  68.177  1.00  0.00    -0.152 C  
HETATM    4  C   UNL     1      -9.484  10.614  69.040  1.00  0.00    -0.202 C  
HETATM    5  CA  UNL     1      -9.139   9.910  70.161  1.00  0.00    -0.124 C  
HETATM    6  CA  UNL     1      -5.862   9.014  70.383  1.00  0.00    -0.031 C  
HETATM    7  C   UNL     1      -7.173   8.692  71.166  1.00  0.00    -0.085 C  
HETATM    8  N   UNL     1      -7.838   9.689  70.525  1.00  0.00    -0.161 N  
HETATM    9  C   UNL     1     -10.231   9.342  71.029  1.00  0.00    -0.299 C  
HETATM   10  O   UNL     1      -7.532   7.749  71.829  1.00  0.00    -0.066 OA 
HETATM   11  O   UNL     1     -10.027   8.131  71.582  1.00  0.00    -0.172 OA 
HETATM   12  OXT UNL     1     -11.266   9.951  71.253  1.00  0.00    -0.361 OA 
ENDROOT
BRANCH   4  13
HETATM   13  C   UNL     1     -10.960  10.613  68.537  1.00  0.00    -0.248 C  
BRANCH  13  14
HETATM   14  S   UNL     1     -11.760  12.174  67.992  1.00  0.00    -0.305 SA 
BRANCH  14  15
HETATM   15  C   UNL     1     -11.850  13.226  69.425  1.00  0.00    -0.329 C  
HETATM   16  N   UNL     1     -12.344  12.669  70.475  1.00  0.00    -0.314 N  
HETATM   17  H   UNL     1     -12.549  11.671  70.505  1.00  0.00     0.000 HD 
HETATM   18  C   UNL     1     -11.117  15.284  68.108  1.00  0.00    -0.308 C  
HETATM   19  C   UNL     1     -12.580  13.489  71.560  1.00  0.00    -0.266 C  
HETATM   20  N   UNL     1     -11.500  14.575  69.316  1.00  0.00    -0.271 NA 
HETATM   21  C   UNL     1     -11.905  14.853  71.687  1.00  0.00    -0.366 C  
HETATM   22  O   UNL     1     -13.418  13.237  72.427  1.00  0.00    -0.549 OA 
HETATM   23  H   UNL     1     -11.455  16.405  70.384  1.00  0.00     0.000 HD 
HETATM   24  N   UNL     1     -11.604  15.399  70.466  1.00  0.00    -0.295 N  
HETATM   25  O   UNL     1     -11.703  15.419  72.749  1.00  0.00    -0.439 OA 
ENDBRANCH  14  15
ENDBRANCH  13  14
ENDBRANCH   4  13
BRANCH   6  26
HETATM   26  N   UNL     1      -5.400   7.816  69.541  1.00  0.00    -0.023 N  
HETATM   27  O   UNL     1      -5.351   6.125  68.017  1.00  0.00    -0.004 OA 
HETATM   28  C   UNL     1      -5.941   7.110  68.454  1.00  0.00    -0.026 C  
HETATM   29  H   UNL     1      -4.496   7.450  69.838  1.00  0.00     0.000 HD 
BRANCH  28  30
HETATM   30  C   UNL     1      -7.119   7.619  67.667  1.00  0.00    -0.085 C  
BRANCH  30  31
HETATM   31  C   UNL     1      -8.462   7.024  67.697  1.00  0.00    -0.123 A  
HETATM   32  H2  UNL     1     -12.093   5.676  69.514  1.00  0.00     0.000 HD 
HETATM   33  C   UNL     1      -9.410   7.327  66.733  1.00  0.00    -0.163 A  
HETATM   34  H1  UNL     1     -10.688   5.378  70.537  1.00  0.00     0.000 HD 
HETATM   35  N   UNL     1      -8.997   6.407  68.839  1.00  0.00    -0.124 NA 
HETATM   36  N   UNL     1     -11.086   5.728  69.666  1.00  0.00    -0.338 NA 
HETATM   37  S   UNL     1     -10.968   6.846  67.249  1.00  0.00    -0.291 SA 
HETATM   38  C   UNL     1     -10.297   6.256  68.717  1.00  0.00    -0.205 A  
ENDBRANCH  30  31
BRANCH  30  39
HETATM   39  N   UNL     1      -7.015   8.489  66.718  1.00  0.00    -0.072 NA 
HETATM   40  H   UNL     1      -7.854   8.968  66.392  1.00  0.00     0.000 HD 
BRANCH  39  41
HETATM   41  O   UNL     1      -5.789   8.794  66.126  1.00  0.00    -0.046 OA 
HETATM   42  C   UNL     1      -5.599   9.954  65.339  1.00  0.00    -0.063 C  
ENDBRANCH  39  41
ENDBRANCH  30  39
ENDBRANCH  28  30
ENDBRANCH   6  26
TORSDOF 8
ENDMDL
MODEL      149
REMARK 921   NORMALIZED FREE ENERGY PREDICTED BY IDOCK:   -5.82 KCAL/MOL
REMARK 922        TOTAL FREE ENERGY PREDICTED BY IDOCK:   -9.80 KCAL/MOL
REMARK 923 INTER-LIGAND FREE ENERGY PREDICTED BY IDOCK:   -8.74 KCAL/MOL
REMARK 924 INTRA-LIGAND FREE ENERGY PREDICTED BY IDOCK:   -1.06 KCAL/MOL
REMARK 927      BINDING AFFINITY PREDICTED BY RF-SCORE:    0.00 PKD
ROOT
HETATM    1  C   UNL     1     -10.812   9.566  69.419  1.00  0.00    -0.206 C  
HETATM    2  S   UNL     1     -12.132  10.620  69.951  1.00  0.00    -0.273 SA 
HETATM    3  C   UNL     1     -11.591  12.298  69.455  1.00  0.00    -0.298 C  
HETATM    4  C   UNL     1     -10.308  12.462  68.690  1.00  0.00    -0.198 C  
HETATM    5  CA  UNL     1      -9.473  11.431  68.358  1.00  0.00    -0.194 C  
HETATM    6  CA  UNL     1      -9.833   8.594  70.207  1.00  0.00    -0.178 C  
HETATM    7  C   UNL     1      -8.823   9.123  69.141  1.00  0.00    -0.146 C  
HETATM    8  N   UNL     1      -9.648  10.156  68.826  1.00  0.00    -0.162 N  
HETATM    9  C   UNL     1      -8.302  11.705  67.451  1.00  0.00    -0.152 C  
HETATM   10  O   UNL     1      -7.659   8.894  68.916  1.00  0.00    -0.084 OA 
HETATM   11  O   UNL     1      -7.146  11.063  67.706  1.00  0.00    -0.082 OA 
HETATM   12  OXT UNL     1      -8.383  12.464  66.497  1.00  0.00    -0.051 OA 
ENDROOT
BRANCH   4  13
HETATM   13  C   UNL     1      -9.915  13.931  68.344  1.00  0.00    -0.233 C  
BRANCH  13  14
HETATM   14  S   UNL     1     -10.961  14.933  67.215  1.00  0.00    -0.330 SA 
BRANCH  14  15
HETATM   15  C   UNL     1     -10.350  16.603  67.304  1.00  0.00    -0.298 C  
HETATM   16  N   UNL     1      -9.730  17.010  66.252  1.00  0.00    -0.284 N  
HETATM   17  H   UNL     1      -9.704  16.454  65.397  1.00  0.00     0.000 HD 
HETATM   18  C   UNL     1     -10.994  16.834  69.761  1.00  0.00    -0.090 C  
HETATM   19  C   UNL     1      -9.103  18.236  66.335  1.00  0.00    -0.249 C  
HETATM   20  N   UNL     1     -10.470  17.321  68.498  1.00  0.00    -0.365 NA 
HETATM   21  C   UNL     1      -9.475  19.246  67.419  1.00  0.00    -0.308 C  
HETATM   22  O   UNL     1      -8.144  18.553  65.632  1.00  0.00    -0.445 OA 
HETATM   23  H   UNL     1      -9.936  19.142  69.440  1.00  0.00     0.000 HD 
HETATM   24  N   UNL     1      -9.953  18.640  68.552  1.00  0.00    -0.374 N  
HETATM   25  O   UNL     1      -9.317  20.452  67.312  1.00  0.00    -0.382 OA 
ENDBRANCH  14  15
ENDBRANCH  13  14
ENDBRANCH   4  13
BRANCH   6  26
HETATM   26  N   UNL     1      -9.215   8.586  71.612  1.00  0.00    -0.212 N  
HETATM   27  O   UNL     1      -8.880   8.216  73.834  1.00  0.00    -0.256 OA 
HETATM   28  C   UNL     1      -9.554   7.981  72.833  1.00  0.00    -0.279 C  
HETATM   29  H   UNL     1      -8.366   9.147  71.673  1.00  0.00     0.000 HD 
BRANCH  28  30
HETATM   30  C   UNL     1     -10.595   6.898  72.936  1.00  0.00    -0.261 C  
BRANCH  30  31
HETATM   31  C   UNL     1     -10.315   5.460  72.832  1.00  0.00    -0.195 A  
HETATM   32  H2  UNL     1     -11.193   1.283  73.130  1.00  0.00     0.000 HD 
HETATM   33  C   UNL     1      -9.629   4.931  71.751  1.00  0.00    -0.156 A  
HETATM   34  H1  UNL     1     -11.934   2.212  74.433  1.00  0.00     0.000 HD 
HETATM   35  N   UNL     1     -10.991   4.495  73.596  1.00  0.00    -0.291 NA 
HETATM   36  N   UNL     1     -11.355   2.177  73.594  1.00  0.00    -0.216 NA 
HETATM   37  S   UNL     1      -9.827   3.234  71.683  1.00  0.00    -0.109 SA 
HETATM   38  C   UNL     1     -10.803   3.294  73.097  1.00  0.00    -0.139 A  
ENDBRANCH  30  31
BRANCH  30  39
HETATM   39  N   UNL     1     -11.865   7.131  72.903  1.00  0.00    -0.522 NA 
HETATM   40  H   UNL     1     -12.298   7.624  73.683  1.00  0.00     0.000 HD 
BRANCH  39  41
HETATM   41  O   UNL     1     -12.662   6.728  71.831  1.00  0.00    -0.343 OA 
HETATM   42  C   UNL     1     -13.849   7.410  71.476  1.00  0.00    -0.374 C  
ENDBRANCH  39  41
ENDBRANCH  30  39
ENDBRANCH  28  30
ENDBRANCH   6  26
TORSDOF 8
ENDMDL
MODEL      150
REMARK 921   NORMALIZED FREE ENERGY PREDICTED BY IDOCK:   -5.82 KCAL/MOL
REMARK 922        TOTAL FREE ENERGY PREDICTED BY IDOCK:   -9.80 KCAL/MOL
REMARK 923 INTER-LIGAND FREE ENERGY PREDICTED BY IDOCK:   -8.38 KCAL/MOL
REMARK 924 INTRA-LIGAND FREE ENERGY PREDICTED BY IDOCK:   -1.42 KCAL/MOL
REMARK 927      BINDING AFFINITY PREDICTED BY RF-SCORE:    0.00 PKD
ROOT
HETATM    1  C   UNL     1      -8.975  10.804  68.059  1.00  0.00    -0.139 C  
HETATM    2  S   UNL     1      -8.409  11.493  66.528  1.00  0.00    -0.109 SA 
HETATM    3  C   UNL     1      -9.453  12.979  66.295  1.00  0.00    -0.192 C  
HETATM    4  C   UNL     1     -10.437  13.364  67.363  1.00  0.00    -0.243 C  
HETATM    5  CA  UNL     1     -10.644  12.650  68.512  1.00  0.00    -0.243 C  
HETATM    6  CA  UNL     1      -9.626   9.402  68.427  1.00  0.00    -0.146 C  
HETATM    7  C   UNL     1     -10.446  10.300  69.405  1.00  0.00    -0.236 C  
HETATM    8  N   UNL     1     -10.079  11.423  68.732  1.00  0.00    -0.206 N  
HETATM    9  C   UNL     1     -11.538  13.228  69.577  1.00  0.00    -0.286 C  
HETATM   10  O   UNL     1     -11.303  10.067  70.223  1.00  0.00    -0.266 OA 
HETATM   11  O   UNL     1     -12.342  12.381  70.250  1.00  0.00    -0.275 OA 
HETATM   12  OXT UNL     1     -11.537  14.418  69.852  1.00  0.00    -0.263 OA 
ENDROOT
BRANCH   4  13
HETATM   13  C   UNL     1     -11.303  14.624  67.058  1.00  0.00    -0.355 C  
BRANCH  13  14
HETATM   14  S   UNL     1     -10.615  16.010  66.068  1.00  0.00    -0.288 SA 
BRANCH  14  15
HETATM   15  C   UNL     1      -9.490  16.886  67.135  1.00  0.00    -0.237 C  
HETATM   16  N   UNL     1      -8.537  16.171  67.621  1.00  0.00    -0.171 N  
HETATM   17  H   UNL     1      -8.379  15.210  67.316  1.00  0.00     0.000 HD 
HETATM   18  C   UNL     1     -10.907  19.006  67.088  1.00  0.00    -0.387 C  
HETATM   19  C   UNL     1      -7.737  16.766  68.575  1.00  0.00    -0.223 C  
HETATM   20  N   UNL     1      -9.747  18.220  67.466  1.00  0.00    -0.293 NA 
HETATM   21  C   UNL     1      -7.683  18.285  68.730  1.00  0.00    -0.269 C  
HETATM   22  O   UNL     1      -7.111  16.130  69.424  1.00  0.00    -0.215 OA 
HETATM   23  H   UNL     1      -9.073  19.825  68.673  1.00  0.00     0.000 HD 
HETATM   24  N   UNL     1      -8.850  18.889  68.337  1.00  0.00    -0.333 N  
HETATM   25  O   UNL     1      -6.734  18.890  69.201  1.00  0.00    -0.286 OA 
ENDBRANCH  14  15
ENDBRANCH  13  14
ENDBRANCH   4  13
BRANCH   6  26
HETATM   26  N   UNL     1     -10.528   8.400  67.692  1.00  0.00    -0.338 N  
HETATM   27  O   UNL     1     -11.449   6.462  66.930  1.00  0.00    -0.188 OA 
HETATM   28  C   UNL     1     -10.653   7.001  67.696  1.00  0.00    -0.257 C  
HETATM   29  H   UNL     1     -11.186   8.853  67.058  1.00  0.00     0.000 HD 
BRANCH  28  30
HETATM   30  C   UNL     1      -9.994   6.134  68.735  1.00  0.00    -0.145 C  
BRANCH  30  31
HETATM   31  C   UNL     1     -10.576   5.813  70.044  1.00  0.00    -0.310 A  
HETATM   32  H2  UNL     1     -10.553   4.415  74.088  1.00  0.00     0.000 HD 
HETATM   33  C   UNL     1     -11.488   6.656  70.659  1.00  0.00    -0.364 A  
HETATM   34  H1  UNL     1      -9.476   3.476  73.054  1.00  0.00     0.000 HD 
HETATM   35  N   UNL     1     -10.023   4.855  70.910  1.00  0.00    -0.205 NA 
HETATM   36  N   UNL     1     -10.152   4.231  73.168  1.00  0.00    -0.142 NA 
HETATM   37  S   UNL     1     -11.657   6.259  72.313  1.00  0.00    -0.291 SA 
HETATM   38  C   UNL     1     -10.518   4.985  72.120  1.00  0.00    -0.210 A  
ENDBRANCH  30  31
BRANCH  30  39
HETATM   39  N   UNL     1      -8.756   5.769  68.672  1.00  0.00    -0.108 NA 
HETATM   40  H   UNL     1      -8.536   4.774  68.636  1.00  0.00     0.000 HD 
BRANCH  39  41
HETATM   41  O   UNL     1      -7.712   6.694  68.651  1.00  0.00    -0.105 OA 
HETATM   42  C   UNL     1      -7.015   7.072  69.822  1.00  0.00    -0.059 C  
ENDBRANCH  39  41
ENDBRANCH  30  39
ENDBRANCH  28  30
ENDBRANCH   6  26
TORSDOF 8
ENDMDL
MODEL      151
REMARK 921   NORMALIZED FREE ENERGY PREDICTED BY IDOCK:   -5.81 KCAL/MOL
REMARK 922        TOTAL FREE ENERGY PREDICTED BY IDOCK:   -9.79 KCAL/MOL
REMARK 923 INTER-LIGAND FREE ENERGY PREDICTED BY IDOCK:   -8.35 KCAL/MOL
REMARK 924 INTRA-LIGAND FREE ENERGY PREDICTED BY IDOCK:   -1.44 KCAL/MOL
REMARK 927      BINDING AFFINITY PREDICTED BY RF-SCORE:    0.00 PKD
ROOT
HETATM    1  C   UNL     1      -8.859  10.242  67.998  1.00  0.00    -0.122 C  
HETATM    2  S   UNL     1      -9.747  11.148  66.762  1.00  0.00    -0.197 SA 
HETATM    3  C   UNL     1      -9.038  12.834  66.850  1.00  0.00    -0.221 C  
HETATM    4  C   UNL     1      -7.894  13.105  67.786  1.00  0.00    -0.152 C  
HETATM    5  CA  UNL     1      -7.351  12.173  68.627  1.00  0.00    -0.109 C  
HETATM    6  CA  UNL     1      -9.326   9.486  69.315  1.00  0.00    -0.169 C  
HETATM    7  C   UNL     1      -7.971  10.053  69.843  1.00  0.00    -0.171 C  
HETATM    8  N   UNL     1      -7.900  10.932  68.809  1.00  0.00    -0.124 N  
HETATM    9  C   UNL     1      -6.104  12.524  69.396  1.00  0.00    -0.108 C  
HETATM   10  O   UNL     1      -7.392   9.966  70.899  1.00  0.00    -0.328 OA 
HETATM   11  O   UNL     1      -5.997  12.071  70.660  1.00  0.00    -0.282 OA 
HETATM   12  OXT UNL     1      -5.199  13.179  68.902  1.00  0.00    -0.068 OA 
ENDROOT
BRANCH   4  13
HETATM   13  C   UNL     1      -7.382  14.578  67.814  1.00  0.00    -0.175 C  
BRANCH  13  14
HETATM   14  S   UNL     1      -8.008  15.757  69.076  1.00  0.00    -0.227 SA 
BRANCH  14  15
HETATM   15  C   UNL     1      -8.595  17.186  68.189  1.00  0.00    -0.232 C  
HETATM   16  N   UNL     1      -9.554  16.954  67.363  1.00  0.00    -0.239 N  
HETATM   17  H   UNL     1     -10.014  16.045  67.318  1.00  0.00     0.000 HD 
HETATM   18  C   UNL     1      -6.744  18.673  69.122  1.00  0.00    -0.269 C  
HETATM   19  C   UNL     1      -9.932  17.996  66.541  1.00  0.00    -0.371 C  
HETATM   20  N   UNL     1      -7.942  18.412  68.344  1.00  0.00    -0.300 NA 
HETATM   21  C   UNL     1      -9.566  19.441  66.873  1.00  0.00    -0.339 C  
HETATM   22  O   UNL     1     -10.479  17.831  65.450  1.00  0.00    -0.641 OA 
HETATM   23  H   UNL     1      -7.889  20.405  67.626  1.00  0.00     0.000 HD 
HETATM   24  N   UNL     1      -8.412  19.530  67.608  1.00  0.00    -0.302 N  
HETATM   25  O   UNL     1     -10.196  20.412  66.484  1.00  0.00    -0.405 OA 
ENDBRANCH  14  15
ENDBRANCH  13  14
ENDBRANCH   4  13
BRANCH   6  26
HETATM   26  N   UNL     1     -10.456   9.685  70.335  1.00  0.00    -0.273 N  
HETATM   27  O   UNL     1     -11.821   9.429  72.140  1.00  0.00    -0.310 OA 
HETATM   28  C   UNL     1     -10.788   9.093  71.564  1.00  0.00    -0.366 C  
HETATM   29  H   UNL     1     -11.115  10.412  70.057  1.00  0.00     0.000 HD 
BRANCH  28  30
HETATM   30  C   UNL     1      -9.837   8.199  72.313  1.00  0.00    -0.260 C  
BRANCH  30  31
HETATM   31  C   UNL     1      -9.907   6.732  72.329  1.00  0.00    -0.155 A  
HETATM   32  H2  UNL     1     -11.640   2.917  73.196  1.00  0.00     0.000 HD 
HETATM   33  C   UNL     1      -9.539   5.977  71.227  1.00  0.00    -0.167 A  
HETATM   34  H1  UNL     1     -11.937   4.090  74.480  1.00  0.00     0.000 HD 
HETATM   35  N   UNL     1     -10.652   6.014  73.279  1.00  0.00    -0.242 NA 
HETATM   36  N   UNL     1     -11.521   3.856  73.579  1.00  0.00    -0.184 NA 
HETATM   37  S   UNL     1     -10.120   4.376  71.372  1.00  0.00    -0.090 SA 
HETATM   38  C   UNL     1     -10.820   4.770  72.891  1.00  0.00    -0.237 A  
ENDBRANCH  30  31
BRANCH  30  39
HETATM   39  N   UNL     1      -9.001   8.636  73.196  1.00  0.00    -0.282 NA 
HETATM   40  H   UNL     1      -9.173   9.539  73.636  1.00  0.00     0.000 HD 
BRANCH  39  41
HETATM   41  O   UNL     1      -7.868   7.909  73.565  1.00  0.00    -0.138 OA 
HETATM   42  C   UNL     1      -6.694   8.534  74.045  1.00  0.00    -0.098 C  
ENDBRANCH  39  41
ENDBRANCH  30  39
ENDBRANCH  28  30
ENDBRANCH   6  26
TORSDOF 8
ENDMDL
MODEL      152
REMARK 921   NORMALIZED FREE ENERGY PREDICTED BY IDOCK:   -5.81 KCAL/MOL
REMARK 922        TOTAL FREE ENERGY PREDICTED BY IDOCK:   -9.79 KCAL/MOL
REMARK 923 INTER-LIGAND FREE ENERGY PREDICTED BY IDOCK:   -7.44 KCAL/MOL
REMARK 924 INTRA-LIGAND FREE ENERGY PREDICTED BY IDOCK:   -2.35 KCAL/MOL
REMARK 927      BINDING AFFINITY PREDICTED BY RF-SCORE:    0.00 PKD
ROOT
HETATM    1  C   UNL     1      -7.652   7.619  71.341  1.00  0.00    -0.080 C  
HETATM    2  S   UNL     1      -6.957   9.104  70.669  1.00  0.00    -0.102 SA 
HETATM    3  C   UNL     1      -8.358   9.898  69.798  1.00  0.00    -0.183 C  
HETATM    4  C   UNL     1      -9.721   9.270  69.869  1.00  0.00    -0.220 C  
HETATM    5  CA  UNL     1      -9.997   8.101  70.522  1.00  0.00    -0.187 C  
HETATM    6  CA  UNL     1      -7.319   6.082  71.114  1.00  0.00    -0.084 C  
HETATM    7  C   UNL     1      -8.869   5.964  71.247  1.00  0.00    -0.136 C  
HETATM    8  N   UNL     1      -9.019   7.301  71.052  1.00  0.00    -0.148 N  
HETATM    9  C   UNL     1     -11.431   7.662  70.658  1.00  0.00    -0.258 C  
HETATM   10  O   UNL     1      -9.635   5.031  71.218  1.00  0.00    -0.151 OA 
HETATM   11  O   UNL     1     -11.698   6.346  70.551  1.00  0.00    -0.386 OA 
HETATM   12  OXT UNL     1     -12.335   8.454  70.878  1.00  0.00    -0.197 OA 
ENDROOT
BRANCH   4  13
HETATM   13  C   UNL     1     -10.840  10.001  69.067  1.00  0.00    -0.222 C  
BRANCH  13  14
HETATM   14  S   UNL     1     -11.368  11.697  69.537  1.00  0.00    -0.238 SA 
BRANCH  14  15
HETATM   15  C   UNL     1     -11.727  12.556  68.019  1.00  0.00    -0.355 C  
HETATM   16  N   UNL     1     -11.651  11.834  66.957  1.00  0.00    -0.293 N  
HETATM   17  H   UNL     1     -11.514  10.824  67.005  1.00  0.00     0.000 HD 
HETATM   18  C   UNL     1     -11.867  14.817  69.193  1.00  0.00    -0.305 C  
HETATM   19  C   UNL     1     -11.764  12.491  65.749  1.00  0.00    -0.426 C  
HETATM   20  N   UNL     1     -11.956  13.935  68.042  1.00  0.00    -0.374 NA 
HETATM   21  C   UNL     1     -12.378  13.887  65.659  1.00  0.00    -0.482 C  
HETATM   22  O   UNL     1     -11.288  12.060  64.698  1.00  0.00    -0.316 OA 
HETATM   23  H   UNL     1     -12.280  15.619  66.799  1.00  0.00     0.000 HD 
HETATM   24  N   UNL     1     -12.215  14.602  66.818  1.00  0.00    -0.224 N  
HETATM   25  O   UNL     1     -12.906  14.338  64.655  1.00  0.00    -0.658 OA 
ENDBRANCH  14  15
ENDBRANCH  13  14
ENDBRANCH   4  13
BRANCH   6  26
HETATM   26  N   UNL     1      -6.789   5.251  69.938  1.00  0.00    -0.054 N  
HETATM   27  O   UNL     1      -6.577   4.276  67.890  1.00  0.00    -0.041 OA 
HETATM   28  C   UNL     1      -7.176   5.083  68.598  1.00  0.00    -0.062 C  
HETATM   29  H   UNL     1      -5.972   4.693  70.184  1.00  0.00     0.000 HD 
BRANCH  28  30
HETATM   30  C   UNL     1      -8.171   5.991  67.925  1.00  0.00    -0.112 C  
BRANCH  30  31
HETATM   31  C   UNL     1      -7.821   7.207  67.180  1.00  0.00    -0.110 A  
HETATM   32  H2  UNL     1      -8.411  11.170  65.678  1.00  0.00     0.000 HD 
HETATM   33  C   UNL     1      -6.541   7.736  67.218  1.00  0.00    -0.063 A  
HETATM   34  H1  UNL     1      -9.910  10.240  65.710  1.00  0.00     0.000 HD 
HETATM   35  N   UNL     1      -8.783   8.098  66.678  1.00  0.00    -0.133 NA 
HETATM   36  N   UNL     1      -8.906  10.299  65.876  1.00  0.00    -0.153 NA 
HETATM   37  S   UNL     1      -6.535   9.342  66.631  1.00  0.00    -0.067 SA 
HETATM   38  C   UNL     1      -8.228   9.243  66.351  1.00  0.00    -0.111 A  
ENDBRANCH  30  31
BRANCH  30  39
HETATM   39  N   UNL     1      -9.445   5.915  68.123  1.00  0.00    -0.115 NA 
HETATM   40  H   UNL     1      -9.898   6.620  68.705  1.00  0.00     0.000 HD 
BRANCH  39  41
HETATM   41  O   UNL     1     -10.221   4.899  67.565  1.00  0.00    -0.159 OA 
HETATM   42  C   UNL     1      -9.981   4.392  66.266  1.00  0.00    -0.235 C  
ENDBRANCH  39  41
ENDBRANCH  30  39
ENDBRANCH  28  30
ENDBRANCH   6  26
TORSDOF 8
ENDMDL
MODEL      153
REMARK 921   NORMALIZED FREE ENERGY PREDICTED BY IDOCK:   -5.81 KCAL/MOL
REMARK 922        TOTAL FREE ENERGY PREDICTED BY IDOCK:   -9.78 KCAL/MOL
REMARK 923 INTER-LIGAND FREE ENERGY PREDICTED BY IDOCK:   -8.20 KCAL/MOL
REMARK 924 INTRA-LIGAND FREE ENERGY PREDICTED BY IDOCK:   -1.58 KCAL/MOL
REMARK 927      BINDING AFFINITY PREDICTED BY RF-SCORE:    0.00 PKD
ROOT
HETATM    1  C   UNL     1      -7.872  11.172  68.524  1.00  0.00    -0.136 C  
HETATM    2  S   UNL     1      -7.404  10.326  70.009  1.00  0.00    -0.093 SA 
HETATM    3  C   UNL     1      -7.842   8.578  69.682  1.00  0.00    -0.095 C  
HETATM    4  C   UNL     1      -8.380   8.192  68.333  1.00  0.00    -0.126 C  
HETATM    5  CA  UNL     1      -8.606   9.076  67.314  1.00  0.00    -0.114 C  
HETATM    6  CA  UNL     1      -8.912  12.339  68.239  1.00  0.00    -0.182 C  
HETATM    7  C   UNL     1      -9.127  11.514  66.932  1.00  0.00    -0.179 C  
HETATM    8  N   UNL     1      -8.509  10.432  67.475  1.00  0.00    -0.115 N  
HETATM    9  C   UNL     1      -8.992   8.542  65.959  1.00  0.00    -0.184 C  
HETATM   10  O   UNL     1      -9.829  11.667  65.961  1.00  0.00    -0.216 OA 
HETATM   11  O   UNL     1      -9.903   9.234  65.248  1.00  0.00    -0.168 OA 
HETATM   12  OXT UNL     1      -8.493   7.530  65.494  1.00  0.00    -0.141 OA 
ENDROOT
BRANCH   4  13
HETATM   13  C   UNL     1      -8.756   6.689  68.164  1.00  0.00    -0.117 C  
BRANCH  13  14
HETATM   14  S   UNL     1     -10.456   6.105  68.544  1.00  0.00    -0.267 SA 
BRANCH  14  15
HETATM   15  C   UNL     1     -11.024   7.065  69.932  1.00  0.00    -0.263 C  
HETATM   16  N   UNL     1     -11.423   8.253  69.642  1.00  0.00    -0.364 N  
HETATM   17  H   UNL     1     -11.516   8.565  68.675  1.00  0.00     0.000 HD 
HETATM   18  C   UNL     1     -10.297   5.287  71.611  1.00  0.00    -0.216 C  
HETATM   19  C   UNL     1     -11.721   9.085  70.701  1.00  0.00    -0.198 C  
HETATM   20  N   UNL     1     -10.911   6.545  71.225  1.00  0.00    -0.240 NA 
HETATM   21  C   UNL     1     -11.995   8.527  72.097  1.00  0.00    -0.383 C  
HETATM   22  O   UNL     1     -11.678  10.313  70.628  1.00  0.00    -0.295 OA 
HETATM   23  H   UNL     1     -11.178   7.023  73.272  1.00  0.00     0.000 HD 
HETATM   24  N   UNL     1     -11.347   7.338  72.317  1.00  0.00    -0.261 N  
HETATM   25  O   UNL     1     -12.668   9.096  72.940  1.00  0.00    -0.227 OA 
ENDBRANCH  14  15
ENDBRANCH  13  14
ENDBRANCH   4  13
BRANCH   6  26
HETATM   26  N   UNL     1     -10.248  12.774  68.857  1.00  0.00    -0.429 N  
HETATM   27  O   UNL     1     -11.863  13.999  69.895  1.00  0.00    -0.291 OA 
HETATM   28  C   UNL     1     -10.735  13.971  69.407  1.00  0.00    -0.052 C  
HETATM   29  H   UNL     1     -10.938  12.024  68.872  1.00  0.00     0.000 HD 
BRANCH  28  30
HETATM   30  C   UNL     1     -10.012  15.282  69.254  1.00  0.00    -0.251 C  
BRANCH  30  31
HETATM   31  C   UNL     1     -10.384  16.333  68.298  1.00  0.00    -0.272 A  
HETATM   32  H2  UNL     1     -10.448  20.295  66.683  1.00  0.00     0.000 HD 
HETATM   33  C   UNL     1     -10.392  16.101  66.932  1.00  0.00    -0.297 A  
HETATM   34  H1  UNL     1     -10.465  20.296  68.447  1.00  0.00     0.000 HD 
HETATM   35  N   UNL     1     -10.417  17.696  68.637  1.00  0.00    -0.347 NA 
HETATM   36  N   UNL     1     -10.455  19.783  67.565  1.00  0.00    -0.435 NA 
HETATM   37  S   UNL     1     -10.438  17.576  66.070  1.00  0.00    -0.179 SA 
HETATM   38  C   UNL     1     -10.453  18.441  67.556  1.00  0.00    -0.419 A  
ENDBRANCH  30  31
BRANCH  30  39
HETATM   39  N   UNL     1      -8.862  15.524  69.790  1.00  0.00    -0.279 NA 
HETATM   40  H   UNL     1      -8.765  15.461  70.803  1.00  0.00     0.000 HD 
BRANCH  39  41
HETATM   41  O   UNL     1      -7.748  15.868  69.024  1.00  0.00    -0.180 OA 
HETATM   42  C   UNL     1      -6.525  16.272  69.610  1.00  0.00    -0.190 C  
ENDBRANCH  39  41
ENDBRANCH  30  39
ENDBRANCH  28  30
ENDBRANCH   6  26
TORSDOF 8
ENDMDL
MODEL      154
REMARK 921   NORMALIZED FREE ENERGY PREDICTED BY IDOCK:   -5.80 KCAL/MOL
REMARK 922        TOTAL FREE ENERGY PREDICTED BY IDOCK:   -9.77 KCAL/MOL
REMARK 923 INTER-LIGAND FREE ENERGY PREDICTED BY IDOCK:   -8.65 KCAL/MOL
REMARK 924 INTRA-LIGAND FREE ENERGY PREDICTED BY IDOCK:   -1.12 KCAL/MOL
REMARK 927      BINDING AFFINITY PREDICTED BY RF-SCORE:    0.00 PKD
ROOT
HETATM    1  C   UNL     1     -11.783  14.322  66.495  1.00  0.00    -0.394 C  
HETATM    2  S   UNL     1     -11.670  12.749  65.688  1.00  0.00    -0.421 SA 
HETATM    3  C   UNL     1     -11.560  11.548  67.065  1.00  0.00    -0.122 C  
HETATM    4  C   UNL     1     -11.663  12.038  68.482  1.00  0.00    -0.387 C  
HETATM    5  CA  UNL     1     -11.799  13.353  68.832  1.00  0.00    -0.334 C  
HETATM    6  CA  UNL     1     -10.855  15.611  66.464  1.00  0.00    -0.260 C  
HETATM    7  C   UNL     1     -11.271  15.663  67.968  1.00  0.00    -0.339 C  
HETATM    8  N   UNL     1     -11.702  14.375  67.925  1.00  0.00    -0.343 N  
HETATM    9  C   UNL     1     -12.055  13.700  70.275  1.00  0.00    -0.357 C  
HETATM   10  O   UNL     1     -11.021  16.424  68.871  1.00  0.00    -0.304 OA 
HETATM   11  O   UNL     1     -11.461  14.803  70.771  1.00  0.00    -0.272 OA 
HETATM   12  OXT UNL     1     -12.788  13.029  70.985  1.00  0.00    -0.288 OA 
ENDROOT
BRANCH   4  13
HETATM   13  C   UNL     1     -11.523  10.945  69.584  1.00  0.00    -0.305 C  
BRANCH  13  14
HETATM   14  S   UNL     1      -9.983   9.952  69.722  1.00  0.00    -0.247 SA 
BRANCH  14  15
HETATM   15  C   UNL     1     -10.399   8.497  70.660  1.00  0.00    -0.199 C  
HETATM   16  N   UNL     1     -10.333   8.639  71.937  1.00  0.00    -0.307 N  
HETATM   17  H   UNL     1     -10.172   9.550  72.367  1.00  0.00     0.000 HD 
HETATM   18  C   UNL     1     -10.562   7.049  68.566  1.00  0.00    -0.202 C  
HETATM   19  C   UNL     1     -10.491   7.499  72.698  1.00  0.00    -0.271 C  
HETATM   20  N   UNL     1     -10.659   7.296  69.994  1.00  0.00    -0.228 NA 
HETATM   21  C   UNL     1     -11.138   6.242  72.120  1.00  0.00    -0.269 C  
HETATM   22  O   UNL     1     -10.031   7.376  73.834  1.00  0.00    -0.301 OA 
HETATM   23  H   UNL     1     -11.052   5.237  70.305  1.00  0.00     0.000 HD 
HETATM   24  N   UNL     1     -10.963   6.144  70.764  1.00  0.00    -0.285 N  
HETATM   25  O   UNL     1     -11.701   5.393  72.792  1.00  0.00    -0.295 OA 
ENDBRANCH  14  15
ENDBRANCH  13  14
ENDBRANCH   4  13
BRANCH   6  26
HETATM   26  N   UNL     1      -9.351  15.859  66.287  1.00  0.00    -0.293 N  
HETATM   27  O   UNL     1      -7.088  15.723  66.506  1.00  0.00    -0.099 OA 
HETATM   28  C   UNL     1      -8.187  15.249  66.785  1.00  0.00    -0.180 C  
HETATM   29  H   UNL     1      -9.150  16.644  65.669  1.00  0.00     0.000 HD 
BRANCH  28  30
HETATM   30  C   UNL     1      -8.211  13.919  67.488  1.00  0.00    -0.188 C  
BRANCH  30  31
HETATM   31  C   UNL     1      -7.558  13.644  68.775  1.00  0.00    -0.079 A  
HETATM   32  H2  UNL     1      -5.030  11.514  71.492  1.00  0.00     0.000 HD 
HETATM   33  C   UNL     1      -7.024  14.661  69.548  1.00  0.00    -0.165 A  
HETATM   34  H1  UNL     1      -5.877  10.432  70.385  1.00  0.00     0.000 HD 
HETATM   35  N   UNL     1      -7.120  12.363  69.149  1.00  0.00    -0.046 NA 
HETATM   36  N   UNL     1      -5.687  11.376  70.724  1.00  0.00    -0.294 NA 
HETATM   37  S   UNL     1      -5.975  14.026  70.740  1.00  0.00    -0.153 SA 
HETATM   38  C   UNL     1      -6.295  12.436  70.170  1.00  0.00     0.055 A  
ENDBRANCH  30  31
BRANCH  30  39
HETATM   39  N   UNL     1      -8.616  12.828  66.928  1.00  0.00    -0.341 NA 
HETATM   40  H   UNL     1      -9.617  12.636  66.885  1.00  0.00     0.000 HD 
BRANCH  39  41
HETATM   41  O   UNL     1      -7.727  11.904  66.379  1.00  0.00     0.020 OA 
HETATM   42  C   UNL     1      -8.142  10.624  65.942  1.00  0.00    -0.159 C  
ENDBRANCH  39  41
ENDBRANCH  30  39
ENDBRANCH  28  30
ENDBRANCH   6  26
TORSDOF 8
ENDMDL
MODEL      155
REMARK 921   NORMALIZED FREE ENERGY PREDICTED BY IDOCK:   -5.79 KCAL/MOL
REMARK 922        TOTAL FREE ENERGY PREDICTED BY IDOCK:   -9.76 KCAL/MOL
REMARK 923 INTER-LIGAND FREE ENERGY PREDICTED BY IDOCK:   -9.76 KCAL/MOL
REMARK 924 INTRA-LIGAND FREE ENERGY PREDICTED BY IDOCK:   -0.00 KCAL/MOL
REMARK 927      BINDING AFFINITY PREDICTED BY RF-SCORE:    0.00 PKD
ROOT
HETATM    1  C   UNL     1     -11.178  14.870  66.323  1.00  0.00    -0.331 C  
HETATM    2  S   UNL     1     -11.465  13.402  65.374  1.00  0.00    -0.311 SA 
HETATM    3  C   UNL     1     -11.767  12.108  66.635  1.00  0.00    -0.313 C  
HETATM    4  C   UNL     1     -11.802  12.488  68.088  1.00  0.00    -0.371 C  
HETATM    5  CA  UNL     1     -11.585  13.755  68.557  1.00  0.00    -0.338 C  
HETATM    6  CA  UNL     1      -9.927  15.843  66.439  1.00  0.00    -0.287 C  
HETATM    7  C   UNL     1     -10.390  15.885  67.929  1.00  0.00    -0.269 C  
HETATM    8  N   UNL     1     -11.161  14.779  67.754  1.00  0.00    -0.288 N  
HETATM    9  C   UNL     1     -11.809  14.039  70.019  1.00  0.00    -0.320 C  
HETATM   10  O   UNL     1      -9.985  16.467  68.906  1.00  0.00    -0.238 OA 
HETATM   11  O   UNL     1     -10.958  14.885  70.632  1.00  0.00    -0.192 OA 
HETATM   12  OXT UNL     1     -12.737  13.546  70.642  1.00  0.00    -0.282 OA 
ENDROOT
BRANCH   4  13
HETATM   13  C   UNL     1     -12.031  11.313  69.086  1.00  0.00    -0.336 C  
BRANCH  13  14
HETATM   14  S   UNL     1     -10.601  10.419  69.816  1.00  0.00    -0.237 SA 
BRANCH  14  15
HETATM   15  C   UNL     1     -11.274   9.065  70.755  1.00  0.00    -0.275 C  
HETATM   16  N   UNL     1     -12.556   8.960  70.712  1.00  0.00    -0.487 N  
HETATM   17  H   UNL     1     -13.119   9.538  70.088  1.00  0.00     0.000 HD 
HETATM   18  C   UNL     1      -9.006   8.484  71.768  1.00  0.00    -0.220 C  
HETATM   19  C   UNL     1     -13.132   8.027  71.549  1.00  0.00    -0.296 C  
HETATM   20  N   UNL     1     -10.427   8.284  71.547  1.00  0.00    -0.215 NA 
HETATM   21  C   UNL     1     -12.311   6.890  72.155  1.00  0.00    -0.192 C  
HETATM   22  O   UNL     1     -14.294   8.105  71.950  1.00  0.00    -0.425 OA 
HETATM   23  H   UNL     1     -10.409   6.712  72.968  1.00  0.00     0.000 HD 
HETATM   24  N   UNL     1     -10.990   7.226  72.306  1.00  0.00    -0.238 N  
HETATM   25  O   UNL     1     -12.783   5.824  72.515  1.00  0.00     0.032 OA 
ENDBRANCH  14  15
ENDBRANCH  13  14
ENDBRANCH   4  13
BRANCH   6  26
HETATM   26  N   UNL     1      -8.406  15.670  66.326  1.00  0.00    -0.365 N  
HETATM   27  O   UNL     1      -6.164  15.922  66.635  1.00  0.00    -0.144 OA 
HETATM   28  C   UNL     1      -7.301  16.213  67.002  1.00  0.00    -0.231 C  
HETATM   29  H   UNL     1      -8.137  15.011  65.595  1.00  0.00     0.000 HD 
BRANCH  28  30
HETATM   30  C   UNL     1      -7.439  16.988  68.284  1.00  0.00    -0.207 C  
BRANCH  30  31
HETATM   31  C   UNL     1      -7.276  18.443  68.401  1.00  0.00    -0.268 A  
HETATM   32  H2  UNL     1      -5.369  22.069  69.636  1.00  0.00     0.000 HD 
HETATM   33  C   UNL     1      -7.513  19.288  67.329  1.00  0.00    -0.231 A  
HETATM   34  H1  UNL     1      -5.243  20.802  70.858  1.00  0.00     0.000 HD 
HETATM   35  N   UNL     1      -6.558  19.048  69.446  1.00  0.00    -0.302 NA 
HETATM   36  N   UNL     1      -5.576  21.119  69.947  1.00  0.00    -0.411 NA 
HETATM   37  S   UNL     1      -6.843  20.834  67.619  1.00  0.00    -0.323 SA 
HETATM   38  C   UNL     1      -6.282  20.299  69.154  1.00  0.00    -0.327 A  
ENDBRANCH  30  31
BRANCH  30  39
HETATM   39  N   UNL     1      -7.495  16.429  69.447  1.00  0.00    -0.196 NA 
HETATM   40  H   UNL     1      -7.804  16.982  70.247  1.00  0.00     0.000 HD 
BRANCH  39  41
HETATM   41  O   UNL     1      -7.144  15.093  69.643  1.00  0.00    -0.177 OA 
HETATM   42  C   UNL     1      -5.905  14.713  70.208  1.00  0.00    -0.146 C  
ENDBRANCH  39  41
ENDBRANCH  30  39
ENDBRANCH  28  30
ENDBRANCH   6  26
TORSDOF 8
ENDMDL
MODEL      156
REMARK 921   NORMALIZED FREE ENERGY PREDICTED BY IDOCK:   -5.79 KCAL/MOL
REMARK 922        TOTAL FREE ENERGY PREDICTED BY IDOCK:   -9.76 KCAL/MOL
REMARK 923 INTER-LIGAND FREE ENERGY PREDICTED BY IDOCK:   -8.75 KCAL/MOL
REMARK 924 INTRA-LIGAND FREE ENERGY PREDICTED BY IDOCK:   -1.01 KCAL/MOL
REMARK 927      BINDING AFFINITY PREDICTED BY RF-SCORE:    0.00 PKD
ROOT
HETATM    1  C   UNL     1      -9.040   9.560  66.148  1.00  0.00    -0.166 C  
HETATM    2  S   UNL     1      -8.835  10.083  64.468  1.00  0.00    -0.225 SA 
HETATM    3  C   UNL     1     -10.096  11.393  64.252  1.00  0.00    -0.297 C  
HETATM    4  C   UNL     1     -10.931  11.813  65.428  1.00  0.00    -0.352 C  
HETATM    5  CA  UNL     1     -10.846  11.252  66.672  1.00  0.00    -0.273 C  
HETATM    6  CA  UNL     1      -9.423   8.161  66.796  1.00  0.00    -0.198 C  
HETATM    7  C   UNL     1     -10.184   9.091  67.791  1.00  0.00    -0.230 C  
HETATM    8  N   UNL     1     -10.090  10.140  66.932  1.00  0.00    -0.213 N  
HETATM    9  C   UNL     1     -11.621  11.871  67.805  1.00  0.00    -0.323 C  
HETATM   10  O   UNL     1     -10.853   8.882  68.774  1.00  0.00    -0.135 OA 
HETATM   11  O   UNL     1     -12.178  11.043  68.711  1.00  0.00    -0.546 OA 
HETATM   12  OXT UNL     1     -11.736  13.080  67.930  1.00  0.00    -0.322 OA 
ENDROOT
BRANCH   4  13
HETATM   13  C   UNL     1     -12.000  12.910  65.135  1.00  0.00    -0.414 C  
BRANCH  13  14
HETATM   14  S   UNL     1     -11.493  14.559  64.502  1.00  0.00    -0.305 SA 
BRANCH  14  15
HETATM   15  C   UNL     1     -10.111  15.082  65.494  1.00  0.00    -0.369 C  
HETATM   16  N   UNL     1      -9.432  14.125  66.024  1.00  0.00    -0.502 N  
HETATM   17  H   UNL     1      -9.609  13.149  65.788  1.00  0.00     0.000 HD 
HETATM   18  C   UNL     1     -10.753  17.543  65.304  1.00  0.00     0.086 C  
HETATM   19  C   UNL     1      -8.452  14.485  66.926  1.00  0.00    -0.150 C  
HETATM   20  N   UNL     1      -9.904  16.444  65.729  1.00  0.00    -0.492 NA 
HETATM   21  C   UNL     1      -7.896  15.907  66.971  1.00  0.00    -0.232 C  
HETATM   22  O   UNL     1      -8.044  13.735  67.814  1.00  0.00    -0.147 OA 
HETATM   23  H   UNL     1      -8.703  17.813  66.812  1.00  0.00     0.000 HD 
HETATM   24  N   UNL     1      -8.811  16.835  66.543  1.00  0.00    -0.255 N  
HETATM   25  O   UNL     1      -6.787  16.194  67.389  1.00  0.00    -0.148 OA 
ENDBRANCH  14  15
ENDBRANCH  13  14
ENDBRANCH   4  13
BRANCH   6  26
HETATM   26  N   UNL     1     -10.290   6.969  66.364  1.00  0.00    -0.477 N  
HETATM   27  O   UNL     1     -11.142   4.867  66.157  1.00  0.00    -0.109 OA 
HETATM   28  C   UNL     1     -10.364   5.618  66.742  1.00  0.00    -0.262 C  
HETATM   29  H   UNL     1     -10.964   7.213  65.639  1.00  0.00     0.000 HD 
BRANCH  28  30
HETATM   30  C   UNL     1      -9.674   5.083  67.968  1.00  0.00    -0.151 C  
BRANCH  30  31
HETATM   31  C   UNL     1      -9.661   5.751  69.276  1.00  0.00    -0.139 A  
HETATM   32  H2  UNL     1     -10.966   6.520  73.278  1.00  0.00     0.000 HD 
HETATM   33  C   UNL     1      -8.474   6.044  69.928  1.00  0.00    -0.130 A  
HETATM   34  H1  UNL     1     -12.311   6.141  72.201  1.00  0.00     0.000 HD 
HETATM   35  N   UNL     1     -10.792   5.825  70.106  1.00  0.00    -0.319 NA 
HETATM   36  N   UNL     1     -11.312   6.285  72.347  1.00  0.00    -0.280 NA 
HETATM   37  S   UNL     1      -8.764   6.411  71.573  1.00  0.00    -0.133 SA 
HETATM   38  C   UNL     1     -10.448   6.168  71.327  1.00  0.00    -0.224 A  
ENDBRANCH  30  31
BRANCH  30  39
HETATM   39  N   UNL     1      -8.838   4.099  67.937  1.00  0.00    -0.107 NA 
HETATM   40  H   UNL     1      -7.872   4.279  67.663  1.00  0.00     0.000 HD 
BRANCH  39  41
HETATM   41  O   UNL     1      -9.215   2.797  68.269  1.00  0.00    -0.160 OA 
HETATM   42  C   UNL     1      -8.312   1.873  68.843  1.00  0.00    -0.052 C  
ENDBRANCH  39  41
ENDBRANCH  30  39
ENDBRANCH  28  30
ENDBRANCH   6  26
TORSDOF 8
ENDMDL
MODEL      157
REMARK 921   NORMALIZED FREE ENERGY PREDICTED BY IDOCK:   -5.78 KCAL/MOL
REMARK 922        TOTAL FREE ENERGY PREDICTED BY IDOCK:   -9.74 KCAL/MOL
REMARK 923 INTER-LIGAND FREE ENERGY PREDICTED BY IDOCK:   -8.66 KCAL/MOL
REMARK 924 INTRA-LIGAND FREE ENERGY PREDICTED BY IDOCK:   -1.08 KCAL/MOL
REMARK 927      BINDING AFFINITY PREDICTED BY RF-SCORE:    0.00 PKD
ROOT
HETATM    1  C   UNL     1      -9.414  11.520  68.301  1.00  0.00    -0.189 C  
HETATM    2  S   UNL     1      -7.670  11.701  68.553  1.00  0.00    -0.133 SA 
HETATM    3  C   UNL     1      -7.385  13.505  68.416  1.00  0.00    -0.115 C  
HETATM    4  C   UNL     1      -8.557  14.425  68.223  1.00  0.00    -0.170 C  
HETATM    5  CA  UNL     1      -9.853  14.003  68.103  1.00  0.00    -0.235 C  
HETATM    6  CA  UNL     1     -10.263  10.745  67.204  1.00  0.00    -0.213 C  
HETATM    7  C   UNL     1     -11.186  11.992  67.370  1.00  0.00    -0.307 C  
HETATM    8  N   UNL     1     -10.195  12.682  67.994  1.00  0.00    -0.224 N  
HETATM    9  C   UNL     1     -10.954  15.031  68.078  1.00  0.00    -0.284 C  
HETATM   10  O   UNL     1     -12.236  12.318  66.872  1.00  0.00    -0.530 OA 
HETATM   11  O   UNL     1     -11.998  14.814  67.255  1.00  0.00    -0.362 OA 
HETATM   12  OXT UNL     1     -10.931  16.026  68.787  1.00  0.00    -0.280 OA 
ENDROOT
BRANCH   4  13
HETATM   13  C   UNL     1      -8.210  15.938  68.083  1.00  0.00    -0.149 C  
BRANCH  13  14
HETATM   14  S   UNL     1      -6.472  16.474  67.825  1.00  0.00    -0.156 SA 
BRANCH  14  15
HETATM   15  C   UNL     1      -6.213  17.884  68.881  1.00  0.00    -0.214 C  
HETATM   16  N   UNL     1      -5.494  17.654  69.924  1.00  0.00    -0.216 N  
HETATM   17  H   UNL     1      -5.017  16.763  70.060  1.00  0.00     0.000 HD 
HETATM   18  C   UNL     1      -7.825  19.336  67.540  1.00  0.00    -0.254 C  
HETATM   19  C   UNL     1      -5.400  18.672  70.851  1.00  0.00    -0.248 C  
HETATM   20  N   UNL     1      -6.862  19.089  68.599  1.00  0.00    -0.269 NA 
HETATM   21  C   UNL     1      -5.738  20.115  70.481  1.00  0.00    -0.325 C  
HETATM   22  O   UNL     1      -5.152  18.481  72.041  1.00  0.00    -0.753 OA 
HETATM   23  H   UNL     1      -7.204  21.043  69.342  1.00  0.00     0.000 HD 
HETATM   24  N   UNL     1      -6.660  20.190  69.469  1.00  0.00    -0.295 N  
HETATM   25  O   UNL     1      -5.283  21.092  71.055  1.00  0.00    -0.516 OA 
ENDBRANCH  14  15
ENDBRANCH  13  14
ENDBRANCH   4  13
BRANCH   6  26
HETATM   26  N   UNL     1     -10.056  10.391  65.725  1.00  0.00    -0.264 N  
HETATM   27  O   UNL     1      -9.221   9.500  63.802  1.00  0.00    -0.209 OA 
HETATM   28  C   UNL     1      -9.196   9.524  65.031  1.00  0.00    -0.236 C  
HETATM   29  H   UNL     1     -10.684  10.901  65.105  1.00  0.00     0.000 HD 
BRANCH  28  30
HETATM   30  C   UNL     1      -8.374   8.473  65.728  1.00  0.00    -0.140 C  
BRANCH  30  31
HETATM   31  C   UNL     1      -8.931   7.325  66.455  1.00  0.00    -0.158 A  
HETATM   32  H2  UNL     1     -11.649   5.310  69.075  1.00  0.00     0.000 HD 
HETATM   33  C   UNL     1      -9.059   6.081  65.857  1.00  0.00    -0.102 A  
HETATM   34  H1  UNL     1     -11.279   6.944  69.629  1.00  0.00     0.000 HD 
HETATM   35  N   UNL     1      -9.677   7.459  67.638  1.00  0.00    -0.140 NA 
HETATM   36  N   UNL     1     -11.149   6.191  68.953  1.00  0.00    -0.369 NA 
HETATM   37  S   UNL     1     -10.107   5.080  66.765  1.00  0.00    -0.250 SA 
HETATM   38  C   UNL     1     -10.327   6.349  67.904  1.00  0.00    -0.190 A  
ENDBRANCH  30  31
BRANCH  30  39
HETATM   39  N   UNL     1      -7.107   8.595  65.948  1.00  0.00    -0.075 NA 
HETATM   40  H   UNL     1      -6.789   9.263  66.650  1.00  0.00     0.000 HD 
BRANCH  39  41
HETATM   41  O   UNL     1      -6.160   7.840  65.255  1.00  0.00    -0.038 OA 
HETATM   42  C   UNL     1      -5.658   8.235  63.993  1.00  0.00    -0.056 C  
ENDBRANCH  39  41
ENDBRANCH  30  39
ENDBRANCH  28  30
ENDBRANCH   6  26
TORSDOF 8
ENDMDL
MODEL      158
REMARK 921   NORMALIZED FREE ENERGY PREDICTED BY IDOCK:   -5.78 KCAL/MOL
REMARK 922        TOTAL FREE ENERGY PREDICTED BY IDOCK:   -9.74 KCAL/MOL
REMARK 923 INTER-LIGAND FREE ENERGY PREDICTED BY IDOCK:   -8.50 KCAL/MOL
REMARK 924 INTRA-LIGAND FREE ENERGY PREDICTED BY IDOCK:   -1.24 KCAL/MOL
REMARK 927      BINDING AFFINITY PREDICTED BY RF-SCORE:    0.00 PKD
ROOT
HETATM    1  C   UNL     1      -8.073  10.530  64.969  1.00  0.00    -0.096 C  
HETATM    2  S   UNL     1      -8.285  11.086  66.638  1.00  0.00    -0.157 SA 
HETATM    3  C   UNL     1      -8.449   9.539  67.605  1.00  0.00    -0.122 C  
HETATM    4  C   UNL     1      -8.304   8.216  66.909  1.00  0.00    -0.115 C  
HETATM    5  CA  UNL     1      -8.089   8.072  65.566  1.00  0.00    -0.128 C  
HETATM    6  CA  UNL     1      -8.926  10.758  63.648  1.00  0.00    -0.171 C  
HETATM    7  C   UNL     1      -8.493   9.282  63.390  1.00  0.00    -0.202 C  
HETATM    8  N   UNL     1      -8.136   9.125  64.692  1.00  0.00    -0.128 N  
HETATM    9  C   UNL     1      -7.799   6.700  65.017  1.00  0.00    -0.113 C  
HETATM   10  O   UNL     1      -8.690   8.506  62.486  1.00  0.00    -0.158 OA 
HETATM   11  O   UNL     1      -8.323   6.379  63.818  1.00  0.00    -0.014 OA 
HETATM   12  OXT UNL     1      -7.098   5.897  65.613  1.00  0.00    -0.066 OA 
ENDROOT
BRANCH   4  13
HETATM   13  C   UNL     1      -8.495   6.958  67.810  1.00  0.00    -0.123 C  
BRANCH  13  14
HETATM   14  S   UNL     1      -8.277   7.074  69.631  1.00  0.00    -0.133 SA 
BRANCH  14  15
HETATM   15  C   UNL     1      -9.911   7.164  70.333  1.00  0.00    -0.176 C  
HETATM   16  N   UNL     1     -10.517   8.284  70.152  1.00  0.00    -0.220 N  
HETATM   17  H   UNL     1     -10.131   9.011  69.550  1.00  0.00     0.000 HD 
HETATM   18  C   UNL     1      -9.669   4.901  71.486  1.00  0.00    -0.172 C  
HETATM   19  C   UNL     1     -11.717   8.455  70.813  1.00  0.00    -0.202 C  
HETATM   20  N   UNL     1     -10.391   6.102  71.105  1.00  0.00    -0.202 NA 
HETATM   21  C   UNL     1     -12.501   7.262  71.357  1.00  0.00    -0.383 C  
HETATM   22  O   UNL     1     -12.176   9.560  71.105  1.00  0.00    -0.308 OA 
HETATM   23  H   UNL     1     -12.012   5.492  72.325  1.00  0.00     0.000 HD 
HETATM   24  N   UNL     1     -11.686   6.207  71.675  1.00  0.00    -0.274 N  
HETATM   25  O   UNL     1     -13.707   7.264  71.541  1.00  0.00    -0.390 OA 
ENDBRANCH  14  15
ENDBRANCH  13  14
ENDBRANCH   4  13
BRANCH   6  26
HETATM   26  N   UNL     1     -10.416  10.970  63.343  1.00  0.00    -0.608 N  
HETATM   27  O   UNL     1     -12.549  11.766  63.388  1.00  0.00    -0.558 OA 
HETATM   28  C   UNL     1     -11.387  11.890  63.771  1.00  0.00    -0.448 C  
HETATM   29  H   UNL     1     -10.784  10.287  62.681  1.00  0.00     0.000 HD 
BRANCH  28  30
HETATM   30  C   UNL     1     -11.035  13.144  64.525  1.00  0.00    -0.372 C  
BRANCH  30  31
HETATM   31  C   UNL     1     -10.954  13.242  65.988  1.00  0.00    -0.279 A  
HETATM   32  H2  UNL     1      -9.985  15.082  69.728  1.00  0.00     0.000 HD 
HETATM   33  C   UNL     1     -12.003  12.842  66.800  1.00  0.00    -0.319 A  
HETATM   34  H1  UNL     1      -8.772  15.411  68.491  1.00  0.00     0.000 HD 
HETATM   35  N   UNL     1     -10.005  14.040  66.647  1.00  0.00    -0.270 NA 
HETATM   36  N   UNL     1      -9.642  14.962  68.774  1.00  0.00    -0.210 NA 
HETATM   37  S   UNL     1     -11.809  13.458  68.383  1.00  0.00    -0.345 SA 
HETATM   38  C   UNL     1     -10.341  14.215  67.905  1.00  0.00    -0.234 A  
ENDBRANCH  30  31
BRANCH  30  39
HETATM   39  N   UNL     1     -10.987  14.312  63.975  1.00  0.00    -0.397 NA 
HETATM   40  H   UNL     1     -10.346  14.466  63.197  1.00  0.00     0.000 HD 
BRANCH  39  41
HETATM   41  O   UNL     1     -11.786  15.368  64.412  1.00  0.00    -0.387 OA 
HETATM   42  C   UNL     1     -11.266  16.664  64.638  1.00  0.00    -0.015 C  
ENDBRANCH  39  41
ENDBRANCH  30  39
ENDBRANCH  28  30
ENDBRANCH   6  26
TORSDOF 8
ENDMDL
MODEL      159
REMARK 921   NORMALIZED FREE ENERGY PREDICTED BY IDOCK:   -5.77 KCAL/MOL
REMARK 922        TOTAL FREE ENERGY PREDICTED BY IDOCK:   -9.73 KCAL/MOL
REMARK 923 INTER-LIGAND FREE ENERGY PREDICTED BY IDOCK:   -7.82 KCAL/MOL
REMARK 924 INTRA-LIGAND FREE ENERGY PREDICTED BY IDOCK:   -1.91 KCAL/MOL
REMARK 927      BINDING AFFINITY PREDICTED BY RF-SCORE:    0.00 PKD
ROOT
HETATM    1  C   UNL     1      -8.506   8.459  68.699  1.00  0.00    -0.128 C  
HETATM    2  S   UNL     1      -9.970   7.864  67.897  1.00  0.00    -0.188 SA 
HETATM    3  C   UNL     1     -10.754   9.375  67.222  1.00  0.00    -0.188 C  
HETATM    4  C   UNL     1     -10.056  10.697  67.370  1.00  0.00    -0.231 C  
HETATM    5  CA  UNL     1      -8.864  10.869  68.020  1.00  0.00    -0.135 C  
HETATM    6  CA  UNL     1      -8.013   8.402  70.208  1.00  0.00    -0.102 C  
HETATM    7  C   UNL     1      -7.471   9.819  69.842  1.00  0.00    -0.141 C  
HETATM    8  N   UNL     1      -8.261   9.870  68.736  1.00  0.00    -0.109 N  
HETATM    9  C   UNL     1      -8.189  12.214  67.959  1.00  0.00    -0.158 C  
HETATM   10  O   UNL     1      -6.848  10.653  70.455  1.00  0.00    -0.280 OA 
HETATM   11  O   UNL     1      -7.561  12.652  69.067  1.00  0.00    -0.004 OA 
HETATM   12  OXT UNL     1      -8.181  12.891  66.942  1.00  0.00    -0.124 OA 
ENDROOT
BRANCH   4  13
HETATM   13  C   UNL     1     -10.818  11.928  66.794  1.00  0.00    -0.266 C  
BRANCH  13  14
HETATM   14  S   UNL     1     -11.827  12.999  67.896  1.00  0.00    -0.307 SA 
BRANCH  14  15
HETATM   15  C   UNL     1     -11.288  14.671  67.612  1.00  0.00    -0.336 C  
HETATM   16  N   UNL     1     -10.710  14.869  66.478  1.00  0.00    -0.303 N  
HETATM   17  H   UNL     1     -10.679  14.146  65.760  1.00  0.00     0.000 HD 
HETATM   18  C   UNL     1     -11.886  15.394  69.983  1.00  0.00    -0.343 C  
HETATM   19  C   UNL     1     -10.136  16.108  66.281  1.00  0.00    -0.321 C  
HETATM   20  N   UNL     1     -11.412  15.621  68.630  1.00  0.00    -0.359 NA 
HETATM   21  C   UNL     1     -10.528  17.310  67.138  1.00  0.00    -0.297 C  
HETATM   22  O   UNL     1      -9.207  16.305  65.497  1.00  0.00    -0.402 OA 
HETATM   23  H   UNL     1     -10.938  17.619  69.150  1.00  0.00     0.000 HD 
HETATM   24  N   UNL     1     -10.953  16.941  68.389  1.00  0.00    -0.342 N  
HETATM   25  O   UNL     1     -10.425  18.471  66.775  1.00  0.00    -0.379 OA 
ENDBRANCH  14  15
ENDBRANCH  13  14
ENDBRANCH   4  13
BRANCH   6  26
HETATM   26  N   UNL     1      -8.710   8.403  71.576  1.00  0.00    -0.159 N  
HETATM   27  O   UNL     1     -10.129   7.915  73.290  1.00  0.00    -0.313 OA 
HETATM   28  C   UNL     1      -9.724   7.629  72.165  1.00  0.00    -0.173 C  
HETATM   29  H   UNL     1      -8.358   9.130  72.198  1.00  0.00     0.000 HD 
BRANCH  28  30
HETATM   30  C   UNL     1     -10.208   6.338  71.561  1.00  0.00    -0.200 C  
BRANCH  30  31
HETATM   31  C   UNL     1      -9.401   5.116  71.447  1.00  0.00    -0.148 A  
HETATM   32  H2  UNL     1      -6.121   2.510  72.318  1.00  0.00     0.000 HD 
HETATM   33  C   UNL     1      -9.989   3.863  71.387  1.00  0.00    -0.127 A  
HETATM   34  H1  UNL     1      -5.636   4.206  72.300  1.00  0.00     0.000 HD 
HETATM   35  N   UNL     1      -8.027   5.079  71.735  1.00  0.00    -0.108 NA 
HETATM   36  N   UNL     1      -6.358   3.494  72.189  1.00  0.00    -0.014 NA 
HETATM   37  S   UNL     1      -8.834   2.639  71.690  1.00  0.00    -0.080 SA 
HETATM   38  C   UNL     1      -7.616   3.839  71.876  1.00  0.00    -0.058 A  
ENDBRANCH  30  31
BRANCH  30  39
HETATM   39  N   UNL     1     -11.302   6.241  70.881  1.00  0.00    -0.326 NA 
HETATM   40  H   UNL     1     -11.486   5.383  70.361  1.00  0.00     0.000 HD 
BRANCH  39  41
HETATM   41  O   UNL     1     -12.239   7.273  70.835  1.00  0.00    -0.320 OA 
HETATM   42  C   UNL     1     -13.423   7.252  71.608  1.00  0.00    -0.354 C  
ENDBRANCH  39  41
ENDBRANCH  30  39
ENDBRANCH  28  30
ENDBRANCH   6  26
TORSDOF 8
ENDMDL
MODEL      160
REMARK 921   NORMALIZED FREE ENERGY PREDICTED BY IDOCK:   -5.77 KCAL/MOL
REMARK 922        TOTAL FREE ENERGY PREDICTED BY IDOCK:   -9.72 KCAL/MOL
REMARK 923 INTER-LIGAND FREE ENERGY PREDICTED BY IDOCK:   -8.40 KCAL/MOL
REMARK 924 INTRA-LIGAND FREE ENERGY PREDICTED BY IDOCK:   -1.32 KCAL/MOL
REMARK 927      BINDING AFFINITY PREDICTED BY RF-SCORE:    0.00 PKD
ROOT
HETATM    1  C   UNL     1     -10.069  12.447  67.935  1.00  0.00    -0.208 C  
HETATM    2  S   UNL     1     -11.262  11.175  67.615  1.00  0.00    -0.288 SA 
HETATM    3  C   UNL     1     -10.283   9.829  66.851  1.00  0.00    -0.245 C  
HETATM    4  C   UNL     1      -8.794   9.981  66.722  1.00  0.00    -0.144 C  
HETATM    5  CA  UNL     1      -8.098  11.093  67.110  1.00  0.00    -0.138 C  
HETATM    6  CA  UNL     1      -9.935  13.943  67.420  1.00  0.00    -0.240 C  
HETATM    7  C   UNL     1      -8.420  13.572  67.445  1.00  0.00    -0.200 C  
HETATM    8  N   UNL     1      -8.713  12.247  67.517  1.00  0.00    -0.167 N  
HETATM    9  C   UNL     1      -6.593  11.058  67.079  1.00  0.00    -0.100 C  
HETATM   10  O   UNL     1      -7.412  14.185  67.188  1.00  0.00    -0.106 OA 
HETATM   11  O   UNL     1      -5.946  12.176  66.694  1.00  0.00    -0.226 OA 
HETATM   12  OXT UNL     1      -5.959  10.067  67.407  1.00  0.00    -0.053 OA 
ENDROOT
BRANCH   4  13
HETATM   13  C   UNL     1      -8.055   8.798  66.027  1.00  0.00    -0.112 C  
BRANCH  13  14
HETATM   14  S   UNL     1      -7.816   7.203  66.907  1.00  0.00    -0.109 SA 
BRANCH  14  15
HETATM   15  C   UNL     1      -8.656   5.962  65.946  1.00  0.00    -0.145 C  
HETATM   16  N   UNL     1      -8.055   5.620  64.860  1.00  0.00    -0.121 N  
HETATM   17  H   UNL     1      -7.116   5.951  64.641  1.00  0.00     0.000 HD 
HETATM   18  C   UNL     1     -10.712   6.013  67.455  1.00  0.00    -0.310 C  
HETATM   19  C   UNL     1      -8.743   4.781  64.007  1.00  0.00    -0.138 C  
HETATM   20  N   UNL     1      -9.922   5.519  66.342  1.00  0.00    -0.171 NA 
HETATM   21  C   UNL     1      -9.932   3.955  64.494  1.00  0.00    -0.202 C  
HETATM   22  O   UNL     1      -8.527   4.725  62.796  1.00  0.00    -0.099 OA 
HETATM   23  H   UNL     1     -11.545   4.289  65.757  1.00  0.00     0.000 HD 
HETATM   24  N   UNL     1     -10.581   4.548  65.546  1.00  0.00    -0.252 N  
HETATM   25  O   UNL     1     -10.298   2.913  63.974  1.00  0.00    -0.162 OA 
ENDBRANCH  14  15
ENDBRANCH  13  14
ENDBRANCH   4  13
BRANCH   6  26
HETATM   26  N   UNL     1     -10.313  14.682  66.128  1.00  0.00    -0.289 N  
HETATM   27  O   UNL     1     -10.895  16.317  64.654  1.00  0.00    -0.687 OA 
HETATM   28  C   UNL     1     -10.534  16.028  65.793  1.00  0.00    -0.374 C  
HETATM   29  H   UNL     1     -10.430  14.054  65.334  1.00  0.00     0.000 HD 
BRANCH  28  30
HETATM   30  C   UNL     1     -10.160  17.161  66.710  1.00  0.00    -0.303 C  
BRANCH  30  31
HETATM   31  C   UNL     1      -8.922  17.944  66.608  1.00  0.00    -0.268 A  
HETATM   32  H2  UNL     1      -5.101  19.011  65.005  1.00  0.00     0.000 HD 
HETATM   33  C   UNL     1      -8.926  19.325  66.715  1.00  0.00    -0.327 A  
HETATM   34  H1  UNL     1      -5.352  17.265  65.017  1.00  0.00     0.000 HD 
HETATM   35  N   UNL     1      -7.735  17.425  66.065  1.00  0.00    -0.494 NA 
HETATM   36  N   UNL     1      -5.687  18.206  65.226  1.00  0.00    -0.147 NA 
HETATM   37  S   UNL     1      -7.456  19.979  66.139  1.00  0.00    -0.286 SA 
HETATM   38  C   UNL     1      -6.891  18.394  65.787  1.00  0.00    -0.275 A  
ENDBRANCH  30  31
BRANCH  30  39
HETATM   39  N   UNL     1     -10.783  17.414  67.814  1.00  0.00    -0.365 NA 
HETATM   40  H   UNL     1     -11.643  17.961  67.782  1.00  0.00     0.000 HD 
BRANCH  39  41
HETATM   41  O   UNL     1     -10.314  16.961  69.047  1.00  0.00    -0.297 OA 
HETATM   42  C   UNL     1     -11.114  16.185  69.919  1.00  0.00    -0.357 C  
ENDBRANCH  39  41
ENDBRANCH  30  39
ENDBRANCH  28  30
ENDBRANCH   6  26
TORSDOF 8
ENDMDL
MODEL      161
REMARK 921   NORMALIZED FREE ENERGY PREDICTED BY IDOCK:   -5.75 KCAL/MOL
REMARK 922        TOTAL FREE ENERGY PREDICTED BY IDOCK:   -9.70 KCAL/MOL
REMARK 923 INTER-LIGAND FREE ENERGY PREDICTED BY IDOCK:   -8.34 KCAL/MOL
REMARK 924 INTRA-LIGAND FREE ENERGY PREDICTED BY IDOCK:   -1.36 KCAL/MOL
REMARK 927      BINDING AFFINITY PREDICTED BY RF-SCORE:    0.00 PKD
ROOT
HETATM    1  C   UNL     1     -10.377   8.475  67.344  1.00  0.00    -0.286 C  
HETATM    2  S   UNL     1      -9.071   7.358  66.914  1.00  0.00    -0.148 SA 
HETATM    3  C   UNL     1      -8.351   6.872  68.526  1.00  0.00    -0.121 C  
HETATM    4  C   UNL     1      -8.976   7.378  69.796  1.00  0.00    -0.141 C  
HETATM    5  CA  UNL     1     -10.049   8.225  69.840  1.00  0.00    -0.195 C  
HETATM    6  CA  UNL     1     -10.637  10.004  66.996  1.00  0.00    -0.212 C  
HETATM    7  C   UNL     1     -11.183  10.005  68.458  1.00  0.00    -0.123 C  
HETATM    8  N   UNL     1     -10.568   8.821  68.722  1.00  0.00    -0.186 N  
HETATM    9  C   UNL     1     -10.683   8.529  71.172  1.00  0.00    -0.234 C  
HETATM   10  O   UNL     1     -11.678  10.855  69.158  1.00  0.00    -0.292 OA 
HETATM   11  O   UNL     1     -11.121   9.785  71.388  1.00  0.00    -0.359 OA 
HETATM   12  OXT UNL     1     -10.823   7.675  72.035  1.00  0.00    -0.223 OA 
ENDROOT
BRANCH   4  13
HETATM   13  C   UNL     1      -8.270   6.938  71.114  1.00  0.00    -0.118 C  
BRANCH  13  14
HETATM   14  S   UNL     1      -7.600   5.237  71.290  1.00  0.00    -0.103 SA 
BRANCH  14  15
HETATM   15  C   UNL     1      -8.847   4.284  72.130  1.00  0.00    -0.112 C  
HETATM   16  N   UNL     1     -10.028   4.795  72.104  1.00  0.00    -0.172 N  
HETATM   17  H   UNL     1     -10.243   5.618  71.541  1.00  0.00     0.000 HD 
HETATM   18  C   UNL     1      -7.136   2.629  73.046  1.00  0.00    -0.032 C  
HETATM   19  C   UNL     1     -10.991   4.175  72.874  1.00  0.00    -0.086 C  
HETATM   20  N   UNL     1      -8.480   3.135  72.838  1.00  0.00    -0.079 NA 
HETATM   21  C   UNL     1     -10.809   2.741  73.369  1.00  0.00    -0.192 C  
HETATM   22  O   UNL     1     -11.989   4.754  73.303  1.00  0.00    -0.194 OA 
HETATM   23  H   UNL     1      -9.228   1.629  74.126  1.00  0.00     0.000 HD 
HETATM   24  N   UNL     1      -9.488   2.407  73.520  1.00  0.00    -0.083 N  
HETATM   25  O   UNL     1     -11.732   1.994  73.651  1.00  0.00    -0.218 OA 
ENDBRANCH  14  15
ENDBRANCH  13  14
ENDBRANCH   4  13
BRANCH   6  26
HETATM   26  N   UNL     1      -9.741  11.221  66.729  1.00  0.00    -0.191 N  
HETATM   27  O   UNL     1      -9.032  13.323  66.213  1.00  0.00    -0.057 OA 
HETATM   28  C   UNL     1      -9.980  12.577  66.450  1.00  0.00    -0.252 C  
HETATM   29  H   UNL     1      -8.747  10.994  66.761  1.00  0.00     0.000 HD 
BRANCH  28  30
HETATM   30  C   UNL     1     -11.335  13.209  66.618  1.00  0.00    -0.325 C  
BRANCH  30  31
HETATM   31  C   UNL     1     -11.707  14.106  67.719  1.00  0.00    -0.373 A  
HETATM   32  H2  UNL     1     -12.281  15.239  71.806  1.00  0.00     0.000 HD 
HETATM   33  C   UNL     1     -11.358  15.447  67.711  1.00  0.00    -0.306 A  
HETATM   34  H1  UNL     1     -12.690  13.546  71.521  1.00  0.00     0.000 HD 
HETATM   35  N   UNL     1     -12.114  13.638  68.980  1.00  0.00    -0.340 NA 
HETATM   36  N   UNL     1     -12.372  14.448  71.167  1.00  0.00    -0.337 NA 
HETATM   37  S   UNL     1     -11.535  16.125  69.271  1.00  0.00    -0.262 SA 
HETATM   38  C   UNL     1     -12.072  14.605  69.868  1.00  0.00    -0.335 A  
ENDBRANCH  30  31
BRANCH  30  39
HETATM   39  N   UNL     1     -12.373  12.852  65.936  1.00  0.00    -0.540 NA 
HETATM   40  H   UNL     1     -12.924  12.055  66.255  1.00  0.00     0.000 HD 
BRANCH  39  41
HETATM   41  O   UNL     1     -12.763  13.522  64.776  1.00  0.00    -0.639 OA 
HETATM   42  C   UNL     1     -12.225  13.208  63.506  1.00  0.00    -0.476 C  
ENDBRANCH  39  41
ENDBRANCH  30  39
ENDBRANCH  28  30
ENDBRANCH   6  26
TORSDOF 8
ENDMDL
MODEL      162
REMARK 921   NORMALIZED FREE ENERGY PREDICTED BY IDOCK:   -5.74 KCAL/MOL
REMARK 922        TOTAL FREE ENERGY PREDICTED BY IDOCK:   -9.69 KCAL/MOL
REMARK 923 INTER-LIGAND FREE ENERGY PREDICTED BY IDOCK:   -8.09 KCAL/MOL
REMARK 924 INTRA-LIGAND FREE ENERGY PREDICTED BY IDOCK:   -1.60 KCAL/MOL
REMARK 927      BINDING AFFINITY PREDICTED BY RF-SCORE:    0.00 PKD
ROOT
HETATM    1  C   UNL     1     -11.727   8.756  70.978  1.00  0.00    -0.282 C  
HETATM    2  S   UNL     1     -12.588  10.203  71.530  1.00  0.00    -0.460 SA 
HETATM    3  C   UNL     1     -12.106  11.495  70.324  1.00  0.00    -0.359 C  
HETATM    4  C   UNL     1     -11.234  11.127  69.157  1.00  0.00    -0.328 C  
HETATM    5  CA  UNL     1     -10.729   9.875  68.940  1.00  0.00    -0.221 C  
HETATM    6  CA  UNL     1     -10.630   7.835  71.665  1.00  0.00    -0.214 C  
HETATM    7  C   UNL     1     -10.086   7.788  70.203  1.00  0.00    -0.197 C  
HETATM    8  N   UNL     1     -10.844   8.861  69.853  1.00  0.00    -0.228 N  
HETATM    9  C   UNL     1     -10.005   9.595  67.649  1.00  0.00    -0.174 C  
HETATM   10  O   UNL     1      -9.148   7.232  69.685  1.00  0.00    -0.141 OA 
HETATM   11  O   UNL     1      -8.925   8.790  67.696  1.00  0.00    -0.134 OA 
HETATM   12  OXT UNL     1     -10.378  10.057  66.582  1.00  0.00    -0.234 OA 
ENDROOT
BRANCH   4  13
HETATM   13  C   UNL     1     -10.851  12.302  68.207  1.00  0.00    -0.225 C  
BRANCH  13  14
HETATM   14  S   UNL     1     -12.156  13.287  67.370  1.00  0.00    -0.204 SA 
BRANCH  14  15
HETATM   15  C   UNL     1     -11.403  14.828  66.892  1.00  0.00    -0.355 C  
HETATM   16  N   UNL     1     -11.022  15.571  67.872  1.00  0.00    -0.307 N  
HETATM   17  H   UNL     1     -11.046  15.239  68.836  1.00  0.00     0.000 HD 
HETATM   18  C   UNL     1     -11.944  14.466  64.426  1.00  0.00    -0.452 C  
HETATM   19  C   UNL     1     -10.580  16.839  67.555  1.00  0.00    -0.309 C  
HETATM   20  N   UNL     1     -11.361  15.189  65.543  1.00  0.00    -0.314 NA 
HETATM   21  C   UNL     1     -10.143  17.195  66.135  1.00  0.00    -0.305 C  
HETATM   22  O   UNL     1     -10.611  17.782  68.345  1.00  0.00    -0.357 OA 
HETATM   23  H   UNL     1     -10.832  16.761  64.225  1.00  0.00     0.000 HD 
HETATM   24  N   UNL     1     -10.778  16.432  65.189  1.00  0.00    -0.360 N  
HETATM   25  O   UNL     1      -9.360  18.092  65.866  1.00  0.00    -0.520 OA 
ENDBRANCH  14  15
ENDBRANCH  13  14
ENDBRANCH   4  13
BRANCH   6  26
HETATM   26  N   UNL     1      -9.500   8.069  72.678  1.00  0.00    -0.222 N  
HETATM   27  O   UNL     1      -7.826   7.717  74.182  1.00  0.00    -0.151 OA 
HETATM   28  C   UNL     1      -8.601   7.232  73.360  1.00  0.00    -0.141 C  
HETATM   29  H   UNL     1      -9.374   9.054  72.909  1.00  0.00     0.000 HD 
BRANCH  28  30
HETATM   30  C   UNL     1      -8.404   5.786  72.991  1.00  0.00    -0.118 C  
BRANCH  30  31
HETATM   31  C   UNL     1      -7.501   5.310  71.935  1.00  0.00    -0.096 A  
HETATM   32  H2  UNL     1      -6.474   3.429  68.232  1.00  0.00     0.000 HD 
HETATM   33  C   UNL     1      -6.434   6.076  71.495  1.00  0.00    -0.050 A  
HETATM   34  H1  UNL     1      -7.816   2.618  69.040  1.00  0.00     0.000 HD 
HETATM   35  N   UNL     1      -7.827   4.251  71.073  1.00  0.00    -0.066 NA 
HETATM   36  N   UNL     1      -7.113   3.357  69.024  1.00  0.00    -0.048 NA 
HETATM   37  S   UNL     1      -5.837   5.480  70.008  1.00  0.00    -0.021 SA 
HETATM   38  C   UNL     1      -7.021   4.235  70.035  1.00  0.00    -0.041 A  
ENDBRANCH  30  31
BRANCH  30  39
HETATM   39  N   UNL     1      -9.174   4.837  73.410  1.00  0.00    -0.114 NA 
HETATM   40  H   UNL     1      -8.818   3.882  73.423  1.00  0.00     0.000 HD 
BRANCH  39  41
HETATM   41  O   UNL     1     -10.477   5.080  73.845  1.00  0.00    -0.222 OA 
HETATM   42  C   UNL     1     -11.594   4.411  73.292  1.00  0.00    -0.119 C  
ENDBRANCH  39  41
ENDBRANCH  30  39
ENDBRANCH  28  30
ENDBRANCH   6  26
TORSDOF 8
ENDMDL
MODEL      163
REMARK 921   NORMALIZED FREE ENERGY PREDICTED BY IDOCK:   -5.74 KCAL/MOL
REMARK 922        TOTAL FREE ENERGY PREDICTED BY IDOCK:   -9.69 KCAL/MOL
REMARK 923 INTER-LIGAND FREE ENERGY PREDICTED BY IDOCK:   -8.66 KCAL/MOL
REMARK 924 INTRA-LIGAND FREE ENERGY PREDICTED BY IDOCK:   -1.03 KCAL/MOL
REMARK 927      BINDING AFFINITY PREDICTED BY RF-SCORE:    0.00 PKD
ROOT
HETATM    1  C   UNL     1     -10.926  11.712  69.450  1.00  0.00    -0.152 C  
HETATM    2  S   UNL     1     -12.065  10.788  70.445  1.00  0.00    -0.383 SA 
HETATM    3  C   UNL     1     -11.352   9.102  70.491  1.00  0.00    -0.257 C  
HETATM    4  C   UNL     1     -10.029   8.843  69.826  1.00  0.00    -0.196 C  
HETATM    5  CA  UNL     1      -9.315   9.787  69.141  1.00  0.00    -0.182 C  
HETATM    6  CA  UNL     1     -11.092  12.488  68.074  1.00  0.00    -0.245 C  
HETATM    7  C   UNL     1      -9.654  11.927  67.849  1.00  0.00    -0.193 C  
HETATM    8  N   UNL     1      -9.811  11.032  68.860  1.00  0.00    -0.194 N  
HETATM    9  C   UNL     1      -7.928   9.445  68.661  1.00  0.00    -0.092 C  
HETATM   10  O   UNL     1      -8.855  12.028  66.949  1.00  0.00    -0.186 OA 
HETATM   11  O   UNL     1      -7.545   9.917  67.459  1.00  0.00    -0.091 OA 
HETATM   12  OXT UNL     1      -7.154   8.781  69.332  1.00  0.00    -0.055 OA 
ENDROOT
BRANCH   4  13
HETATM   13  C   UNL     1      -9.522   7.370  69.889  1.00  0.00    -0.153 C  
BRANCH  13  14
HETATM   14  S   UNL     1     -10.680   5.973  69.601  1.00  0.00    -0.369 SA 
BRANCH  14  15
HETATM   15  C   UNL     1     -10.615   4.951  71.057  1.00  0.00    -0.015 C  
HETATM   16  N   UNL     1     -11.040   5.514  72.133  1.00  0.00    -0.235 N  
HETATM   17  H   UNL     1     -11.488   6.430  72.117  1.00  0.00     0.000 HD 
HETATM   18  C   UNL     1      -9.373   3.086  69.837  1.00  0.00    -0.151 C  
HETATM   19  C   UNL     1     -10.861   4.818  73.311  1.00  0.00    -0.281 C  
HETATM   20  N   UNL     1     -10.030   3.683  70.987  1.00  0.00    -0.105 NA 
HETATM   21  C   UNL     1     -10.594   3.314  73.312  1.00  0.00    -0.182 C  
HETATM   22  O   UNL     1     -10.792   5.362  74.414  1.00  0.00    -0.255 OA 
HETATM   23  H   UNL     1      -9.454   2.016  72.160  1.00  0.00     0.000 HD 
HETATM   24  N   UNL     1      -9.968   2.897  72.165  1.00  0.00    -0.168 N  
HETATM   25  O   UNL     1     -10.856   2.574  74.246  1.00  0.00    -0.165 OA 
ENDBRANCH  14  15
ENDBRANCH  13  14
ENDBRANCH   4  13
BRANCH   6  26
HETATM   26  N   UNL     1     -11.968  12.307  66.827  1.00  0.00    -0.263 N  
HETATM   27  O   UNL     1     -12.871  12.565  64.752  1.00  0.00    -0.755 OA 
HETATM   28  C   UNL     1     -11.981  12.873  65.541  1.00  0.00    -0.436 C  
HETATM   29  H   UNL     1     -12.710  11.620  66.962  1.00  0.00     0.000 HD 
BRANCH  28  30
HETATM   30  C   UNL     1     -10.839  13.698  65.011  1.00  0.00    -0.352 C  
BRANCH  30  31
HETATM   31  C   UNL     1     -10.333  14.924  65.641  1.00  0.00    -0.349 A  
HETATM   32  H2  UNL     1      -7.437  17.946  66.530  1.00  0.00     0.000 HD 
HETATM   33  C   UNL     1     -11.109  16.069  65.727  1.00  0.00    -0.032 A  
HETATM   34  H1  UNL     1      -6.707  16.346  66.394  1.00  0.00     0.000 HD 
HETATM   35  N   UNL     1      -8.967  15.152  65.880  1.00  0.00    -0.076 NA 
HETATM   36  N   UNL     1      -7.534  16.943  66.372  1.00  0.00    -0.286 NA 
HETATM   37  S   UNL     1     -10.142  17.427  66.103  1.00  0.00    -0.264 SA 
HETATM   38  C   UNL     1      -8.748  16.421  66.139  1.00  0.00    -0.312 A  
ENDBRANCH  30  31
BRANCH  30  39
HETATM   39  N   UNL     1     -10.335  13.536  63.833  1.00  0.00    -0.616 NA 
HETATM   40  H   UNL     1     -10.514  14.241  63.118  1.00  0.00     0.000 HD 
BRANCH  39  41
HETATM   41  O   UNL     1      -9.554  12.427  63.509  1.00  0.00    -0.223 OA 
HETATM   42  C   UNL     1     -10.085  11.117  63.461  1.00  0.00    -0.385 C  
ENDBRANCH  39  41
ENDBRANCH  30  39
ENDBRANCH  28  30
ENDBRANCH   6  26
TORSDOF 8
ENDMDL
MODEL      164
REMARK 921   NORMALIZED FREE ENERGY PREDICTED BY IDOCK:   -5.74 KCAL/MOL
REMARK 922        TOTAL FREE ENERGY PREDICTED BY IDOCK:   -9.68 KCAL/MOL
REMARK 923 INTER-LIGAND FREE ENERGY PREDICTED BY IDOCK:   -7.88 KCAL/MOL
REMARK 924 INTRA-LIGAND FREE ENERGY PREDICTED BY IDOCK:   -1.80 KCAL/MOL
REMARK 927      BINDING AFFINITY PREDICTED BY RF-SCORE:    0.00 PKD
ROOT
HETATM    1  C   UNL     1      -8.282   9.215  70.591  1.00  0.00    -0.190 C  
HETATM    2  S   UNL     1      -8.362   8.339  72.129  1.00  0.00    -0.176 SA 
HETATM    3  C   UNL     1      -8.117   6.586  71.657  1.00  0.00    -0.108 C  
HETATM    4  C   UNL     1      -7.834   6.242  70.222  1.00  0.00    -0.103 C  
HETATM    5  CA  UNL     1      -7.779   7.158  69.207  1.00  0.00    -0.108 C  
HETATM    6  CA  UNL     1      -9.331  10.126  69.821  1.00  0.00    -0.150 C  
HETATM    7  C   UNL     1      -8.681   9.429  68.585  1.00  0.00    -0.131 C  
HETATM    8  N   UNL     1      -8.130   8.470  69.375  1.00  0.00    -0.110 N  
HETATM    9  C   UNL     1      -7.327   6.707  67.843  1.00  0.00    -0.096 C  
HETATM   10  O   UNL     1      -8.856   9.522  67.394  1.00  0.00    -0.128 OA 
HETATM   11  O   UNL     1      -7.942   7.240  66.769  1.00  0.00    -0.113 OA 
HETATM   12  OXT UNL     1      -6.420   5.903  67.692  1.00  0.00    -0.043 OA 
ENDROOT
BRANCH   4  13
HETATM   13  C   UNL     1      -7.675   4.722  69.914  1.00  0.00    -0.055 C  
BRANCH  13  14
HETATM   14  S   UNL     1      -9.150   3.683  69.565  1.00  0.00    -0.149 SA 
BRANCH  14  15
HETATM   15  C   UNL     1      -9.517   3.888  67.835  1.00  0.00    -0.173 C  
HETATM   16  N   UNL     1      -8.873   3.100  67.047  1.00  0.00    -0.129 N  
HETATM   17  H   UNL     1      -8.293   2.342  67.406  1.00  0.00     0.000 HD 
HETATM   18  C   UNL     1     -10.964   5.944  68.263  1.00  0.00    -0.170 C  
HETATM   19  C   UNL     1      -9.006   3.330  65.693  1.00  0.00    -0.144 C  
HETATM   20  N   UNL     1     -10.366   4.921  67.425  1.00  0.00    -0.117 NA 
HETATM   21  C   UNL     1     -10.165   4.155  65.138  1.00  0.00    -0.204 C  
HETATM   22  O   UNL     1      -8.160   2.992  64.864  1.00  0.00    -0.085 OA 
HETATM   23  H   UNL     1     -11.153   5.887  65.712  1.00  0.00     0.000 HD 
HETATM   24  N   UNL     1     -10.624   5.080  66.040  1.00  0.00    -0.277 N  
HETATM   25  O   UNL     1     -10.601   4.043  64.003  1.00  0.00    -0.225 OA 
ENDBRANCH  14  15
ENDBRANCH  13  14
ENDBRANCH   4  13
BRANCH   6  26
HETATM   26  N   UNL     1     -10.862  10.157  69.709  1.00  0.00    -0.259 N  
HETATM   27  O   UNL     1     -13.004  10.880  69.435  1.00  0.00    -0.088 OA 
HETATM   28  C   UNL     1     -11.805  11.143  69.376  1.00  0.00    -0.345 C  
HETATM   29  H   UNL     1     -11.291   9.258  69.925  1.00  0.00     0.000 HD 
BRANCH  28  30
HETATM   30  C   UNL     1     -11.414  12.460  68.761  1.00  0.00    -0.304 C  
BRANCH  30  31
HETATM   31  C   UNL     1     -11.246  12.690  67.320  1.00  0.00    -0.298 A  
HETATM   32  H2  UNL     1     -12.545  13.351  63.297  1.00  0.00     0.000 HD 
HETATM   33  C   UNL     1     -10.282  13.557  66.832  1.00  0.00    -0.256 A  
HETATM   34  H1  UNL     1     -13.602  12.234  64.162  1.00  0.00     0.000 HD 
HETATM   35  N   UNL     1     -12.228  12.349  66.375  1.00  0.00    -0.556 NA 
HETATM   36  N   UNL     1     -12.776  12.832  64.145  1.00  0.00    -0.702 NA 
HETATM   37  S   UNL     1     -10.597  13.950  65.198  1.00  0.00    -0.401 SA 
HETATM   38  C   UNL     1     -11.989  12.941  65.226  1.00  0.00    -0.419 A  
ENDBRANCH  30  31
BRANCH  30  39
HETATM   39  N   UNL     1     -10.968  13.459  69.448  1.00  0.00    -0.440 NA 
HETATM   40  H   UNL     1      -9.961  13.578  69.552  1.00  0.00     0.000 HD 
BRANCH  39  41
HETATM   41  O   UNL     1     -11.824  14.380  70.053  1.00  0.00    -0.279 OA 
HETATM   42  C   UNL     1     -11.450  15.115  71.202  1.00  0.00    -0.343 C  
ENDBRANCH  39  41
ENDBRANCH  30  39
ENDBRANCH  28  30
ENDBRANCH   6  26
TORSDOF 8
ENDMDL
MODEL      165
REMARK 921   NORMALIZED FREE ENERGY PREDICTED BY IDOCK:   -5.74 KCAL/MOL
REMARK 922        TOTAL FREE ENERGY PREDICTED BY IDOCK:   -9.68 KCAL/MOL
REMARK 923 INTER-LIGAND FREE ENERGY PREDICTED BY IDOCK:   -8.35 KCAL/MOL
REMARK 924 INTRA-LIGAND FREE ENERGY PREDICTED BY IDOCK:   -1.32 KCAL/MOL
REMARK 927      BINDING AFFINITY PREDICTED BY RF-SCORE:    0.00 PKD
ROOT
HETATM    1  C   UNL     1     -10.750   9.796  67.113  1.00  0.00    -0.202 C  
HETATM    2  S   UNL     1     -11.081  10.627  68.643  1.00  0.00    -0.280 SA 
HETATM    3  C   UNL     1     -11.086  12.402  68.194  1.00  0.00    -0.247 C  
HETATM    4  C   UNL     1     -10.917  12.799  66.755  1.00  0.00    -0.301 C  
HETATM    5  CA  UNL     1     -10.718  11.914  65.731  1.00  0.00    -0.284 C  
HETATM    6  CA  UNL     1      -9.569   8.842  66.646  1.00  0.00    -0.219 C  
HETATM    7  C   UNL     1      -9.791   9.608  65.304  1.00  0.00    -0.199 C  
HETATM    8  N   UNL     1     -10.499  10.579  65.939  1.00  0.00    -0.197 N  
HETATM    9  C   UNL     1     -10.726  12.426  64.314  1.00  0.00    -0.357 C  
HETATM   10  O   UNL     1      -9.278   9.535  64.213  1.00  0.00    -0.229 OA 
HETATM   11  O   UNL     1      -9.850  11.884  63.446  1.00  0.00    -0.393 OA 
HETATM   12  OXT UNL     1     -11.506  13.288  63.939  1.00  0.00    -0.394 OA 
ENDROOT
BRANCH   4  13
HETATM   13  C   UNL     1     -10.901  14.333  66.478  1.00  0.00    -0.304 C  
BRANCH  13  14
HETATM   14  S   UNL     1     -11.441  15.520  67.773  1.00  0.00    -0.175 SA 
BRANCH  14  15
HETATM   15  C   UNL     1     -10.183  16.776  67.868  1.00  0.00    -0.300 C  
HETATM   16  N   UNL     1     -10.382  17.799  67.113  1.00  0.00    -0.347 N  
HETATM   17  H   UNL     1     -11.254  17.923  66.599  1.00  0.00     0.000 HD 
HETATM   18  C   UNL     1      -8.690  15.338  69.355  1.00  0.00    -0.216 C  
HETATM   19  C   UNL     1      -9.359  18.721  67.034  1.00  0.00    -0.297 C  
HETATM   20  N   UNL     1      -9.038  16.552  68.638  1.00  0.00    -0.231 NA 
HETATM   21  C   UNL     1      -8.256  18.777  68.090  1.00  0.00    -0.304 C  
HETATM   22  O   UNL     1      -9.199  19.473  66.072  1.00  0.00    -0.381 OA 
HETATM   23  H   UNL     1      -7.152  17.372  69.148  1.00  0.00     0.000 HD 
HETATM   24  N   UNL     1      -8.039  17.557  68.678  1.00  0.00    -0.273 N  
HETATM   25  O   UNL     1      -7.605  19.777  68.345  1.00  0.00    -0.313 OA 
ENDBRANCH  14  15
ENDBRANCH  13  14
ENDBRANCH   4  13
BRANCH   6  26
HETATM   26  N   UNL     1      -8.076   8.721  66.984  1.00  0.00    -0.099 N  
HETATM   27  O   UNL     1      -6.111   8.064  67.930  1.00  0.00    -0.044 OA 
HETATM   28  C   UNL     1      -7.320   7.874  67.811  1.00  0.00    -0.096 C  
HETATM   29  H   UNL     1      -7.504   9.411  66.499  1.00  0.00     0.000 HD 
BRANCH  28  30
HETATM   30  C   UNL     1      -7.887   6.616  68.413  1.00  0.00    -0.107 C  
BRANCH  30  31
HETATM   31  C   UNL     1      -8.937   6.582  69.439  1.00  0.00    -0.132 A  
HETATM   32  H2  UNL     1     -11.439   8.185  72.517  1.00  0.00     0.000 HD 
HETATM   33  C   UNL     1     -10.136   5.919  69.227  1.00  0.00    -0.194 A  
HETATM   34  H1  UNL     1      -9.806   8.850  72.574  1.00  0.00     0.000 HD 
HETATM   35  N   UNL     1      -8.969   7.469  70.527  1.00  0.00    -0.151 NA 
HETATM   36  N   UNL     1     -10.490   8.225  72.147  1.00  0.00    -0.275 NA 
HETATM   37  S   UNL     1     -11.302   6.401  70.381  1.00  0.00    -0.387 SA 
HETATM   38  C   UNL     1     -10.151   7.454  71.102  1.00  0.00    -0.186 A  
ENDBRANCH  30  31
BRANCH  30  39
HETATM   39  N   UNL     1      -7.354   5.451  68.252  1.00  0.00    -0.071 NA 
HETATM   40  H   UNL     1      -6.991   4.956  69.066  1.00  0.00     0.000 HD 
BRANCH  39  41
HETATM   41  O   UNL     1      -7.257   4.849  66.997  1.00  0.00    -0.074 OA 
HETATM   42  C   UNL     1      -8.089   3.772  66.611  1.00  0.00    -0.096 C  
ENDBRANCH  39  41
ENDBRANCH  30  39
ENDBRANCH  28  30
ENDBRANCH   6  26
TORSDOF 8
ENDMDL
MODEL      166
REMARK 921   NORMALIZED FREE ENERGY PREDICTED BY IDOCK:   -5.73 KCAL/MOL
REMARK 922        TOTAL FREE ENERGY PREDICTED BY IDOCK:   -9.67 KCAL/MOL
REMARK 923 INTER-LIGAND FREE ENERGY PREDICTED BY IDOCK:   -8.13 KCAL/MOL
REMARK 924 INTRA-LIGAND FREE ENERGY PREDICTED BY IDOCK:   -1.55 KCAL/MOL
REMARK 927      BINDING AFFINITY PREDICTED BY RF-SCORE:    0.00 PKD
ROOT
HETATM    1  C   UNL     1     -10.913  12.108  68.342  1.00  0.00    -0.235 C  
HETATM    2  S   UNL     1     -10.125  10.779  67.475  1.00  0.00    -0.193 SA 
HETATM    3  C   UNL     1      -8.412  11.371  67.213  1.00  0.00    -0.148 C  
HETATM    4  C   UNL     1      -7.993  12.693  67.790  1.00  0.00    -0.158 C  
HETATM    5  CA  UNL     1      -8.825  13.528  68.485  1.00  0.00    -0.086 C  
HETATM    6  CA  UNL     1     -12.157  13.031  67.987  1.00  0.00    -0.174 C  
HETATM    7  C   UNL     1     -11.272  14.101  68.699  1.00  0.00    -0.266 C  
HETATM    8  N   UNL     1     -10.172  13.309  68.592  1.00  0.00    -0.211 N  
HETATM    9  C   UNL     1      -8.243  14.747  69.152  1.00  0.00    -0.106 C  
HETATM   10  O   UNL     1     -11.429  15.271  68.952  1.00  0.00    -0.293 OA 
HETATM   11  O   UNL     1      -8.974  15.879  69.139  1.00  0.00    -0.229 OA 
HETATM   12  OXT UNL     1      -7.157  14.727  69.709  1.00  0.00    -0.171 OA 
ENDROOT
BRANCH   4  13
HETATM   13  C   UNL     1      -6.527  13.126  67.485  1.00  0.00    -0.147 C  
BRANCH  13  14
HETATM   14  S   UNL     1      -5.140  11.944  67.712  1.00  0.00    -0.070 SA 
BRANCH  14  15
HETATM   15  C   UNL     1      -5.355  10.667  66.490  1.00  0.00    -0.064 C  
HETATM   16  N   UNL     1      -5.555  11.092  65.292  1.00  0.00    -0.331 N  
HETATM   17  H   UNL     1      -5.474  12.080  65.054  1.00  0.00     0.000 HD 
HETATM   18  C   UNL     1      -5.368   8.820  68.249  1.00  0.00    -0.034 C  
HETATM   19  C   UNL     1      -5.885  10.146  64.344  1.00  0.00    -0.131 C  
HETATM   20  N   UNL     1      -5.404   9.328  66.890  1.00  0.00    -0.039 NA 
HETATM   21  C   UNL     1      -5.602   8.662  64.571  1.00  0.00    -0.062 C  
HETATM   22  O   UNL     1      -6.518  10.407  63.320  1.00  0.00    -0.139 OA 
HETATM   23  H   UNL     1      -5.745   7.360  66.182  1.00  0.00     0.000 HD 
HETATM   24  N   UNL     1      -5.602   8.330  65.901  1.00  0.00    -0.039 N  
HETATM   25  O   UNL     1      -5.446   7.851  63.672  1.00  0.00    -0.047 OA 
ENDBRANCH  14  15
ENDBRANCH  13  14
ENDBRANCH   4  13
BRANCH   6  26
HETATM   26  N   UNL     1     -12.764  13.577  66.687  1.00  0.00    -0.161 N  
HETATM   27  O   UNL     1     -13.028  14.668  64.705  1.00  0.00    -0.486 OA 
HETATM   28  C   UNL     1     -12.263  14.311  65.599  1.00  0.00    -0.400 C  
HETATM   29  H   UNL     1     -13.755  13.357  66.591  1.00  0.00     0.000 HD 
BRANCH  28  30
HETATM   30  C   UNL     1     -10.789  14.519  65.375  1.00  0.00    -0.354 C  
BRANCH  30  31
HETATM   31  C   UNL     1     -10.105  15.815  65.474  1.00  0.00    -0.351 A  
HETATM   32  H2  UNL     1      -9.775  20.000  66.300  1.00  0.00     0.000 HD 
HETATM   33  C   UNL     1      -8.822  15.920  65.985  1.00  0.00    -0.263 A  
HETATM   34  H1  UNL     1     -11.338  19.583  65.596  1.00  0.00     0.000 HD 
HETATM   35  N   UNL     1     -10.783  17.043  65.399  1.00  0.00    -0.548 NA 
HETATM   36  N   UNL     1     -10.411  19.301  65.916  1.00  0.00    -0.505 NA 
HETATM   37  S   UNL     1      -8.459  17.545  66.374  1.00  0.00    -0.229 SA 
HETATM   38  C   UNL     1     -10.021  18.020  65.835  1.00  0.00    -0.107 A  
ENDBRANCH  30  31
BRANCH  30  39
HETATM   39  N   UNL     1     -10.018  13.622  64.855  1.00  0.00    -0.618 NA 
HETATM   40  H   UNL     1      -9.042  13.582  65.145  1.00  0.00     0.000 HD 
BRANCH  39  41
HETATM   41  O   UNL     1     -10.481  12.707  63.909  1.00  0.00    -0.410 OA 
HETATM   42  C   UNL     1      -9.693  11.622  63.461  1.00  0.00    -0.322 C  
ENDBRANCH  39  41
ENDBRANCH  30  39
ENDBRANCH  28  30
ENDBRANCH   6  26
TORSDOF 8
ENDMDL
MODEL      167
REMARK 921   NORMALIZED FREE ENERGY PREDICTED BY IDOCK:   -5.72 KCAL/MOL
REMARK 922        TOTAL FREE ENERGY PREDICTED BY IDOCK:   -9.66 KCAL/MOL
REMARK 923 INTER-LIGAND FREE ENERGY PREDICTED BY IDOCK:   -8.04 KCAL/MOL
REMARK 924 INTRA-LIGAND FREE ENERGY PREDICTED BY IDOCK:   -1.62 KCAL/MOL
REMARK 927      BINDING AFFINITY PREDICTED BY RF-SCORE:    0.00 PKD
ROOT
HETATM    1  C   UNL     1     -11.565  13.132  68.456  1.00  0.00    -0.326 C  
HETATM    2  S   UNL     1     -11.868  14.060  69.935  1.00  0.00    -0.337 SA 
HETATM    3  C   UNL     1     -11.526  15.793  69.451  1.00  0.00    -0.355 C  
HETATM    4  C   UNL     1     -11.173  16.105  68.024  1.00  0.00    -0.291 C  
HETATM    5  CA  UNL     1     -11.050  15.163  67.039  1.00  0.00    -0.328 C  
HETATM    6  CA  UNL     1     -10.535  11.973  68.112  1.00  0.00    -0.202 C  
HETATM    7  C   UNL     1     -10.509  12.718  66.741  1.00  0.00    -0.241 C  
HETATM    8  N   UNL     1     -11.086  13.818  67.292  1.00  0.00    -0.298 N  
HETATM    9  C   UNL     1     -10.853  15.618  65.617  1.00  0.00    -0.327 C  
HETATM   10  O   UNL     1      -9.929  12.519  65.700  1.00  0.00    -0.259 OA 
HETATM   11  O   UNL     1     -10.017  14.903  64.838  1.00  0.00    -0.288 OA 
HETATM   12  OXT UNL     1     -11.436  16.588  65.159  1.00  0.00     0.051 OA 
ENDROOT
BRANCH   4  13
HETATM   13  C   UNL     1     -10.866  17.602  67.719  1.00  0.00    -0.234 C  
BRANCH  13  14
HETATM   14  S   UNL     1      -9.449  18.446  68.528  1.00  0.00    -0.334 SA 
BRANCH  14  15
HETATM   15  C   UNL     1      -8.042  17.372  68.339  1.00  0.00    -0.264 C  
HETATM   16  N   UNL     1      -7.996  16.389  69.168  1.00  0.00    -0.233 N  
HETATM   17  H   UNL     1      -8.771  16.184  69.798  1.00  0.00     0.000 HD 
HETATM   18  C   UNL     1      -6.968  18.891  66.594  1.00  0.00    -0.208 C  
HETATM   19  C   UNL     1      -6.847  15.626  69.164  1.00  0.00    -0.159 C  
HETATM   20  N   UNL     1      -7.044  17.696  67.415  1.00  0.00    -0.167 NA 
HETATM   21  C   UNL     1      -5.885  15.646  67.977  1.00  0.00    -0.140 C  
HETATM   22  O   UNL     1      -6.463  14.975  70.137  1.00  0.00    -0.165 OA 
HETATM   23  H   UNL     1      -5.135  17.109  66.709  1.00  0.00     0.000 HD 
HETATM   24  N   UNL     1      -5.921  16.838  67.300  1.00  0.00    -0.152 N  
HETATM   25  O   UNL     1      -5.129  14.731  67.694  1.00  0.00    -0.302 OA 
ENDBRANCH  14  15
ENDBRANCH  13  14
ENDBRANCH   4  13
BRANCH   6  26
HETATM   26  N   UNL     1      -9.119  11.607  68.581  1.00  0.00    -0.336 N  
HETATM   27  O   UNL     1      -7.377  10.581  69.629  1.00  0.00    -0.134 OA 
HETATM   28  C   UNL     1      -8.578  10.576  69.366  1.00  0.00    -0.086 C  
HETATM   29  H   UNL     1      -8.412  12.261  68.247  1.00  0.00     0.000 HD 
BRANCH  28  30
HETATM   30  C   UNL     1      -9.366   9.350  69.744  1.00  0.00    -0.203 C  
BRANCH  30  31
HETATM   31  C   UNL     1      -9.339   8.081  69.005  1.00  0.00    -0.147 A  
HETATM   32  H2  UNL     1     -10.332   3.990  68.239  1.00  0.00     0.000 HD 
HETATM   33  C   UNL     1      -9.419   8.045  67.622  1.00  0.00    -0.145 A  
HETATM   34  H1  UNL     1     -10.134   4.315  69.962  1.00  0.00     0.000 HD 
HETATM   35  N   UNL     1      -9.578   6.838  69.615  1.00  0.00    -0.149 NA 
HETATM   36  N   UNL     1     -10.119   4.641  68.996  1.00  0.00    -0.112 NA 
HETATM   37  S   UNL     1      -9.794   6.467  67.081  1.00  0.00    -0.160 SA 
HETATM   38  C   UNL     1      -9.821   5.917  68.710  1.00  0.00    -0.140 A  
ENDBRANCH  30  31
BRANCH  30  39
HETATM   39  N   UNL     1     -10.312   9.359  70.622  1.00  0.00    -0.262 NA 
HETATM   40  H   UNL     1     -10.069   9.329  71.612  1.00  0.00     0.000 HD 
BRANCH  39  41
HETATM   41  O   UNL     1     -11.658   9.410  70.258  1.00  0.00    -0.233 OA 
HETATM   42  C   UNL     1     -12.573  10.298  70.870  1.00  0.00    -0.371 C  
ENDBRANCH  39  41
ENDBRANCH  30  39
ENDBRANCH  28  30
ENDBRANCH   6  26
TORSDOF 8
ENDMDL
MODEL      168
REMARK 921   NORMALIZED FREE ENERGY PREDICTED BY IDOCK:   -5.72 KCAL/MOL
REMARK 922        TOTAL FREE ENERGY PREDICTED BY IDOCK:   -9.66 KCAL/MOL
REMARK 923 INTER-LIGAND FREE ENERGY PREDICTED BY IDOCK:   -8.03 KCAL/MOL
REMARK 924 INTRA-LIGAND FREE ENERGY PREDICTED BY IDOCK:   -1.63 KCAL/MOL
REMARK 927      BINDING AFFINITY PREDICTED BY RF-SCORE:    0.00 PKD
ROOT
HETATM    1  C   UNL     1      -8.289  13.021  67.046  1.00  0.00    -0.095 C  
HETATM    2  S   UNL     1      -7.663  12.324  68.550  1.00  0.00    -0.089 SA 
HETATM    3  C   UNL     1      -8.075  10.544  68.422  1.00  0.00    -0.119 C  
HETATM    4  C   UNL     1      -8.720  10.025  67.169  1.00  0.00    -0.132 C  
HETATM    5  CA  UNL     1      -9.065  10.807  66.101  1.00  0.00    -0.174 C  
HETATM    6  CA  UNL     1      -9.387  14.133  66.756  1.00  0.00    -0.282 C  
HETATM    7  C   UNL     1      -9.694  13.187  65.553  1.00  0.00    -0.043 C  
HETATM    8  N   UNL     1      -8.996  12.174  66.131  1.00  0.00    -0.109 N  
HETATM    9  C   UNL     1      -9.555  10.143  64.840  1.00  0.00    -0.306 C  
HETATM   10  O   UNL     1     -10.485  13.235  64.643  1.00  0.00    -0.371 OA 
HETATM   11  O   UNL     1     -10.548  10.747  64.158  1.00  0.00    -0.347 OA 
HETATM   12  OXT UNL     1      -9.069   9.104  64.422  1.00  0.00    -0.143 OA 
ENDROOT
BRANCH   4  13
HETATM   13  C   UNL     1      -9.063   8.504  67.169  1.00  0.00    -0.140 C  
BRANCH  13  14
HETATM   14  S   UNL     1     -10.726   7.925  67.694  1.00  0.00    -0.080 SA 
BRANCH  14  15
HETATM   15  C   UNL     1     -10.716   7.896  69.474  1.00  0.00    -0.192 C  
HETATM   16  N   UNL     1     -10.478   6.744  69.996  1.00  0.00    -0.203 N  
HETATM   17  H   UNL     1     -10.199   5.946  69.425  1.00  0.00     0.000 HD 
HETATM   18  C   UNL     1     -11.515  10.313  69.635  1.00  0.00    -0.235 C  
HETATM   19  C   UNL     1     -10.618   6.641  71.364  1.00  0.00    -0.224 C  
HETATM   20  N   UNL     1     -11.061   9.049  70.186  1.00  0.00    -0.232 NA 
HETATM   21  C   UNL     1     -10.614   7.880  72.258  1.00  0.00    -0.271 C  
HETATM   22  O   UNL     1     -10.863   5.581  71.941  1.00  0.00    -0.239 OA 
HETATM   23  H   UNL     1     -11.418   9.790  72.138  1.00  0.00     0.000 HD 
HETATM   24  N   UNL     1     -11.070   8.995  71.603  1.00  0.00    -0.339 N  
HETATM   25  O   UNL     1     -10.295   7.871  73.436  1.00  0.00    -0.311 OA 
ENDBRANCH  14  15
ENDBRANCH  13  14
ENDBRANCH   4  13
BRANCH   6  26
HETATM   26  N   UNL     1     -10.674  14.592  67.455  1.00  0.00    -0.278 N  
HETATM   27  O   UNL     1     -12.135  15.707  68.800  1.00  0.00    -0.301 OA 
HETATM   28  C   UNL     1     -10.993  15.625  68.352  1.00  0.00    -0.308 C  
HETATM   29  H   UNL     1     -11.481  14.017  67.213  1.00  0.00     0.000 HD 
BRANCH  28  30
HETATM   30  C   UNL     1     -10.050  16.761  68.644  1.00  0.00    -0.279 C  
BRANCH  30  31
HETATM   31  C   UNL     1      -9.903  17.960  67.808  1.00  0.00    -0.300 A  
HETATM   32  H2  UNL     1      -8.124  20.425  64.798  1.00  0.00     0.000 HD 
HETATM   33  C   UNL     1     -11.002  18.593  67.250  1.00  0.00    -0.159 A  
HETATM   34  H1  UNL     1      -6.919  19.510  65.705  1.00  0.00     0.000 HD 
HETATM   35  N   UNL     1      -8.681  18.345  67.234  1.00  0.00    -0.256 NA 
HETATM   36  N   UNL     1      -7.893  19.764  65.540  1.00  0.00    -0.358 NA 
HETATM   37  S   UNL     1     -10.515  19.665  66.011  1.00  0.00    -0.472 SA 
HETATM   38  C   UNL     1      -8.874  19.237  66.289  1.00  0.00    -0.326 A  
ENDBRANCH  30  31
BRANCH  30  39
HETATM   39  N   UNL     1      -9.115  16.694  69.533  1.00  0.00     0.090 NA 
HETATM   40  H   UNL     1      -9.088  17.394  70.275  1.00  0.00     0.000 HD 
BRANCH  39  41
HETATM   41  O   UNL     1      -8.142  15.695  69.511  1.00  0.00    -0.236 OA 
HETATM   42  C   UNL     1      -6.810  15.948  69.108  1.00  0.00    -0.170 C  
ENDBRANCH  39  41
ENDBRANCH  30  39
ENDBRANCH  28  30
ENDBRANCH   6  26
TORSDOF 8
ENDMDL
MODEL      169
REMARK 921   NORMALIZED FREE ENERGY PREDICTED BY IDOCK:   -5.68 KCAL/MOL
REMARK 922        TOTAL FREE ENERGY PREDICTED BY IDOCK:   -9.59 KCAL/MOL
REMARK 923 INTER-LIGAND FREE ENERGY PREDICTED BY IDOCK:   -8.37 KCAL/MOL
REMARK 924 INTRA-LIGAND FREE ENERGY PREDICTED BY IDOCK:   -1.22 KCAL/MOL
REMARK 927      BINDING AFFINITY PREDICTED BY RF-SCORE:    0.00 PKD
ROOT
HETATM    1  C   UNL     1     -10.555  13.002  67.999  1.00  0.00    -0.235 C  
HETATM    2  S   UNL     1     -11.759  11.749  67.652  1.00  0.00    -0.184 SA 
HETATM    3  C   UNL     1     -10.774  10.355  66.989  1.00  0.00    -0.235 C  
HETATM    4  C   UNL     1      -9.276  10.468  66.941  1.00  0.00    -0.173 C  
HETATM    5  CA  UNL     1      -8.576  11.576  67.332  1.00  0.00    -0.145 C  
HETATM    6  CA  UNL     1     -10.355  14.477  67.444  1.00  0.00    -0.252 C  
HETATM    7  C   UNL     1      -8.853  14.071  67.567  1.00  0.00    -0.199 C  
HETATM    8  N   UNL     1      -9.183  12.756  67.665  1.00  0.00    -0.184 N  
HETATM    9  C   UNL     1      -7.072  11.504  67.388  1.00  0.00    -0.119 C  
HETATM   10  O   UNL     1      -7.817  14.652  67.348  1.00  0.00    -0.179 OA 
HETATM   11  O   UNL     1      -6.377  12.593  67.005  1.00  0.00    -0.212 OA 
HETATM   12  OXT UNL     1      -6.483  10.510  67.784  1.00  0.00    -0.060 OA 
ENDROOT
BRANCH   4  13
HETATM   13  C   UNL     1      -8.529   9.244  66.328  1.00  0.00    -0.127 C  
BRANCH  13  14
HETATM   14  S   UNL     1      -8.786   7.558  67.011  1.00  0.00    -0.130 SA 
BRANCH  14  15
HETATM   15  C   UNL     1      -9.054   7.754  68.760  1.00  0.00    -0.140 C  
HETATM   16  N   UNL     1      -8.321   8.649  69.324  1.00  0.00    -0.117 N  
HETATM   17  H   UNL     1      -7.724   9.272  68.780  1.00  0.00     0.000 HD 
HETATM   18  C   UNL     1     -10.633   5.753  68.863  1.00  0.00    -0.267 C  
HETATM   19  C   UNL     1      -8.380   8.724  70.700  1.00  0.00    -0.154 C  
HETATM   20  N   UNL     1      -9.929   6.891  69.427  1.00  0.00    -0.158 NA 
HETATM   21  C   UNL     1      -9.545   8.116  71.479  1.00  0.00    -0.173 C  
HETATM   22  O   UNL     1      -7.467   9.176  71.392  1.00  0.00    -0.280 OA 
HETATM   23  H   UNL     1     -10.658   6.369  71.346  1.00  0.00     0.000 HD 
HETATM   24  N   UNL     1     -10.108   7.051  70.824  1.00  0.00    -0.194 N  
HETATM   25  O   UNL     1      -9.902   8.497  72.582  1.00  0.00    -0.281 OA 
ENDBRANCH  14  15
ENDBRANCH  13  14
ENDBRANCH   4  13
BRANCH   6  26
HETATM   26  N   UNL     1     -10.640  15.180  66.109  1.00  0.00    -0.303 N  
HETATM   27  O   UNL     1     -10.893  16.782  64.510  1.00  0.00    -0.886 OA 
HETATM   28  C   UNL     1     -10.514  16.500  65.645  1.00  0.00    -0.324 C  
HETATM   29  H   UNL     1     -11.003  14.545  65.399  1.00  0.00     0.000 HD 
BRANCH  28  30
HETATM   30  C   UNL     1      -9.755  17.554  66.405  1.00  0.00    -0.288 C  
BRANCH  30  31
HETATM   31  C   UNL     1      -8.447  18.091  66.006  1.00  0.00    -0.008 A  
HETATM   32  H2  UNL     1      -5.424  21.089  65.583  1.00  0.00     0.000 HD 
HETATM   33  C   UNL     1      -7.280  17.369  66.192  1.00  0.00    -0.292 A  
HETATM   34  H1  UNL     1      -7.047  21.745  65.358  1.00  0.00     0.000 HD 
HETATM   35  N   UNL     1      -8.230  19.454  65.745  1.00  0.00    -0.417 NA 
HETATM   36  N   UNL     1      -6.434  20.950  65.543  1.00  0.00    -0.200 NA 
HETATM   37  S   UNL     1      -5.912  18.384  66.044  1.00  0.00    -0.207 SA 
HETATM   38  C   UNL     1      -6.944  19.724  65.732  1.00  0.00    -0.295 A  
ENDBRANCH  30  31
BRANCH  30  39
HETATM   39  N   UNL     1     -10.069  17.931  67.600  1.00  0.00    -0.331 NA 
HETATM   40  H   UNL     1      -9.797  17.347  68.391  1.00  0.00     0.000 HD 
BRANCH  39  41
HETATM   41  O   UNL     1     -10.771  19.112  67.842  1.00  0.00    -0.388 OA 
HETATM   42  C   UNL     1     -10.271  20.125  68.694  1.00  0.00    -0.235 C  
ENDBRANCH  39  41
ENDBRANCH  30  39
ENDBRANCH  28  30
ENDBRANCH   6  26
TORSDOF 8
ENDMDL
MODEL      170
REMARK 921   NORMALIZED FREE ENERGY PREDICTED BY IDOCK:   -5.67 KCAL/MOL
REMARK 922        TOTAL FREE ENERGY PREDICTED BY IDOCK:   -9.58 KCAL/MOL
REMARK 923 INTER-LIGAND FREE ENERGY PREDICTED BY IDOCK:   -8.16 KCAL/MOL
REMARK 924 INTRA-LIGAND FREE ENERGY PREDICTED BY IDOCK:   -1.42 KCAL/MOL
REMARK 927      BINDING AFFINITY PREDICTED BY RF-SCORE:    0.00 PKD
ROOT
HETATM    1  C   UNL     1      -9.487  11.571  66.407  1.00  0.00    -0.213 C  
HETATM    2  S   UNL     1      -8.664  12.632  67.563  1.00  0.00    -0.196 SA 
HETATM    3  C   UNL     1      -9.205  14.315  67.087  1.00  0.00    -0.223 C  
HETATM    4  C   UNL     1     -10.208  14.482  65.981  1.00  0.00    -0.329 C  
HETATM    5  CA  UNL     1     -10.736  13.447  65.258  1.00  0.00    -0.313 C  
HETATM    6  CA  UNL     1      -8.945  10.551  65.316  1.00  0.00    -0.189 C  
HETATM    7  C   UNL     1     -10.176  11.099  64.528  1.00  0.00    -0.324 C  
HETATM    8  N   UNL     1     -10.283  12.159  65.371  1.00  0.00    -0.264 N  
HETATM    9  C   UNL     1     -11.852  13.730  64.288  1.00  0.00    -0.417 C  
HETATM   10  O   UNL     1     -10.639  10.854  63.440  1.00  0.00    -0.282 OA 
HETATM   11  O   UNL     1     -11.857  13.056  63.121  1.00  0.00    -0.494 OA 
HETATM   12  OXT UNL     1     -12.744  14.526  64.538  1.00  0.00    -0.653 OA 
ENDROOT
BRANCH   4  13
HETATM   13  C   UNL     1     -10.580  15.953  65.626  1.00  0.00    -0.378 C  
BRANCH  13  14
HETATM   14  S   UNL     1     -10.356  17.295  66.861  1.00  0.00    -0.284 SA 
BRANCH  14  15
HETATM   15  C   UNL     1      -8.831  18.116  66.450  1.00  0.00    -0.236 C  
HETATM   16  N   UNL     1      -7.869  17.331  66.108  1.00  0.00    -0.297 N  
HETATM   17  H   UNL     1      -8.017  16.332  65.971  1.00  0.00     0.000 HD 
HETATM   18  C   UNL     1      -9.722  20.393  67.172  1.00  0.00    -0.460 C  
HETATM   19  C   UNL     1      -6.628  17.909  65.936  1.00  0.00    -0.269 C  
HETATM   20  N   UNL     1      -8.723  19.500  66.615  1.00  0.00    -0.324 NA 
HETATM   21  C   UNL     1      -6.475  19.414  65.720  1.00  0.00    -0.230 C  
HETATM   22  O   UNL     1      -5.571  17.287  66.052  1.00  0.00    -0.287 OA 
HETATM   23  H   UNL     1      -7.357  21.116  66.516  1.00  0.00     0.000 HD 
HETATM   24  N   UNL     1      -7.490  20.127  66.304  1.00  0.00    -0.283 N  
HETATM   25  O   UNL     1      -5.531  19.929  65.143  1.00  0.00    -0.159 OA 
ENDBRANCH  14  15
ENDBRANCH  13  14
ENDBRANCH   4  13
BRANCH   6  26
HETATM   26  N   UNL     1      -7.695  10.478  64.427  1.00  0.00    -0.344 N  
HETATM   27  O   UNL     1      -5.636   9.939  63.617  1.00  0.00    -0.088 OA 
HETATM   28  C   UNL     1      -6.509   9.726  64.456  1.00  0.00    -0.112 C  
HETATM   29  H   UNL     1      -7.734  11.123  63.638  1.00  0.00     0.000 HD 
BRANCH  28  30
HETATM   30  C   UNL     1      -6.334   8.529  65.352  1.00  0.00    -0.055 C  
BRANCH  30  31
HETATM   31  C   UNL     1      -6.046   8.599  66.790  1.00  0.00    -0.058 A  
HETATM   32  H2  UNL     1      -6.432  10.097  70.779  1.00  0.00     0.000 HD 
HETATM   33  C   UNL     1      -5.901   7.453  67.556  1.00  0.00    -0.034 A  
HETATM   34  H1  UNL     1      -6.550  11.379  69.573  1.00  0.00     0.000 HD 
HETATM   35  N   UNL     1      -6.236   9.764  67.550  1.00  0.00    -0.059 NA 
HETATM   36  N   UNL     1      -6.418  10.394  69.803  1.00  0.00    -0.074 NA 
HETATM   37  S   UNL     1      -6.003   7.826  69.222  1.00  0.00    -0.034 SA 
HETATM   38  C   UNL     1      -6.225   9.486  68.835  1.00  0.00    -0.042 A  
ENDBRANCH  30  31
BRANCH  30  39
HETATM   39  N   UNL     1      -6.198   7.324  64.906  1.00  0.00    -0.037 NA 
HETATM   40  H   UNL     1      -5.542   6.696  65.370  1.00  0.00     0.000 HD 
BRANCH  39  41
HETATM   41  O   UNL     1      -6.920   6.856  63.808  1.00  0.00    -0.051 OA 
HETATM   42  C   UNL     1      -8.127   6.132  63.952  1.00  0.00    -0.068 C  
ENDBRANCH  39  41
ENDBRANCH  30  39
ENDBRANCH  28  30
ENDBRANCH   6  26
TORSDOF 8
ENDMDL
MODEL      171
REMARK 921   NORMALIZED FREE ENERGY PREDICTED BY IDOCK:   -5.67 KCAL/MOL
REMARK 922        TOTAL FREE ENERGY PREDICTED BY IDOCK:   -9.58 KCAL/MOL
REMARK 923 INTER-LIGAND FREE ENERGY PREDICTED BY IDOCK:   -8.00 KCAL/MOL
REMARK 924 INTRA-LIGAND FREE ENERGY PREDICTED BY IDOCK:   -1.58 KCAL/MOL
REMARK 927      BINDING AFFINITY PREDICTED BY RF-SCORE:    0.00 PKD
ROOT
HETATM    1  C   UNL     1      -8.894  10.392  66.850  1.00  0.00    -0.133 C  
HETATM    2  S   UNL     1      -8.548  10.963  65.209  1.00  0.00    -0.038 SA 
HETATM    3  C   UNL     1      -9.674  12.390  64.987  1.00  0.00    -0.021 C  
HETATM    4  C   UNL     1     -10.536  12.835  66.134  1.00  0.00    -0.284 C  
HETATM    5  CA  UNL     1     -10.571  12.218  67.354  1.00  0.00    -0.222 C  
HETATM    6  CA  UNL     1      -9.435   9.008  67.410  1.00  0.00    -0.144 C  
HETATM    7  C   UNL     1     -10.167   9.961  68.406  1.00  0.00    -0.178 C  
HETATM    8  N   UNL     1      -9.933  11.032  67.602  1.00  0.00    -0.171 N  
HETATM    9  C   UNL     1     -11.353  12.857  68.472  1.00  0.00    -0.289 C  
HETATM   10  O   UNL     1     -10.907   9.773  69.341  1.00  0.00    -0.226 OA 
HETATM   11  O   UNL     1     -12.032  12.046  69.307  1.00  0.00    -0.302 OA 
HETATM   12  OXT UNL     1     -11.368  14.065  68.646  1.00  0.00    -0.244 OA 
ENDROOT
BRANCH   4  13
HETATM   13  C   UNL     1     -11.485  14.035  65.836  1.00  0.00    -0.330 C  
BRANCH  13  14
HETATM   14  S   UNL     1     -10.817  15.604  65.153  1.00  0.00    -0.419 SA 
BRANCH  14  15
HETATM   15  C   UNL     1      -9.739  16.283  66.398  1.00  0.00    -0.288 C  
HETATM   16  N   UNL     1      -9.130  15.409  67.121  1.00  0.00    -0.210 N  
HETATM   17  H   UNL     1      -9.175  14.413  66.908  1.00  0.00     0.000 HD 
HETATM   18  C   UNL     1     -10.502  18.671  65.928  1.00  0.00    -0.356 C  
HETATM   19  C   UNL     1      -8.411  15.886  68.197  1.00  0.00    -0.162 C  
HETATM   20  N   UNL     1      -9.694  17.666  66.595  1.00  0.00    -0.288 NA 
HETATM   21  C   UNL     1      -7.987  17.351  68.283  1.00  0.00    -0.253 C  
HETATM   22  O   UNL     1      -8.161  15.210  69.196  1.00  0.00    -0.188 OA 
HETATM   23  H   UNL     1      -8.877  19.174  67.839  1.00  0.00     0.000 HD 
HETATM   24  N   UNL     1      -8.847  18.181  67.609  1.00  0.00    -0.250 N  
HETATM   25  O   UNL     1      -7.027  17.749  68.922  1.00  0.00    -0.237 OA 
ENDBRANCH  14  15
ENDBRANCH  13  14
ENDBRANCH   4  13
BRANCH   6  26
HETATM   26  N   UNL     1     -10.377   7.918  66.879  1.00  0.00    -0.327 N  
HETATM   27  O   UNL     1     -11.632   6.024  66.714  1.00  0.00     0.226 OA 
HETATM   28  C   UNL     1     -10.944   6.755  67.425  1.00  0.00    -0.337 C  
HETATM   29  H   UNL     1     -10.653   8.074  65.910  1.00  0.00     0.000 HD 
BRANCH  28  30
HETATM   30  C   UNL     1     -10.911   6.456  68.900  1.00  0.00    -0.325 C  
BRANCH  30  31
HETATM   31  C   UNL     1      -9.809   5.771  69.588  1.00  0.00    -0.176 A  
HETATM   32  H2  UNL     1      -6.510   5.425  72.291  1.00  0.00     0.000 HD 
HETATM   33  C   UNL     1      -9.944   4.476  70.062  1.00  0.00    -0.210 A  
HETATM   34  H1  UNL     1      -6.562   7.003  71.504  1.00  0.00     0.000 HD 
HETATM   35  N   UNL     1      -8.700   6.451  70.117  1.00  0.00    -0.138 NA 
HETATM   36  N   UNL     1      -6.951   6.069  71.634  1.00  0.00    -0.074 NA 
HETATM   37  S   UNL     1      -8.693   4.106  71.168  1.00  0.00    -0.095 SA 
HETATM   38  C   UNL     1      -8.037   5.680  70.949  1.00  0.00    -0.118 A  
ENDBRANCH  30  31
BRANCH  30  39
HETATM   39  N   UNL     1     -11.942   6.571  69.669  1.00  0.00    -0.520 NA 
HETATM   40  H   UNL     1     -12.837   6.196  69.356  1.00  0.00     0.000 HD 
BRANCH  39  41
HETATM   41  O   UNL     1     -11.868   7.193  70.916  1.00  0.00    -0.317 OA 
HETATM   42  C   UNL     1     -13.019   7.645  71.603  1.00  0.00    -0.350 C  
ENDBRANCH  39  41
ENDBRANCH  30  39
ENDBRANCH  28  30
ENDBRANCH   6  26
TORSDOF 8
ENDMDL
MODEL      172
REMARK 921   NORMALIZED FREE ENERGY PREDICTED BY IDOCK:   -5.64 KCAL/MOL
REMARK 922        TOTAL FREE ENERGY PREDICTED BY IDOCK:   -9.54 KCAL/MOL
REMARK 923 INTER-LIGAND FREE ENERGY PREDICTED BY IDOCK:   -7.78 KCAL/MOL
REMARK 924 INTRA-LIGAND FREE ENERGY PREDICTED BY IDOCK:   -1.77 KCAL/MOL
REMARK 927      BINDING AFFINITY PREDICTED BY RF-SCORE:    0.00 PKD
ROOT
HETATM    1  C   UNL     1     -10.504  10.358  66.094  1.00  0.00    -0.154 C  
HETATM    2  S   UNL     1      -9.325  10.049  64.808  1.00  0.00    -0.288 SA 
HETATM    3  C   UNL     1      -8.633   8.405  65.224  1.00  0.00    -0.150 C  
HETATM    4  C   UNL     1      -9.185   7.649  66.399  1.00  0.00    -0.223 C  
HETATM    5  CA  UNL     1     -10.166   8.122  67.227  1.00  0.00    -0.278 C  
HETATM    6  CA  UNL     1     -10.613  11.498  67.196  1.00  0.00    -0.237 C  
HETATM    7  C   UNL     1     -11.134  10.301  68.051  1.00  0.00    -0.274 C  
HETATM    8  N   UNL     1     -10.639   9.405  67.156  1.00  0.00    -0.250 N  
HETATM    9  C   UNL     1     -10.745   7.203  68.270  1.00  0.00    -0.153 C  
HETATM   10  O   UNL     1     -11.530  10.204  69.187  1.00  0.00    -0.192 OA 
HETATM   11  O   UNL     1     -11.050   7.730  69.472  1.00  0.00    -0.142 OA 
HETATM   12  OXT UNL     1     -10.958   6.021  68.048  1.00  0.00    -0.304 OA 
ENDROOT
BRANCH   4  13
HETATM   13  C   UNL     1      -8.508   6.276  66.693  1.00  0.00    -0.114 C  
BRANCH  13  14
HETATM   14  S   UNL     1      -7.278   6.114  68.049  1.00  0.00    -0.085 SA 
BRANCH  14  15
HETATM   15  C   UNL     1      -8.008   5.045  69.272  1.00  0.00    -0.079 C  
HETATM   16  N   UNL     1      -8.604   5.654  70.236  1.00  0.00    -0.129 N  
HETATM   17  H   UNL     1      -8.744   6.664  70.226  1.00  0.00     0.000 HD 
HETATM   18  C   UNL     1      -6.996   2.953  68.221  1.00  0.00    -0.049 C  
HETATM   19  C   UNL     1      -9.044   4.874  71.286  1.00  0.00    -0.142 C  
HETATM   20  N   UNL     1      -7.814   3.663  69.187  1.00  0.00    -0.052 NA 
HETATM   21  C   UNL     1      -9.225   3.365  71.132  1.00  0.00    -0.124 C  
HETATM   22  O   UNL     1      -9.211   5.308  72.426  1.00  0.00    -0.140 OA 
HETATM   23  H   UNL     1      -8.168   1.838  70.203  1.00  0.00     0.000 HD 
HETATM   24  N   UNL     1      -8.384   2.835  70.187  1.00  0.00    -0.044 N  
HETATM   25  O   UNL     1      -9.989   2.696  71.809  1.00  0.00    -0.161 OA 
ENDBRANCH  14  15
ENDBRANCH  13  14
ENDBRANCH   4  13
BRANCH   6  26
HETATM   26  N   UNL     1      -9.602  12.349  67.977  1.00  0.00    -0.205 N  
HETATM   27  O   UNL     1      -8.570  14.109  68.990  1.00  0.00    -0.044 OA 
HETATM   28  C   UNL     1      -9.575  13.680  68.427  1.00  0.00    -0.203 C  
HETATM   29  H   UNL     1      -8.759  11.832  68.225  1.00  0.00     0.000 HD 
BRANCH  28  30
HETATM   30  C   UNL     1     -10.798  14.557  68.426  1.00  0.00    -0.243 C  
BRANCH  30  31
HETATM   31  C   UNL     1     -11.841  14.536  69.460  1.00  0.00    -0.329 A  
HETATM   32  H2  UNL     1     -13.889  13.040  72.906  1.00  0.00     0.000 HD 
HETATM   33  C   UNL     1     -12.267  15.697  70.083  1.00  0.00    -0.361 A  
HETATM   34  H1  UNL     1     -13.255  11.742  71.894  1.00  0.00     0.000 HD 
HETATM   35  N   UNL     1     -12.225  13.363  70.131  1.00  0.00    -0.332 NA 
HETATM   36  N   UNL     1     -13.390  12.738  72.069  1.00  0.00    -0.501 NA 
HETATM   37  S   UNL     1     -13.145  15.331  71.504  1.00  0.00    -0.475 SA 
HETATM   38  C   UNL     1     -12.918  13.653  71.209  1.00  0.00    -0.322 A  
ENDBRANCH  30  31
BRANCH  30  39
HETATM   39  N   UNL     1     -11.167  15.257  67.405  1.00  0.00    -0.328 NA 
HETATM   40  H   UNL     1     -11.860  15.994  67.535  1.00  0.00     0.000 HD 
BRANCH  39  41
HETATM   41  O   UNL     1     -10.646  15.036  66.130  1.00  0.00    -0.290 OA 
HETATM   42  C   UNL     1     -11.474  14.872  64.995  1.00  0.00    -0.379 C  
ENDBRANCH  39  41
ENDBRANCH  30  39
ENDBRANCH  28  30
ENDBRANCH   6  26
TORSDOF 8
ENDMDL
MODEL      173
REMARK 921   NORMALIZED FREE ENERGY PREDICTED BY IDOCK:   -5.64 KCAL/MOL
REMARK 922        TOTAL FREE ENERGY PREDICTED BY IDOCK:   -9.54 KCAL/MOL
REMARK 923 INTER-LIGAND FREE ENERGY PREDICTED BY IDOCK:   -7.58 KCAL/MOL
REMARK 924 INTRA-LIGAND FREE ENERGY PREDICTED BY IDOCK:   -1.96 KCAL/MOL
REMARK 927      BINDING AFFINITY PREDICTED BY RF-SCORE:    0.00 PKD
ROOT
HETATM    1  C   UNL     1     -11.013   9.028  71.031  1.00  0.00    -0.284 C  
HETATM    2  S   UNL     1     -12.321   7.847  71.210  1.00  0.00    -0.244 SA 
HETATM    3  C   UNL     1     -11.563   6.261  70.696  1.00  0.00    -0.281 C  
HETATM    4  C   UNL     1     -10.105   6.223  70.337  1.00  0.00    -0.226 C  
HETATM    5  CA  UNL     1      -9.286   7.318  70.330  1.00  0.00    -0.155 C  
HETATM    6  CA  UNL     1     -10.861  10.331  70.134  1.00  0.00    -0.302 C  
HETATM    7  C   UNL     1      -9.387   9.823  70.054  1.00  0.00    -0.235 C  
HETATM    8  N   UNL     1      -9.753   8.594  70.503  1.00  0.00    -0.173 N  
HETATM    9  C   UNL     1      -7.808   7.122  70.110  1.00  0.00    -0.108 C  
HETATM   10  O   UNL     1      -8.393  10.247  69.516  1.00  0.00    -0.164 OA 
HETATM   11  O   UNL     1      -7.156   8.038  69.368  1.00  0.00    -0.060 OA 
HETATM   12  OXT UNL     1      -7.199   6.182  70.596  1.00  0.00    -0.072 OA 
ENDROOT
BRANCH   4  13
HETATM   13  C   UNL     1      -9.561   4.835  69.879  1.00  0.00    -0.181 C  
BRANCH  13  14
HETATM   14  S   UNL     1      -9.628   4.346  68.110  1.00  0.00    -0.117 SA 
BRANCH  14  15
HETATM   15  C   UNL     1      -8.405   5.326  67.265  1.00  0.00    -0.107 C  
HETATM   16  N   UNL     1      -8.867   6.364  66.660  1.00  0.00    -0.126 N  
HETATM   17  H   UNL     1      -9.838   6.657  66.765  1.00  0.00     0.000 HD 
HETATM   18  C   UNL     1      -6.557   3.627  67.719  1.00  0.00    -0.042 C  
HETATM   19  C   UNL     1      -7.984   7.062  65.862  1.00  0.00    -0.113 C  
HETATM   20  N   UNL     1      -7.081   4.882  67.209  1.00  0.00    -0.065 NA 
HETATM   21  C   UNL     1      -6.473   6.902  66.021  1.00  0.00    -0.051 C  
HETATM   22  O   UNL     1      -8.338   7.761  64.912  1.00  0.00    -0.136 OA 
HETATM   23  H   UNL     1      -5.185   5.311  66.367  1.00  0.00     0.000 HD 
HETATM   24  N   UNL     1      -6.130   5.667  66.509  1.00  0.00    -0.029 N  
HETATM   25  O   UNL     1      -5.658   7.752  65.701  1.00  0.00    -0.032 OA 
ENDBRANCH  14  15
ENDBRANCH  13  14
ENDBRANCH   4  13
BRANCH   6  26
HETATM   26  N   UNL     1     -11.383  10.765  68.757  1.00  0.00    -0.269 N  
HETATM   27  O   UNL     1     -12.141  12.033  67.024  1.00  0.00    -0.603 OA 
HETATM   28  C   UNL     1     -11.657  12.003  68.154  1.00  0.00    -0.340 C  
HETATM   29  H   UNL     1     -11.574   9.975  68.141  1.00  0.00     0.000 HD 
BRANCH  28  30
HETATM   30  C   UNL     1     -11.205  13.309  68.750  1.00  0.00    -0.276 C  
BRANCH  30  31
HETATM   31  C   UNL     1     -11.804  13.938  69.934  1.00  0.00    -0.328 A  
HETATM   32  H2  UNL     1     -13.759  14.021  73.739  1.00  0.00     0.000 HD 
HETATM   33  C   UNL     1     -11.216  15.031  70.550  1.00  0.00    -0.248 A  
HETATM   34  H1  UNL     1     -14.353  12.713  72.715  1.00  0.00     0.000 HD 
HETATM   35  N   UNL     1     -12.779  13.304  70.723  1.00  0.00    -0.255 NA 
HETATM   36  N   UNL     1     -13.740  13.517  72.853  1.00  0.00    -0.548 NA 
HETATM   37  S   UNL     1     -11.874  15.270  72.110  1.00  0.00    -0.456 SA 
HETATM   38  C   UNL     1     -12.908  13.916  71.878  1.00  0.00    -0.322 A  
ENDBRANCH  30  31
BRANCH  30  39
HETATM   39  N   UNL     1     -10.395  14.118  68.151  1.00  0.00    -0.234 NA 
HETATM   40  H   UNL     1     -10.437  15.113  68.371  1.00  0.00     0.000 HD 
BRANCH  39  41
HETATM   41  O   UNL     1      -9.464  13.672  67.212  1.00  0.00    -0.215 OA 
HETATM   42  C   UNL     1      -8.146  13.308  67.571  1.00  0.00    -0.186 C  
ENDBRANCH  39  41
ENDBRANCH  30  39
ENDBRANCH  28  30
ENDBRANCH   6  26
TORSDOF 8
ENDMDL
MODEL      174
REMARK 921   NORMALIZED FREE ENERGY PREDICTED BY IDOCK:   -5.63 KCAL/MOL
REMARK 922        TOTAL FREE ENERGY PREDICTED BY IDOCK:   -9.52 KCAL/MOL
REMARK 923 INTER-LIGAND FREE ENERGY PREDICTED BY IDOCK:   -8.45 KCAL/MOL
REMARK 924 INTRA-LIGAND FREE ENERGY PREDICTED BY IDOCK:   -1.07 KCAL/MOL
REMARK 927      BINDING AFFINITY PREDICTED BY RF-SCORE:    0.00 PKD
ROOT
HETATM    1  C   UNL     1     -11.655   9.699  69.359  1.00  0.00     0.199 C  
HETATM    2  S   UNL     1     -11.997  10.746  70.747  1.00  0.00    -0.355 SA 
HETATM    3  C   UNL     1     -11.848  12.442  70.073  1.00  0.00    -0.288 C  
HETATM    4  C   UNL     1     -11.579  12.632  68.607  1.00  0.00    -0.356 C  
HETATM    5  CA  UNL     1     -11.396  11.608  67.719  1.00  0.00    -0.288 C  
HETATM    6  CA  UNL     1     -10.526   8.614  69.089  1.00  0.00    -0.211 C  
HETATM    7  C   UNL     1     -10.624   9.208  67.649  1.00  0.00    -0.242 C  
HETATM    8  N   UNL     1     -11.289  10.300  68.110  1.00  0.00    -0.233 N  
HETATM    9  C   UNL     1     -11.297  11.925  66.250  1.00  0.00    -0.334 C  
HETATM   10  O   UNL     1     -10.065   8.956  66.609  1.00  0.00    -0.256 OA 
HETATM   11  O   UNL     1     -10.422  11.214  65.511  1.00  0.00    -0.262 OA 
HETATM   12  OXT UNL     1     -11.990  12.780  65.722  1.00  0.00    -0.409 OA 
ENDROOT
BRANCH   4  13
HETATM   13  C   UNL     1     -11.435  14.111  68.135  1.00  0.00    -0.310 C  
BRANCH  13  14
HETATM   14  S   UNL     1      -9.772  14.866  67.932  1.00  0.00    -0.208 SA 
BRANCH  14  15
HETATM   15  C   UNL     1     -10.033  16.498  67.269  1.00  0.00    -0.264 C  
HETATM   16  N   UNL     1      -9.913  17.454  68.122  1.00  0.00    -0.291 N  
HETATM   17  H   UNL     1      -9.577  17.286  69.070  1.00  0.00     0.000 HD 
HETATM   18  C   UNL     1     -10.769  15.590  65.002  1.00  0.00    -0.441 C  
HETATM   19  C   UNL     1     -10.261  18.718  67.692  1.00  0.00    -0.399 C  
HETATM   20  N   UNL     1     -10.444  16.648  65.941  1.00  0.00    -0.340 NA 
HETATM   21  C   UNL     1     -10.353  19.053  66.204  1.00  0.00    -0.468 C  
HETATM   22  O   UNL     1     -10.625  19.615  68.454  1.00  0.00    -0.361 OA 
HETATM   23  H   UNL     1     -11.068  18.084  64.514  1.00  0.00     0.000 HD 
HETATM   24  N   UNL     1     -10.669  17.957  65.444  1.00  0.00    -0.114 N  
HETATM   25  O   UNL     1     -10.216  20.176  65.747  1.00  0.00    -0.448 OA 
ENDBRANCH  14  15
ENDBRANCH  13  14
ENDBRANCH   4  13
BRANCH   6  26
HETATM   26  N   UNL     1      -9.065   8.438  69.527  1.00  0.00    -0.152 N  
HETATM   27  O   UNL     1      -7.195   7.717  70.609  1.00  0.00    -0.060 OA 
HETATM   28  C   UNL     1      -8.400   7.573  70.412  1.00  0.00    -0.128 C  
HETATM   29  H   UNL     1      -8.435   9.099  69.074  1.00  0.00     0.000 HD 
BRANCH  28  30
HETATM   30  C   UNL     1      -9.056   6.347  70.987  1.00  0.00    -0.154 C  
BRANCH  30  31
HETATM   31  C   UNL     1      -9.340   5.120  70.232  1.00  0.00    -0.156 A  
HETATM   32  H2  UNL     1      -9.254   2.522  66.833  1.00  0.00     0.000 HD 
HETATM   33  C   UNL     1      -9.225   3.867  70.813  1.00  0.00    -0.128 A  
HETATM   34  H1  UNL     1      -9.429   4.216  66.371  1.00  0.00     0.000 HD 
HETATM   35  N   UNL     1      -9.401   5.085  68.829  1.00  0.00    -0.122 NA 
HETATM   36  N   UNL     1      -9.341   3.504  67.096  1.00  0.00    -0.194 NA 
HETATM   37  S   UNL     1      -9.192   2.647  69.616  1.00  0.00    -0.115 SA 
HETATM   38  C   UNL     1      -9.340   3.847  68.393  1.00  0.00    -0.163 A  
ENDBRANCH  30  31
BRANCH  30  39
HETATM   39  N   UNL     1      -9.636   6.329  72.141  1.00  0.00    -0.151 NA 
HETATM   40  H   UNL     1     -10.654   6.289  72.182  1.00  0.00     0.000 HD 
BRANCH  39  41
HETATM   41  O   UNL     1      -8.913   6.364  73.333  1.00  0.00    -0.125 OA 
HETATM   42  C   UNL     1      -9.186   5.484  74.407  1.00  0.00    -0.124 C  
ENDBRANCH  39  41
ENDBRANCH  30  39
ENDBRANCH  28  30
ENDBRANCH   6  26
TORSDOF 8
ENDMDL
MODEL      175
REMARK 921   NORMALIZED FREE ENERGY PREDICTED BY IDOCK:   -5.62 KCAL/MOL
REMARK 922        TOTAL FREE ENERGY PREDICTED BY IDOCK:   -9.50 KCAL/MOL
REMARK 923 INTER-LIGAND FREE ENERGY PREDICTED BY IDOCK:   -7.84 KCAL/MOL
REMARK 924 INTRA-LIGAND FREE ENERGY PREDICTED BY IDOCK:   -1.67 KCAL/MOL
REMARK 927      BINDING AFFINITY PREDICTED BY RF-SCORE:    0.00 PKD
ROOT
HETATM    1  C   UNL     1     -10.611   8.124  69.580  1.00  0.00    -0.223 C  
HETATM    2  S   UNL     1     -11.255   8.808  71.083  1.00  0.00    -0.298 SA 
HETATM    3  C   UNL     1     -11.659  10.540  70.647  1.00  0.00    -0.352 C  
HETATM    4  C   UNL     1     -11.479  11.005  69.230  1.00  0.00    -0.370 C  
HETATM    5  CA  UNL     1     -10.989  10.223  68.220  1.00  0.00    -0.264 C  
HETATM    6  CA  UNL     1      -9.199   7.499  69.207  1.00  0.00    -0.144 C  
HETATM    7  C   UNL     1      -9.495   8.224  67.856  1.00  0.00    -0.146 C  
HETATM    8  N   UNL     1     -10.467   8.976  68.436  1.00  0.00    -0.207 N  
HETATM    9  C   UNL     1     -11.010  10.755  66.811  1.00  0.00    -0.148 C  
HETATM   10  O   UNL     1      -8.895   8.308  66.812  1.00  0.00    -0.130 OA 
HETATM   11  O   UNL     1      -9.962  10.466  66.015  1.00  0.00    -0.218 OA 
HETATM   12  OXT UNL     1     -11.944  11.412  66.378  1.00  0.00    -0.214 OA 
ENDROOT
BRANCH   4  13
HETATM   13  C   UNL     1     -11.816  12.504  68.966  1.00  0.00    -0.296 C  
BRANCH  13  14
HETATM   14  S   UNL     1     -10.472  13.741  68.769  1.00  0.00    -0.173 SA 
BRANCH  14  15
HETATM   15  C   UNL     1     -10.746  14.543  67.203  1.00  0.00    -0.286 C  
HETATM   16  N   UNL     1     -11.848  14.227  66.618  1.00  0.00    -0.408 N  
HETATM   17  H   UNL     1     -12.554  13.655  67.080  1.00  0.00     0.000 HD 
HETATM   18  C   UNL     1      -8.420  15.590  67.198  1.00  0.00    -0.212 C  
HETATM   19  C   UNL     1     -12.027  14.699  65.334  1.00  0.00    -0.275 C  
HETATM   20  N   UNL     1      -9.748  15.356  66.658  1.00  0.00    -0.241 NA 
HETATM   21  C   UNL     1     -11.208  15.872  64.798  1.00  0.00    -0.355 C  
HETATM   22  O   UNL     1     -12.761  14.153  64.509  1.00  0.00    -0.656 OA 
HETATM   23  H   UNL     1      -9.227  16.475  64.936  1.00  0.00     0.000 HD 
HETATM   24  N   UNL     1      -9.979  15.965  65.398  1.00  0.00    -0.268 N  
HETATM   25  O   UNL     1     -11.579  16.610  63.899  1.00  0.00    -1.204 OA 
ENDBRANCH  14  15
ENDBRANCH  13  14
ENDBRANCH   4  13
BRANCH   6  26
HETATM   26  N   UNL     1      -7.754   7.735  69.668  1.00  0.00    -0.099 N  
HETATM   27  O   UNL     1      -5.649   7.399  70.470  1.00  0.00    -0.024 OA 
HETATM   28  C   UNL     1      -6.708   6.900  70.092  1.00  0.00    -0.055 C  
HETATM   29  H   UNL     1      -7.496   8.722  69.666  1.00  0.00     0.000 HD 
BRANCH  28  30
HETATM   30  C   UNL     1      -6.749   5.405  69.924  1.00  0.00    -0.051 C  
BRANCH  30  31
HETATM   31  C   UNL     1      -6.781   4.442  71.032  1.00  0.00    -0.035 A  
HETATM   32  H2  UNL     1      -8.298   2.666  74.617  1.00  0.00     0.000 HD 
HETATM   33  C   UNL     1      -6.533   3.094  70.828  1.00  0.00    -0.027 A  
HETATM   34  H1  UNL     1      -8.462   4.422  74.624  1.00  0.00     0.000 HD 
HETATM   35  N   UNL     1      -7.384   4.722  72.269  1.00  0.00    -0.080 NA 
HETATM   36  N   UNL     1      -8.156   3.567  74.160  1.00  0.00    -0.074 NA 
HETATM   37  S   UNL     1      -7.052   2.175  72.173  1.00  0.00    -0.031 SA 
HETATM   38  C   UNL     1      -7.568   3.616  72.955  1.00  0.00    -0.065 A  
ENDBRANCH  30  31
BRANCH  30  39
HETATM   39  N   UNL     1      -6.535   4.813  68.796  1.00  0.00    -0.036 NA 
HETATM   40  H   UNL     1      -5.769   4.143  68.727  1.00  0.00     0.000 HD 
BRANCH  39  41
HETATM   41  O   UNL     1      -7.319   5.062  67.670  1.00  0.00    -0.076 OA 
HETATM   42  C   UNL     1      -8.252   4.121  67.177  1.00  0.00    -0.100 C  
ENDBRANCH  39  41
ENDBRANCH  30  39
ENDBRANCH  28  30
ENDBRANCH   6  26
TORSDOF 8
ENDMDL
MODEL      176
REMARK 921   NORMALIZED FREE ENERGY PREDICTED BY IDOCK:   -5.61 KCAL/MOL
REMARK 922        TOTAL FREE ENERGY PREDICTED BY IDOCK:   -9.50 KCAL/MOL
REMARK 923 INTER-LIGAND FREE ENERGY PREDICTED BY IDOCK:   -7.65 KCAL/MOL
REMARK 924 INTRA-LIGAND FREE ENERGY PREDICTED BY IDOCK:   -1.85 KCAL/MOL
REMARK 927      BINDING AFFINITY PREDICTED BY RF-SCORE:    0.00 PKD
ROOT
HETATM    1  C   UNL     1     -10.464  16.909  67.020  1.00  0.00    -0.281 C  
HETATM    2  S   UNL     1     -10.592  16.834  65.254  1.00  0.00    -0.039 SA 
HETATM    3  C   UNL     1     -11.151  15.123  64.920  1.00  0.00    -0.414 C  
HETATM    4  C   UNL     1     -11.455  14.208  66.072  1.00  0.00    -0.343 C  
HETATM    5  CA  UNL     1     -11.308  14.553  67.387  1.00  0.00    -0.356 C  
HETATM    6  CA  UNL     1      -9.240  17.189  67.994  1.00  0.00    -0.250 C  
HETATM    7  C   UNL     1      -9.977  16.115  68.853  1.00  0.00    -0.233 C  
HETATM    8  N   UNL     1     -10.720  15.724  67.785  1.00  0.00    -0.299 N  
HETATM    9  C   UNL     1     -11.801  13.604  68.449  1.00  0.00    -0.372 C  
HETATM   10  O   UNL     1      -9.755  15.622  69.933  1.00  0.00    -0.283 OA 
HETATM   11  O   UNL     1     -11.067  13.482  69.572  1.00  0.00    -0.175 OA 
HETATM   12  OXT UNL     1     -12.838  12.972  68.324  1.00  0.00     0.814 OA 
ENDROOT
BRANCH   4  13
HETATM   13  C   UNL     1     -11.890  12.762  65.686  1.00  0.00    -0.425 C  
BRANCH  13  14
HETATM   14  S   UNL     1     -10.637  11.512  65.194  1.00  0.00    -0.291 SA 
BRANCH  14  15
HETATM   15  C   UNL     1      -9.419  11.475  66.493  1.00  0.00    -0.204 C  
HETATM   16  N   UNL     1      -8.402  12.240  66.304  1.00  0.00    -0.381 N  
HETATM   17  H   UNL     1      -8.367  12.900  65.527  1.00  0.00     0.000 HD 
HETATM   18  C   UNL     1     -10.600   9.569  67.709  1.00  0.00    -0.261 C  
HETATM   19  C   UNL     1      -7.362  12.125  67.203  1.00  0.00    -0.124 C  
HETATM   20  N   UNL     1      -9.566  10.576  67.554  1.00  0.00    -0.159 NA 
HETATM   21  C   UNL     1      -7.564  11.478  68.572  1.00  0.00    -0.130 C  
HETATM   22  O   UNL     1      -6.199  12.425  66.932  1.00  0.00    -0.210 OA 
HETATM   23  H   UNL     1      -8.604   9.831  69.288  1.00  0.00     0.000 HD 
HETATM   24  N   UNL     1      -8.571  10.548  68.563  1.00  0.00    -0.128 N  
HETATM   25  O   UNL     1      -6.875  11.720  69.550  1.00  0.00    -0.101 OA 
ENDBRANCH  14  15
ENDBRANCH  13  14
ENDBRANCH   4  13
BRANCH   6  26
HETATM   26  N   UNL     1      -7.729  16.927  67.938  1.00  0.00    -0.170 N  
HETATM   27  O   UNL     1      -5.504  17.133  67.496  1.00  0.00    -0.116 OA 
HETATM   28  C   UNL     1      -6.622  17.645  67.457  1.00  0.00    -0.162 C  
HETATM   29  H   UNL     1      -7.470  16.027  68.342  1.00  0.00     0.000 HD 
BRANCH  28  30
HETATM   30  C   UNL     1      -6.708  19.096  67.070  1.00  0.00    -0.197 C  
BRANCH  30  31
HETATM   31  C   UNL     1      -6.211  19.653  65.805  1.00  0.00    -0.196 A  
HETATM   32  H2  UNL     1      -5.320  19.643  61.619  1.00  0.00     0.000 HD 
HETATM   33  C   UNL     1      -6.467  20.965  65.440  1.00  0.00    -0.151 A  
HETATM   34  H1  UNL     1      -5.045  18.067  62.361  1.00  0.00     0.000 HD 
HETATM   35  N   UNL     1      -5.763  18.851  64.742  1.00  0.00    -0.255 NA 
HETATM   36  N   UNL     1      -5.321  19.045  62.446  1.00  0.00    -0.234 NA 
HETATM   37  S   UNL     1      -6.152  21.201  63.776  1.00  0.00    -0.269 SA 
HETATM   38  C   UNL     1      -5.686  19.552  63.633  1.00  0.00    -0.289 A  
ENDBRANCH  30  31
BRANCH  30  39
HETATM   39  N   UNL     1      -7.023  20.034  67.900  1.00  0.00    -0.266 NA 
HETATM   40  H   UNL     1      -7.156  20.982  67.549  1.00  0.00     0.000 HD 
BRANCH  39  41
HETATM   41  O   UNL     1      -7.187  19.789  69.264  1.00  0.00    -0.340 OA 
HETATM   42  C   UNL     1      -6.147  20.001  70.199  1.00  0.00    -0.358 C  
ENDBRANCH  39  41
ENDBRANCH  30  39
ENDBRANCH  28  30
ENDBRANCH   6  26
TORSDOF 8
ENDMDL
MODEL      177
REMARK 921   NORMALIZED FREE ENERGY PREDICTED BY IDOCK:   -5.61 KCAL/MOL
REMARK 922        TOTAL FREE ENERGY PREDICTED BY IDOCK:   -9.49 KCAL/MOL
REMARK 923 INTER-LIGAND FREE ENERGY PREDICTED BY IDOCK:   -7.58 KCAL/MOL
REMARK 924 INTRA-LIGAND FREE ENERGY PREDICTED BY IDOCK:   -1.91 KCAL/MOL
REMARK 927      BINDING AFFINITY PREDICTED BY RF-SCORE:    0.00 PKD
ROOT
HETATM    1  C   UNL     1     -10.105  11.929  66.853  1.00  0.00    -0.207 C  
HETATM    2  S   UNL     1     -10.763  10.641  65.829  1.00  0.00     0.056 SA 
HETATM    3  C   UNL     1      -9.279   9.838  65.115  1.00  0.00    -0.240 C  
HETATM    4  C   UNL     1      -7.914  10.299  65.540  1.00  0.00    -0.151 C  
HETATM    5  CA  UNL     1      -7.687  11.325  66.416  1.00  0.00    -0.089 C  
HETATM    6  CA  UNL     1     -10.268  13.509  66.823  1.00  0.00    -0.264 C  
HETATM    7  C   UNL     1      -8.771  13.441  67.259  1.00  0.00    -0.218 C  
HETATM    8  N   UNL     1      -8.687  12.138  66.879  1.00  0.00    -0.192 N  
HETATM    9  C   UNL     1      -6.280  11.584  66.886  1.00  0.00    -0.143 C  
HETATM   10  O   UNL     1      -7.947  14.281  67.527  1.00  0.00    -0.162 OA 
HETATM   11  O   UNL     1      -5.897  12.866  67.048  1.00  0.00    -0.306 OA 
HETATM   12  OXT UNL     1      -5.502  10.677  67.137  1.00  0.00    -0.040 OA 
ENDROOT
BRANCH   4  13
HETATM   13  C   UNL     1      -6.716   9.579  64.851  1.00  0.00    -0.094 C  
BRANCH  13  14
HETATM   14  S   UNL     1      -6.327   7.828  65.250  1.00  0.00    -0.038 SA 
BRANCH  14  15
HETATM   15  C   UNL     1      -6.933   7.536  66.899  1.00  0.00    -0.079 C  
HETATM   16  N   UNL     1      -6.125   7.875  67.841  1.00  0.00    -0.045 N  
HETATM   17  H   UNL     1      -5.260   8.381  67.648  1.00  0.00     0.000 HD 
HETATM   18  C   UNL     1      -9.008   6.320  66.049  1.00  0.00    -0.137 C  
HETATM   19  C   UNL     1      -6.484   7.522  69.125  1.00  0.00    -0.040 C  
HETATM   20  N   UNL     1      -8.155   6.882  67.081  1.00  0.00    -0.116 NA 
HETATM   21  C   UNL     1      -7.926   7.159  69.475  1.00  0.00    -0.128 C  
HETATM   22  O   UNL     1      -5.670   7.367  70.036  1.00  0.00    -0.023 OA 
HETATM   23  H   UNL     1      -9.439   6.073  68.559  1.00  0.00     0.000 HD 
HETATM   24  N   UNL     1      -8.605   6.639  68.404  1.00  0.00    -0.124 N  
HETATM   25  O   UNL     1      -8.406   7.268  70.592  1.00  0.00    -0.125 OA 
ENDBRANCH  14  15
ENDBRANCH  13  14
ENDBRANCH   4  13
BRANCH   6  26
HETATM   26  N   UNL     1     -10.486  14.555  65.721  1.00  0.00    -0.306 N  
HETATM   27  O   UNL     1     -10.803  16.533  64.637  1.00  0.00    -0.741 OA 
HETATM   28  C   UNL     1     -10.544  15.958  65.693  1.00  0.00    -0.378 C  
HETATM   29  H   UNL     1     -10.619  14.137  64.801  1.00  0.00     0.000 HD 
BRANCH  28  30
HETATM   30  C   UNL     1     -10.112  16.808  66.858  1.00  0.00    -0.286 C  
BRANCH  30  31
HETATM   31  C   UNL     1      -8.959  17.717  66.844  1.00  0.00    -0.255 A  
HETATM   32  H2  UNL     1      -5.967  20.199  65.056  1.00  0.00     0.000 HD 
HETATM   33  C   UNL     1      -8.842  18.752  67.758  1.00  0.00    -0.290 A  
HETATM   34  H1  UNL     1      -6.298  18.758  64.093  1.00  0.00     0.000 HD 
HETATM   35  N   UNL     1      -8.097  17.839  65.742  1.00  0.00    -0.531 NA 
HETATM   36  N   UNL     1      -6.474  19.323  64.924  1.00  0.00    -0.447 NA 
HETATM   37  S   UNL     1      -7.660  19.877  67.246  1.00  0.00    -0.283 SA 
HETATM   38  C   UNL     1      -7.364  18.925  65.846  1.00  0.00    -0.228 A  
ENDBRANCH  30  31
BRANCH  30  39
HETATM   39  N   UNL     1     -10.574  16.657  68.054  1.00  0.00    -0.325 NA 
HETATM   40  H   UNL     1     -10.052  17.047  68.839  1.00  0.00     0.000 HD 
BRANCH  39  41
HETATM   41  O   UNL     1     -11.765  15.977  68.307  1.00  0.00    -0.303 OA 
HETATM   42  C   UNL     1     -12.052  15.397  69.565  1.00  0.00    -0.305 C  
ENDBRANCH  39  41
ENDBRANCH  30  39
ENDBRANCH  28  30
ENDBRANCH   6  26
TORSDOF 8
ENDMDL
MODEL      178
REMARK 921   NORMALIZED FREE ENERGY PREDICTED BY IDOCK:   -5.61 KCAL/MOL
REMARK 922        TOTAL FREE ENERGY PREDICTED BY IDOCK:   -9.49 KCAL/MOL
REMARK 923 INTER-LIGAND FREE ENERGY PREDICTED BY IDOCK:   -8.15 KCAL/MOL
REMARK 924 INTRA-LIGAND FREE ENERGY PREDICTED BY IDOCK:   -1.34 KCAL/MOL
REMARK 927      BINDING AFFINITY PREDICTED BY RF-SCORE:    0.00 PKD
ROOT
HETATM    1  C   UNL     1     -11.633   9.408  70.761  1.00  0.00    -0.298 C  
HETATM    2  S   UNL     1     -12.656  10.773  71.241  1.00  0.00    -0.433 SA 
HETATM    3  C   UNL     1     -12.057  12.163  70.211  1.00  0.00    -0.302 C  
HETATM    4  C   UNL     1     -10.984  11.915  69.189  1.00  0.00    -0.251 C  
HETATM    5  CA  UNL     1     -10.378  10.705  68.988  1.00  0.00    -0.218 C  
HETATM    6  CA  UNL     1     -10.614   8.497  71.570  1.00  0.00    -0.263 C  
HETATM    7  C   UNL     1      -9.834   8.572  70.220  1.00  0.00    -0.182 C  
HETATM    8  N   UNL     1     -10.584   9.629  69.809  1.00  0.00    -0.227 N  
HETATM    9  C   UNL     1      -9.435  10.546  67.824  1.00  0.00    -0.149 C  
HETATM   10  O   UNL     1      -8.792   8.097  69.837  1.00  0.00    -0.137 OA 
HETATM   11  O   UNL     1      -8.334   9.792  68.007  1.00  0.00    -0.110 OA 
HETATM   12  OXT UNL     1      -9.652  11.059  66.737  1.00  0.00    -0.185 OA 
ENDROOT
BRANCH   4  13
HETATM   13  C   UNL     1     -10.517  13.167  68.386  1.00  0.00    -0.253 C  
BRANCH  13  14
HETATM   14  S   UNL     1     -11.747  14.356  67.716  1.00  0.00    -0.371 SA 
BRANCH  14  15
HETATM   15  C   UNL     1     -10.993  15.967  67.798  1.00  0.00    -0.315 C  
HETATM   16  N   UNL     1     -10.501  16.391  66.687  1.00  0.00    -0.293 N  
HETATM   17  H   UNL     1     -10.644  15.889  65.811  1.00  0.00     0.000 HD 
HETATM   18  C   UNL     1     -11.256  16.092  70.332  1.00  0.00    -0.381 C  
HETATM   19  C   UNL     1      -9.769  17.560  66.738  1.00  0.00    -0.295 C  
HETATM   20  N   UNL     1     -10.880  16.616  69.031  1.00  0.00    -0.322 NA 
HETATM   21  C   UNL     1      -9.896  18.526  67.915  1.00  0.00    -0.325 C  
HETATM   22  O   UNL     1      -8.898  17.848  65.917  1.00  0.00    -0.506 OA 
HETATM   23  H   UNL     1     -10.068  18.330  69.974  1.00  0.00     0.000 HD 
HETATM   24  N   UNL     1     -10.254  17.887  69.075  1.00  0.00    -0.352 N  
HETATM   25  O   UNL     1      -9.656  19.720  67.847  1.00  0.00    -0.343 OA 
ENDBRANCH  14  15
ENDBRANCH  13  14
ENDBRANCH   4  13
BRANCH   6  26
HETATM   26  N   UNL     1      -9.683   8.716  72.771  1.00  0.00    -0.161 N  
HETATM   27  O   UNL     1      -8.141   8.377  74.412  1.00  0.00    -0.249 OA 
HETATM   28  C   UNL     1      -8.690   7.947  73.400  1.00  0.00    -0.249 C  
HETATM   29  H   UNL     1      -9.816   9.625  73.212  1.00  0.00     0.000 HD 
BRANCH  28  30
HETATM   30  C   UNL     1      -8.124   6.697  72.782  1.00  0.00    -0.107 C  
BRANCH  30  31
HETATM   31  C   UNL     1      -8.657   5.345  72.995  1.00  0.00    -0.122 A  
HETATM   32  H2  UNL     1     -11.685   2.327  73.172  1.00  0.00     0.000 HD 
HETATM   33  C   UNL     1      -7.988   4.222  72.536  1.00  0.00    -0.088 A  
HETATM   34  H1  UNL     1     -12.270   3.890  73.742  1.00  0.00     0.000 HD 
HETATM   35  N   UNL     1      -9.995   5.100  73.347  1.00  0.00    -0.160 NA 
HETATM   36  N   UNL     1     -11.514   3.312  73.376  1.00  0.00    -0.113 NA 
HETATM   37  S   UNL     1      -9.023   2.860  72.541  1.00  0.00    -0.087 SA 
HETATM   38  C   UNL     1     -10.298   3.835  73.159  1.00  0.00    -0.165 A  
ENDBRANCH  30  31
BRANCH  30  39
HETATM   39  N   UNL     1      -6.981   6.659  72.181  1.00  0.00    -0.071 NA 
HETATM   40  H   UNL     1      -6.696   5.798  71.715  1.00  0.00     0.000 HD 
BRANCH  39  41
HETATM   41  O   UNL     1      -6.124   7.759  72.152  1.00  0.00    -0.039 OA 
HETATM   42  C   UNL     1      -5.522   8.215  70.956  1.00  0.00    -0.029 C  
ENDBRANCH  39  41
ENDBRANCH  30  39
ENDBRANCH  28  30
ENDBRANCH   6  26
TORSDOF 8
ENDMDL
MODEL      179
REMARK 921   NORMALIZED FREE ENERGY PREDICTED BY IDOCK:   -5.61 KCAL/MOL
REMARK 922        TOTAL FREE ENERGY PREDICTED BY IDOCK:   -9.49 KCAL/MOL
REMARK 923 INTER-LIGAND FREE ENERGY PREDICTED BY IDOCK:   -8.24 KCAL/MOL
REMARK 924 INTRA-LIGAND FREE ENERGY PREDICTED BY IDOCK:   -1.24 KCAL/MOL
REMARK 927      BINDING AFFINITY PREDICTED BY RF-SCORE:    0.00 PKD
ROOT
HETATM    1  C   UNL     1     -10.327   8.756  66.947  1.00  0.00    -0.274 C  
HETATM    2  S   UNL     1     -11.024   9.827  68.174  1.00  0.00    -0.113 SA 
HETATM    3  C   UNL     1     -10.917  11.494  67.423  1.00  0.00    -0.265 C  
HETATM    4  C   UNL     1     -10.397  11.639  66.021  1.00  0.00    -0.283 C  
HETATM    5  CA  UNL     1      -9.952  10.598  65.254  1.00  0.00    -0.294 C  
HETATM    6  CA  UNL     1      -9.067   7.787  66.962  1.00  0.00    -0.138 C  
HETATM    7  C   UNL     1      -8.950   8.295  65.490  1.00  0.00    -0.064 C  
HETATM    8  N   UNL     1      -9.793   9.330  65.747  1.00  0.00    -0.288 N  
HETATM    9  C   UNL     1      -9.609  10.851  63.810  1.00  0.00    -0.292 C  
HETATM   10  O   UNL     1      -8.183   8.054  64.589  1.00  0.00    -0.148 OA 
HETATM   11  O   UNL     1      -8.546  10.204  63.293  1.00  0.00    -0.166 OA 
HETATM   12  OXT UNL     1     -10.271  11.599  63.106  1.00  0.00    -0.385 OA 
ENDROOT
BRANCH   4  13
HETATM   13  C   UNL     1     -10.311  13.100  65.484  1.00  0.00    -0.290 C  
BRANCH  13  14
HETATM   14  S   UNL     1     -11.745  14.237  65.645  1.00  0.00    -0.366 SA 
BRANCH  14  15
HETATM   15  C   UNL     1     -11.147  15.695  66.474  1.00  0.00    -0.135 C  
HETATM   16  N   UNL     1     -10.543  16.541  65.714  1.00  0.00    -0.333 N  
HETATM   17  H   UNL     1     -10.523  16.430  64.701  1.00  0.00     0.000 HD 
HETATM   18  C   UNL     1     -11.764  14.784  68.775  1.00  0.00    -0.323 C  
HETATM   19  C   UNL     1      -9.925  17.605  66.338  1.00  0.00    -0.334 C  
HETATM   20  N   UNL     1     -11.259  15.795  67.864  1.00  0.00    -0.336 NA 
HETATM   21  C   UNL     1     -10.293  18.013  67.763  1.00  0.00    -0.393 C  
HETATM   22  O   UNL     1      -8.977  18.218  65.847  1.00  0.00    -0.497 OA 
HETATM   23  H   UNL     1     -10.729  17.002  69.523  1.00  0.00     0.000 HD 
HETATM   24  N   UNL     1     -10.752  16.955  68.504  1.00  0.00    -0.357 N  
HETATM   25  O   UNL     1     -10.146  19.139  68.211  1.00  0.00    -0.374 OA 
ENDBRANCH  14  15
ENDBRANCH  13  14
ENDBRANCH   4  13
BRANCH   6  26
HETATM   26  N   UNL     1      -7.705   7.793  67.669  1.00  0.00    -0.119 N  
HETATM   27  O   UNL     1      -6.074   7.553  69.241  1.00  0.00    -0.029 OA 
HETATM   28  C   UNL     1      -7.243   7.349  68.920  1.00  0.00    -0.089 C  
HETATM   29  H   UNL     1      -6.968   8.214  67.104  1.00  0.00     0.000 HD 
BRANCH  28  30
HETATM   30  C   UNL     1      -8.064   6.459  69.814  1.00  0.00    -0.121 C  
BRANCH  30  31
HETATM   31  C   UNL     1      -8.792   6.916  71.005  1.00  0.00    -0.140 A  
HETATM   32  H2  UNL     1      -9.205   8.541  74.941  1.00  0.00     0.000 HD 
HETATM   33  C   UNL     1      -9.955   7.661  70.902  1.00  0.00    -0.180 A  
HETATM   34  H1  UNL     1      -7.787   7.502  74.797  1.00  0.00     0.000 HD 
HETATM   35  N   UNL     1      -8.216   6.946  72.286  1.00  0.00    -0.104 NA 
HETATM   36  N   UNL     1      -8.615   7.927  74.380  1.00  0.00    -0.197 NA 
HETATM   37  S   UNL     1     -10.332   8.400  72.397  1.00  0.00    -0.302 SA 
HETATM   38  C   UNL     1      -8.936   7.685  73.100  1.00  0.00    -0.191 A  
ENDBRANCH  30  31
BRANCH  30  39
HETATM   39  N   UNL     1      -8.030   5.169  69.754  1.00  0.00    -0.077 NA 
HETATM   40  H   UNL     1      -7.175   4.684  70.028  1.00  0.00     0.000 HD 
BRANCH  39  41
HETATM   41  O   UNL     1      -9.125   4.420  69.326  1.00  0.00    -0.099 OA 
HETATM   42  C   UNL     1      -9.550   4.407  67.976  1.00  0.00    -0.148 C  
ENDBRANCH  39  41
ENDBRANCH  30  39
ENDBRANCH  28  30
ENDBRANCH   6  26
TORSDOF 8
ENDMDL
MODEL      180
REMARK 921   NORMALIZED FREE ENERGY PREDICTED BY IDOCK:   -5.60 KCAL/MOL
REMARK 922        TOTAL FREE ENERGY PREDICTED BY IDOCK:   -9.49 KCAL/MOL
REMARK 923 INTER-LIGAND FREE ENERGY PREDICTED BY IDOCK:   -7.36 KCAL/MOL
REMARK 924 INTRA-LIGAND FREE ENERGY PREDICTED BY IDOCK:   -2.13 KCAL/MOL
REMARK 927      BINDING AFFINITY PREDICTED BY RF-SCORE:    0.00 PKD
ROOT
HETATM    1  C   UNL     1      -9.530   6.279  67.431  1.00  0.00    -0.115 C  
HETATM    2  S   UNL     1     -10.736   6.580  68.694  1.00  0.00    -0.288 SA 
HETATM    3  C   UNL     1     -10.706   8.398  68.914  1.00  0.00    -0.068 C  
HETATM    4  C   UNL     1      -9.829   9.234  68.026  1.00  0.00    -0.191 C  
HETATM    5  CA  UNL     1      -9.001   8.725  67.063  1.00  0.00    -0.131 C  
HETATM    6  CA  UNL     1      -8.181   5.439  67.416  1.00  0.00    -0.100 C  
HETATM    7  C   UNL     1      -7.725   6.622  66.506  1.00  0.00    -0.102 C  
HETATM    8  N   UNL     1      -8.775   7.383  66.915  1.00  0.00    -0.122 N  
HETATM    9  C   UNL     1      -8.297   9.676  66.131  1.00  0.00    -0.119 C  
HETATM   10  O   UNL     1      -6.697   6.873  65.925  1.00  0.00    -0.050 OA 
HETATM   11  O   UNL     1      -7.033   9.382  65.770  1.00  0.00    -0.086 OA 
HETATM   12  OXT UNL     1      -8.843  10.675  65.688  1.00  0.00    -0.174 OA 
ENDROOT
BRANCH   4  13
HETATM   13  C   UNL     1      -9.847  10.766  68.313  1.00  0.00    -0.166 C  
BRANCH  13  14
HETATM   14  S   UNL     1     -11.441  11.670  68.450  1.00  0.00    -0.320 SA 
BRANCH  14  15
HETATM   15  C   UNL     1     -11.667  12.537  66.912  1.00  0.00    -0.377 C  
HETATM   16  N   UNL     1     -11.660  11.790  65.864  1.00  0.00    -0.230 N  
HETATM   17  H   UNL     1     -11.646  10.772  65.932  1.00  0.00     0.000 HD 
HETATM   18  C   UNL     1     -11.556  14.820  68.044  1.00  0.00    -0.343 C  
HETATM   19  C   UNL     1     -11.672  12.432  64.643  1.00  0.00    -0.365 C  
HETATM   20  N   UNL     1     -11.729  13.933  66.907  1.00  0.00    -0.376 NA 
HETATM   21  C   UNL     1     -12.113  13.890  64.517  1.00  0.00    -0.443 C  
HETATM   22  O   UNL     1     -11.233  11.928  63.609  1.00  0.00    -0.387 OA 
HETATM   23  H   UNL     1     -11.828  15.620  65.628  1.00  0.00     0.000 HD 
HETATM   24  N   UNL     1     -11.885  14.602  65.666  1.00  0.00    -0.314 N  
HETATM   25  O   UNL     1     -12.565  14.381  63.495  1.00  0.00    -0.784 OA 
ENDBRANCH  14  15
ENDBRANCH  13  14
ENDBRANCH   4  13
BRANCH   6  26
HETATM   26  N   UNL     1      -7.112   5.089  68.461  1.00  0.00    -0.057 N  
HETATM   27  O   UNL     1      -6.092   4.511  70.413  1.00  0.00    -0.019 OA 
HETATM   28  C   UNL     1      -7.145   4.654  69.796  1.00  0.00    -0.053 C  
HETATM   29  H   UNL     1      -6.163   5.195  68.105  1.00  0.00     0.000 HD 
BRANCH  28  30
HETATM   30  C   UNL     1      -8.407   4.165  70.455  1.00  0.00    -0.065 C  
BRANCH  30  31
HETATM   31  C   UNL     1      -9.091   4.850  71.559  1.00  0.00    -0.139 A  
HETATM   32  H2  UNL     1     -10.682   8.209  73.680  1.00  0.00     0.000 HD 
HETATM   33  C   UNL     1     -10.232   4.324  72.143  1.00  0.00    -0.164 A  
HETATM   34  H1  UNL     1      -9.176   8.600  72.850  1.00  0.00     0.000 HD 
HETATM   35  N   UNL     1      -8.873   6.203  71.869  1.00  0.00    -0.137 NA 
HETATM   36  N   UNL     1      -9.896   7.921  73.096  1.00  0.00    -0.288 NA 
HETATM   37  S   UNL     1     -11.035   5.511  73.076  1.00  0.00    -0.300 SA 
HETATM   38  C   UNL     1      -9.820   6.654  72.661  1.00  0.00    -0.168 A  
ENDBRANCH  30  31
BRANCH  30  39
HETATM   39  N   UNL     1      -8.892   2.983  70.267  1.00  0.00    -0.075 NA 
HETATM   40  H   UNL     1      -9.599   2.630  70.912  1.00  0.00     0.000 HD 
BRANCH  39  41
HETATM   41  O   UNL     1      -8.478   2.173  69.209  1.00  0.00    -0.048 OA 
HETATM   42  C   UNL     1      -9.312   1.893  68.102  1.00  0.00    -0.191 C  
ENDBRANCH  39  41
ENDBRANCH  30  39
ENDBRANCH  28  30
ENDBRANCH   6  26
TORSDOF 8
ENDMDL
MODEL      181
REMARK 921   NORMALIZED FREE ENERGY PREDICTED BY IDOCK:   -5.60 KCAL/MOL
REMARK 922        TOTAL FREE ENERGY PREDICTED BY IDOCK:   -9.47 KCAL/MOL
REMARK 923 INTER-LIGAND FREE ENERGY PREDICTED BY IDOCK:   -8.36 KCAL/MOL
REMARK 924 INTRA-LIGAND FREE ENERGY PREDICTED BY IDOCK:   -1.11 KCAL/MOL
REMARK 927      BINDING AFFINITY PREDICTED BY RF-SCORE:    0.00 PKD
ROOT
HETATM    1  C   UNL     1      -9.205   7.750  67.804  1.00  0.00    -0.136 C  
HETATM    2  S   UNL     1      -8.921   9.039  66.622  1.00  0.00    -0.141 SA 
HETATM    3  C   UNL     1     -10.061  10.376  67.137  1.00  0.00    -0.208 C  
HETATM    4  C   UNL     1     -10.884  10.205  68.383  1.00  0.00    -0.284 C  
HETATM    5  CA  UNL     1     -10.873   9.081  69.163  1.00  0.00    -0.089 C  
HETATM    6  CA  UNL     1      -9.720   6.254  67.655  1.00  0.00    -0.119 C  
HETATM    7  C   UNL     1     -10.421   6.605  69.004  1.00  0.00    -0.214 C  
HETATM    8  N   UNL     1     -10.220   7.934  68.800  1.00  0.00    -0.202 N  
HETATM    9  C   UNL     1     -11.617   9.096  70.472  1.00  0.00    -0.197 C  
HETATM   10  O   UNL     1     -11.126   5.980  69.759  1.00  0.00    -0.366 OA 
HETATM   11  O   UNL     1     -12.262   7.972  70.841  1.00  0.00    -0.238 OA 
HETATM   12  OXT UNL     1     -11.632  10.077  71.200  1.00  0.00    -0.355 OA 
ENDROOT
BRANCH   4  13
HETATM   13  C   UNL     1     -11.849  11.382  68.718  1.00  0.00    -0.323 C  
BRANCH  13  14
HETATM   14  S   UNL     1     -11.228  13.110  68.769  1.00  0.00    -0.296 SA 
BRANCH  14  15
HETATM   15  C   UNL     1     -12.032  13.899  70.148  1.00  0.00    -0.332 C  
HETATM   16  N   UNL     1     -12.596  13.094  70.979  1.00  0.00    -0.353 N  
HETATM   17  H   UNL     1     -12.479  12.083  70.907  1.00  0.00     0.000 HD 
HETATM   18  C   UNL     1     -11.646  16.232  69.192  1.00  0.00    -0.213 C  
HETATM   19  C   UNL     1     -13.364  13.664  71.973  1.00  0.00    -0.459 C  
HETATM   20  N   UNL     1     -12.105  15.294  70.201  1.00  0.00    -0.335 NA 
HETATM   21  C   UNL     1     -13.211  15.136  72.349  1.00  0.00    -0.395 C  
HETATM   22  O   UNL     1     -14.285  13.073  72.537  1.00  0.00    -0.597 OA 
HETATM   23  H   UNL     1     -12.928  16.906  71.301  1.00  0.00     0.000 HD 
HETATM   24  N   UNL     1     -12.773  15.898  71.296  1.00  0.00    -0.427 N  
HETATM   25  O   UNL     1     -13.496  15.595  73.443  1.00  0.00    -0.489 OA 
ENDBRANCH  14  15
ENDBRANCH  13  14
ENDBRANCH   4  13
BRANCH   6  26
HETATM   26  N   UNL     1     -10.674   5.528  66.697  1.00  0.00    -0.454 N  
HETATM   27  O   UNL     1     -11.485   4.265  64.983  1.00  0.00    -0.127 OA 
HETATM   28  C   UNL     1     -10.503   4.644  65.618  1.00  0.00    -0.227 C  
HETATM   29  H   UNL     1     -11.655   5.733  66.886  1.00  0.00     0.000 HD 
BRANCH  28  30
HETATM   30  C   UNL     1      -9.186   3.981  65.320  1.00  0.00    -0.151 C  
BRANCH  30  31
HETATM   31  C   UNL     1      -8.319   3.357  66.327  1.00  0.00    -0.103 A  
HETATM   32  H2  UNL     1      -7.357   1.656  70.134  1.00  0.00     0.000 HD 
HETATM   33  C   UNL     1      -7.421   2.356  65.991  1.00  0.00    -0.067 A  
HETATM   34  H1  UNL     1      -8.486   3.004  70.274  1.00  0.00     0.000 HD 
HETATM   35  N   UNL     1      -8.559   3.456  67.708  1.00  0.00    -0.095 NA 
HETATM   36  N   UNL     1      -7.906   2.397  69.696  1.00  0.00    -0.042 NA 
HETATM   37  S   UNL     1      -6.877   1.539  67.391  1.00  0.00    -0.032 SA 
HETATM   38  C   UNL     1      -7.856   2.563  68.366  1.00  0.00    -0.054 A  
ENDBRANCH  30  31
BRANCH  30  39
HETATM   39  N   UNL     1      -8.579   4.089  64.184  1.00  0.00    -0.102 NA 
HETATM   40  H   UNL     1      -8.677   3.341  63.498  1.00  0.00     0.000 HD 
BRANCH  39  41
HETATM   41  O   UNL     1      -7.795   5.199  63.868  1.00  0.00    -0.079 OA 
HETATM   42  C   UNL     1      -7.601   5.631  62.535  1.00  0.00    -0.063 C  
ENDBRANCH  39  41
ENDBRANCH  30  39
ENDBRANCH  28  30
ENDBRANCH   6  26
TORSDOF 8
ENDMDL
MODEL      182
REMARK 921   NORMALIZED FREE ENERGY PREDICTED BY IDOCK:   -5.59 KCAL/MOL
REMARK 922        TOTAL FREE ENERGY PREDICTED BY IDOCK:   -9.47 KCAL/MOL
REMARK 923 INTER-LIGAND FREE ENERGY PREDICTED BY IDOCK:   -8.02 KCAL/MOL
REMARK 924 INTRA-LIGAND FREE ENERGY PREDICTED BY IDOCK:   -1.45 KCAL/MOL
REMARK 927      BINDING AFFINITY PREDICTED BY RF-SCORE:    0.00 PKD
ROOT
HETATM    1  C   UNL     1     -10.675  16.503  65.838  1.00  0.00    -0.190 C  
HETATM    2  S   UNL     1     -10.502  14.910  65.081  1.00  0.00    -0.411 SA 
HETATM    3  C   UNL     1     -10.529  13.742  66.491  1.00  0.00    -0.282 C  
HETATM    4  C   UNL     1     -10.757  14.267  67.880  1.00  0.00    -0.244 C  
HETATM    5  CA  UNL     1     -10.913  15.591  68.185  1.00  0.00    -0.312 C  
HETATM    6  CA  UNL     1      -9.737  17.785  65.862  1.00  0.00    -0.017 C  
HETATM    7  C   UNL     1     -10.288  17.876  67.319  1.00  0.00    -0.369 C  
HETATM    8  N   UNL     1     -10.725  16.590  67.268  1.00  0.00    -0.287 N  
HETATM    9  C   UNL     1     -11.297  15.974  69.590  1.00  0.00    -0.332 C  
HETATM   10  O   UNL     1     -10.115  18.657  68.223  1.00  0.00    -0.355 OA 
HETATM   11  O   UNL     1     -10.742  17.085  70.113  1.00  0.00    -0.082 OA 
HETATM   12  OXT UNL     1     -12.098  15.325  70.245  1.00  0.00    -0.303 OA 
ENDROOT
BRANCH   4  13
HETATM   13  C   UNL     1     -10.728  13.200  69.015  1.00  0.00    -0.107 C  
BRANCH  13  14
HETATM   14  S   UNL     1     -11.597  11.594  68.807  1.00  0.00    -0.340 SA 
BRANCH  14  15
HETATM   15  C   UNL     1     -10.876  10.470  69.985  1.00  0.00    -0.259 C  
HETATM   16  N   UNL     1      -9.652  10.149  69.748  1.00  0.00    -0.348 N  
HETATM   17  H   UNL     1      -9.113  10.603  69.011  1.00  0.00     0.000 HD 
HETATM   18  C   UNL     1     -13.096  10.121  71.191  1.00  0.00    -0.392 C  
HETATM   19  C   UNL     1      -9.104   9.161  70.540  1.00  0.00    -0.241 C  
HETATM   20  N   UNL     1     -11.669   9.929  71.001  1.00  0.00    -0.351 NA 
HETATM   21  C   UNL     1      -9.728   8.782  71.882  1.00  0.00    -0.316 C  
HETATM   22  O   UNL     1      -8.163   8.452  70.181  1.00  0.00    -0.111 OA 
HETATM   23  H   UNL     1     -11.662   8.532  72.593  1.00  0.00     0.000 HD 
HETATM   24  N   UNL     1     -11.079   9.017  71.911  1.00  0.00    -0.373 N  
HETATM   25  O   UNL     1      -9.109   8.277  72.804  1.00  0.00    -0.230 OA 
ENDBRANCH  14  15
ENDBRANCH  13  14
ENDBRANCH   4  13
BRANCH   6  26
HETATM   26  N   UNL     1      -8.220  18.018  65.818  1.00  0.00     0.101 N  
HETATM   27  O   UNL     1      -6.040  18.247  66.436  1.00  0.00    -0.153 OA 
HETATM   28  C   UNL     1      -7.182  17.929  66.760  1.00  0.00    -0.203 C  
HETATM   29  H   UNL     1      -7.891  18.303  64.896  1.00  0.00     0.000 HD 
BRANCH  28  30
HETATM   30  C   UNL     1      -7.365  17.273  68.103  1.00  0.00    -0.199 C  
BRANCH  30  31
HETATM   31  C   UNL     1      -7.426  15.822  68.321  1.00  0.00    -0.116 A  
HETATM   32  H2  UNL     1      -6.469  11.720  67.572  1.00  0.00     0.000 HD 
HETATM   33  C   UNL     1      -7.408  15.280  69.596  1.00  0.00    -0.188 A  
HETATM   34  H1  UNL     1      -6.587  12.658  66.083  1.00  0.00     0.000 HD 
HETATM   35  N   UNL     1      -7.158  14.887  67.308  1.00  0.00    -0.214 NA 
HETATM   36  N   UNL     1      -6.647  12.606  67.100  1.00  0.00    -0.139 NA 
HETATM   37  S   UNL     1      -7.058  13.608  69.536  1.00  0.00     0.257 SA 
HETATM   38  C   UNL     1      -6.958  13.694  67.821  1.00  0.00    -0.162 A  
ENDBRANCH  30  31
BRANCH  30  39
HETATM   39  N   UNL     1      -7.711  17.921  69.166  1.00  0.00    -0.098 NA 
HETATM   40  H   UNL     1      -8.203  17.425  69.909  1.00  0.00     0.000 HD 
BRANCH  39  41
HETATM   41  O   UNL     1      -7.431  19.278  69.329  1.00  0.00    -0.317 OA 
HETATM   42  C   UNL     1      -6.178  19.739  69.797  1.00  0.00    -0.342 C  
ENDBRANCH  39  41
ENDBRANCH  30  39
ENDBRANCH  28  30
ENDBRANCH   6  26
TORSDOF 8
ENDMDL
MODEL      183
REMARK 921   NORMALIZED FREE ENERGY PREDICTED BY IDOCK:   -5.59 KCAL/MOL
REMARK 922        TOTAL FREE ENERGY PREDICTED BY IDOCK:   -9.47 KCAL/MOL
REMARK 923 INTER-LIGAND FREE ENERGY PREDICTED BY IDOCK:   -8.44 KCAL/MOL
REMARK 924 INTRA-LIGAND FREE ENERGY PREDICTED BY IDOCK:   -1.03 KCAL/MOL
REMARK 927      BINDING AFFINITY PREDICTED BY RF-SCORE:    0.00 PKD
ROOT
HETATM    1  C   UNL     1     -10.820  15.607  66.678  1.00  0.00    -0.266 C  
HETATM    2  S   UNL     1     -10.651  15.403  64.926  1.00  0.00    -0.252 SA 
HETATM    3  C   UNL     1     -10.688  13.588  64.683  1.00  0.00    -0.416 C  
HETATM    4  C   UNL     1     -10.918  12.690  65.866  1.00  0.00    -0.310 C  
HETATM    5  CA  UNL     1     -11.070  13.135  67.151  1.00  0.00    -0.279 C  
HETATM    6  CA  UNL     1      -9.876  16.262  67.775  1.00  0.00    -0.237 C  
HETATM    7  C   UNL     1     -10.432  15.078  68.627  1.00  0.00    -0.238 C  
HETATM    8  N   UNL     1     -10.874  14.442  67.510  1.00  0.00    -0.278 N  
HETATM    9  C   UNL     1     -11.457  12.149  68.222  1.00  0.00    -0.305 C  
HETATM   10  O   UNL     1     -10.259  14.725  69.768  1.00  0.00    -0.105 OA 
HETATM   11  O   UNL     1     -10.899  12.293  69.440  1.00  0.00    -0.109 OA 
HETATM   12  OXT UNL     1     -12.263  11.254  68.020  1.00  0.00    -0.621 OA 
ENDROOT
BRANCH   4  13
HETATM   13  C   UNL     1     -10.898  11.161  65.564  1.00  0.00    -0.136 C  
BRANCH  13  14
HETATM   14  S   UNL     1      -9.502  10.414  64.632  1.00  0.00    -0.307 SA 
BRANCH  14  15
HETATM   15  C   UNL     1      -8.919   9.041  65.605  1.00  0.00    -0.202 C  
HETATM   16  N   UNL     1      -9.812   8.156  65.882  1.00  0.00    -0.415 N  
HETATM   17  H   UNL     1     -10.744   8.189  65.470  1.00  0.00     0.000 HD 
HETATM   18  C   UNL     1      -6.629  10.108  65.957  1.00  0.00    -0.102 C  
HETATM   19  C   UNL     1      -9.446   7.160  66.764  1.00  0.00    -0.169 C  
HETATM   20  N   UNL     1      -7.608   9.045  66.091  1.00  0.00    -0.094 NA 
HETATM   21  C   UNL     1      -7.977   6.853  67.051  1.00  0.00    -0.116 C  
HETATM   22  O   UNL     1     -10.255   6.537  67.453  1.00  0.00    -0.140 OA 
HETATM   23  H   UNL     1      -6.260   7.984  67.335  1.00  0.00     0.000 HD 
HETATM   24  N   UNL     1      -7.175   7.952  66.885  1.00  0.00    -0.087 N  
HETATM   25  O   UNL     1      -7.569   5.769  67.436  1.00  0.00    -0.093 OA 
ENDBRANCH  14  15
ENDBRANCH  13  14
ENDBRANCH   4  13
BRANCH   6  26
HETATM   26  N   UNL     1      -8.358  16.415  67.947  1.00  0.00    -0.169 N  
HETATM   27  O   UNL     1      -6.205  17.115  67.699  1.00  0.00    -0.133 OA 
HETATM   28  C   UNL     1      -7.389  17.280  67.412  1.00  0.00    -0.163 C  
HETATM   29  H   UNL     1      -7.964  15.735  68.597  1.00  0.00     0.000 HD 
BRANCH  28  30
HETATM   30  C   UNL     1      -7.752  18.527  66.652  1.00  0.00    -0.245 C  
BRANCH  30  31
HETATM   31  C   UNL     1      -6.871  19.204  65.691  1.00  0.00    -0.274 A  
HETATM   32  H2  UNL     1      -4.945  19.812  61.919  1.00  0.00     0.000 HD 
HETATM   33  C   UNL     1      -6.831  20.586  65.593  1.00  0.00    -0.195 A  
HETATM   34  H1  UNL     1      -5.102  18.100  62.317  1.00  0.00     0.000 HD 
HETATM   35  N   UNL     1      -6.286  18.545  64.597  1.00  0.00    -0.295 NA 
HETATM   36  N   UNL     1      -5.246  19.080  62.563  1.00  0.00    -0.290 NA 
HETATM   37  S   UNL     1      -6.068  21.065  64.140  1.00  0.00    -0.276 SA 
HETATM   38  C   UNL     1      -5.826  19.415  63.726  1.00  0.00    -0.200 A  
ENDBRANCH  30  31
BRANCH  30  39
HETATM   39  N   UNL     1      -8.783  19.253  66.932  1.00  0.00    -0.288 NA 
HETATM   40  H   UNL     1      -9.522  19.351  66.236  1.00  0.00     0.000 HD 
BRANCH  39  41
HETATM   41  O   UNL     1      -8.917  19.907  68.157  1.00  0.00    -0.322 OA 
HETATM   42  C   UNL     1     -10.159  20.012  68.824  1.00  0.00    -0.308 C  
ENDBRANCH  39  41
ENDBRANCH  30  39
ENDBRANCH  28  30
ENDBRANCH   6  26
TORSDOF 8
ENDMDL
MODEL      184
REMARK 921   NORMALIZED FREE ENERGY PREDICTED BY IDOCK:   -5.59 KCAL/MOL
REMARK 922        TOTAL FREE ENERGY PREDICTED BY IDOCK:   -9.46 KCAL/MOL
REMARK 923 INTER-LIGAND FREE ENERGY PREDICTED BY IDOCK:   -8.05 KCAL/MOL
REMARK 924 INTRA-LIGAND FREE ENERGY PREDICTED BY IDOCK:   -1.42 KCAL/MOL
REMARK 927      BINDING AFFINITY PREDICTED BY RF-SCORE:    0.00 PKD
ROOT
HETATM    1  C   UNL     1     -10.909   8.910  68.446  1.00  0.00     0.010 C  
HETATM    2  S   UNL     1     -11.326  10.281  69.488  1.00  0.00    -0.221 SA 
HETATM    3  C   UNL     1     -10.971  11.751  68.454  1.00  0.00    -0.231 C  
HETATM    4  C   UNL     1     -10.522  11.561  67.033  1.00  0.00    -0.263 C  
HETATM    5  CA  UNL     1     -10.318  10.342  66.446  1.00  0.00    -0.195 C  
HETATM    6  CA  UNL     1      -9.845   7.740  68.591  1.00  0.00    -0.169 C  
HETATM    7  C   UNL     1      -9.731   7.965  67.051  1.00  0.00    -0.206 C  
HETATM    8  N   UNL     1     -10.358   9.167  67.149  1.00  0.00    -0.260 N  
HETATM    9  C   UNL     1     -10.027  10.283  64.970  1.00  0.00    -0.323 C  
HETATM   10  O   UNL     1      -9.077   7.439  66.183  1.00  0.00    -0.168 OA 
HETATM   11  O   UNL     1      -9.131   9.372  64.542  1.00  0.00    -0.222 OA 
HETATM   12  OXT UNL     1     -10.587  11.013  64.167  1.00  0.00    -0.371 OA 
ENDROOT
BRANCH   4  13
HETATM   13  C   UNL     1     -10.210  12.870  66.245  1.00  0.00    -0.278 C  
BRANCH  13  14
HETATM   14  S   UNL     1     -11.514  14.140  65.997  1.00  0.00    -0.352 SA 
BRANCH  14  15
HETATM   15  C   UNL     1     -10.847  15.678  66.597  1.00  0.00    -0.266 C  
HETATM   16  N   UNL     1     -10.040  16.270  65.788  1.00  0.00    -0.351 N  
HETATM   17  H   UNL     1      -9.898  15.937  64.834  1.00  0.00     0.000 HD 
HETATM   18  C   UNL     1     -11.883  15.364  68.906  1.00  0.00    -0.329 C  
HETATM   19  C   UNL     1      -9.378  17.379  66.272  1.00  0.00    -0.217 C  
HETATM   20  N   UNL     1     -11.131  16.093  67.901  1.00  0.00    -0.325 NA 
HETATM   21  C   UNL     1      -9.878  18.127  67.507  1.00  0.00    -0.313 C  
HETATM   22  O   UNL     1      -8.300  17.771  65.824  1.00  0.00    -0.529 OA 
HETATM   23  H   UNL     1     -10.676  17.577  69.343  1.00  0.00     0.000 HD 
HETATM   24  N   UNL     1     -10.568  17.309  68.365  1.00  0.00    -0.373 N  
HETATM   25  O   UNL     1      -9.646  19.303  67.734  1.00  0.00    -0.300 OA 
ENDBRANCH  14  15
ENDBRANCH  13  14
ENDBRANCH   4  13
BRANCH   6  26
HETATM   26  N   UNL     1      -8.462   7.609  69.245  1.00  0.00    -0.137 N  
HETATM   27  O   UNL     1      -6.778   7.032  70.667  1.00  0.00    -0.051 OA 
HETATM   28  C   UNL     1      -7.952   6.880  70.332  1.00  0.00    -0.114 C  
HETATM   29  H   UNL     1      -7.753   8.180  68.786  1.00  0.00     0.000 HD 
BRANCH  28  30
HETATM   30  C   UNL     1      -8.724   5.770  70.993  1.00  0.00    -0.134 C  
BRANCH  30  31
HETATM   31  C   UNL     1      -8.925   4.435  70.415  1.00  0.00    -0.092 A  
HETATM   32  H2  UNL     1      -8.995   1.500  67.302  1.00  0.00     0.000 HD 
HETATM   33  C   UNL     1      -8.504   3.290  71.073  1.00  0.00    -0.066 A  
HETATM   34  H1  UNL     1      -9.526   3.083  66.735  1.00  0.00     0.000 HD 
HETATM   35  N   UNL     1      -9.220   4.228  69.058  1.00  0.00    -0.132 NA 
HETATM   36  N   UNL     1      -9.198   2.482  67.490  1.00  0.00    -0.178 NA 
HETATM   37  S   UNL     1      -8.475   1.956  70.002  1.00  0.00    -0.050 SA 
HETATM   38  C   UNL     1      -9.030   2.970  68.729  1.00  0.00    -0.135 A  
ENDBRANCH  30  31
BRANCH  30  39
HETATM   39  N   UNL     1      -9.474   5.948  72.029  1.00  0.00    -0.150 NA 
HETATM   40  H   UNL     1      -9.049   6.278  72.896  1.00  0.00     0.000 HD 
BRANCH  39  41
HETATM   41  O   UNL     1     -10.847   5.702  72.000  1.00  0.00    -0.231 OA 
HETATM   42  C   UNL     1     -11.766   6.621  71.441  1.00  0.00    -0.324 C  
ENDBRANCH  39  41
ENDBRANCH  30  39
ENDBRANCH  28  30
ENDBRANCH   6  26
TORSDOF 8
ENDMDL
MODEL      185
REMARK 921   NORMALIZED FREE ENERGY PREDICTED BY IDOCK:   -5.58 KCAL/MOL
REMARK 922        TOTAL FREE ENERGY PREDICTED BY IDOCK:   -9.46 KCAL/MOL
REMARK 923 INTER-LIGAND FREE ENERGY PREDICTED BY IDOCK:   -8.12 KCAL/MOL
REMARK 924 INTRA-LIGAND FREE ENERGY PREDICTED BY IDOCK:   -1.34 KCAL/MOL
REMARK 927      BINDING AFFINITY PREDICTED BY RF-SCORE:    0.00 PKD
ROOT
HETATM    1  C   UNL     1     -10.173  12.259  67.785  1.00  0.00    -0.202 C  
HETATM    2  S   UNL     1      -8.578  11.647  67.318  1.00  0.00    -0.160 SA 
HETATM    3  C   UNL     1      -8.199  10.378  68.583  1.00  0.00    -0.121 C  
HETATM    4  C   UNL     1      -9.227  10.049  69.628  1.00  0.00    -0.236 C  
HETATM    5  CA  UNL     1     -10.443  10.667  69.732  1.00  0.00    -0.143 C  
HETATM    6  CA  UNL     1     -10.685  13.702  68.208  1.00  0.00    -0.254 C  
HETATM    7  C   UNL     1     -11.571  12.852  69.172  1.00  0.00    -0.322 C  
HETATM    8  N   UNL     1     -10.785  11.760  68.981  1.00  0.00    -0.200 N  
HETATM    9  C   UNL     1     -11.449  10.135  70.719  1.00  0.00    -0.357 C  
HETATM   10  O   UNL     1     -12.412  13.135  69.991  1.00  0.00    -0.203 OA 
HETATM   11  O   UNL     1     -12.208  11.027  71.385  1.00  0.00    -0.295 OA 
HETATM   12  OXT UNL     1     -11.601   8.938  70.911  1.00  0.00    -0.279 OA 
ENDROOT
BRANCH   4  13
HETATM   13  C   UNL     1      -8.799   8.982  70.680  1.00  0.00    -0.219 C  
BRANCH  13  14
HETATM   14  S   UNL     1      -8.299   7.296  70.147  1.00  0.00    -0.138 SA 
BRANCH  14  15
HETATM   15  C   UNL     1      -9.148   6.153  71.215  1.00  0.00    -0.143 C  
HETATM   16  N   UNL     1     -10.431   6.250  71.202  1.00  0.00    -0.216 N  
HETATM   17  H   UNL     1     -10.915   6.854  70.538  1.00  0.00     0.000 HD 
HETATM   18  C   UNL     1      -6.970   5.308  72.240  1.00  0.00    -0.080 C  
HETATM   19  C   UNL     1     -11.121   5.496  72.129  1.00  0.00    -0.210 C  
HETATM   20  N   UNL     1      -8.411   5.318  72.061  1.00  0.00    -0.120 NA 
HETATM   21  C   UNL     1     -10.471   4.299  72.822  1.00  0.00    -0.179 C  
HETATM   22  O   UNL     1     -12.244   5.791  72.540  1.00  0.00    -0.196 OA 
HETATM   23  H   UNL     1      -8.597   3.893  73.617  1.00  0.00     0.000 HD 
HETATM   24  N   UNL     1      -9.110   4.433  72.921  1.00  0.00    -0.119 N  
HETATM   25  O   UNL     1     -11.093   3.357  73.284  1.00  0.00    -0.186 OA 
ENDBRANCH  14  15
ENDBRANCH  13  14
ENDBRANCH   4  13
BRANCH   6  26
HETATM   26  N   UNL     1     -10.061  14.905  68.930  1.00  0.00    -0.231 N  
HETATM   27  O   UNL     1      -8.954  16.851  69.348  1.00  0.00    -0.040 OA 
HETATM   28  C   UNL     1      -9.418  16.081  68.509  1.00  0.00    -0.216 C  
HETATM   29  H   UNL     1     -10.127  14.833  69.945  1.00  0.00     0.000 HD 
BRANCH  28  30
HETATM   30  C   UNL     1      -9.440  16.544  67.078  1.00  0.00    -0.239 C  
BRANCH  30  31
HETATM   31  C   UNL     1      -8.346  17.270  66.419  1.00  0.00    -0.280 A  
HETATM   32  H2  UNL     1      -6.096  20.718  65.252  1.00  0.00     0.000 HD 
HETATM   33  C   UNL     1      -7.041  16.804  66.457  1.00  0.00    -0.219 A  
HETATM   34  H1  UNL     1      -7.833  21.028  65.260  1.00  0.00     0.000 HD 
HETATM   35  N   UNL     1      -8.453  18.613  66.020  1.00  0.00    -0.495 NA 
HETATM   36  N   UNL     1      -7.051  20.388  65.397  1.00  0.00    -0.241 NA 
HETATM   37  S   UNL     1      -5.948  18.036  65.997  1.00  0.00    -0.225 SA 
HETATM   38  C   UNL     1      -7.266  19.116  65.766  1.00  0.00    -0.248 A  
ENDBRANCH  30  31
BRANCH  30  39
HETATM   39  N   UNL     1     -10.507  16.549  66.350  1.00  0.00    -0.297 NA 
HETATM   40  H   UNL     1     -11.357  16.973  66.722  1.00  0.00     0.000 HD 
BRANCH  39  41
HETATM   41  O   UNL     1     -10.534  15.990  65.072  1.00  0.00    -0.558 OA 
HETATM   42  C   UNL     1     -11.734  15.554  64.464  1.00  0.00    -0.253 C  
ENDBRANCH  39  41
ENDBRANCH  30  39
ENDBRANCH  28  30
ENDBRANCH   6  26
TORSDOF 8
ENDMDL
MODEL      186
REMARK 921   NORMALIZED FREE ENERGY PREDICTED BY IDOCK:   -5.57 KCAL/MOL
REMARK 922        TOTAL FREE ENERGY PREDICTED BY IDOCK:   -9.44 KCAL/MOL
REMARK 923 INTER-LIGAND FREE ENERGY PREDICTED BY IDOCK:   -8.36 KCAL/MOL
REMARK 924 INTRA-LIGAND FREE ENERGY PREDICTED BY IDOCK:   -1.08 KCAL/MOL
REMARK 927      BINDING AFFINITY PREDICTED BY RF-SCORE:    0.00 PKD
ROOT
HETATM    1  C   UNL     1     -11.139  10.812  67.589  1.00  0.00    -0.319 C  
HETATM    2  S   UNL     1     -10.277   9.882  66.352  1.00  0.00    -0.192 SA 
HETATM    3  C   UNL     1      -9.802   8.335  67.210  1.00  0.00    -0.197 C  
HETATM    4  C   UNL     1     -10.250   8.109  68.626  1.00  0.00    -0.226 C  
HETATM    5  CA  UNL     1     -10.976   9.010  69.356  1.00  0.00    -0.065 C  
HETATM    6  CA  UNL     1     -10.860  12.229  68.252  1.00  0.00    -0.225 C  
HETATM    7  C   UNL     1     -11.409  11.489  69.512  1.00  0.00    -0.274 C  
HETATM    8  N   UNL     1     -11.237  10.280  68.916  1.00  0.00    -0.229 N  
HETATM    9  C   UNL     1     -11.502   8.598  70.705  1.00  0.00    -0.259 C  
HETATM   10  O   UNL     1     -11.606  11.830  70.653  1.00  0.00    -0.087 OA 
HETATM   11  O   UNL     1     -11.497   9.518  71.690  1.00  0.00    -0.381 OA 
HETATM   12  OXT UNL     1     -11.943   7.479  70.917  1.00  0.00    -0.298 OA 
ENDROOT
BRANCH   4  13
HETATM   13  C   UNL     1      -9.767   6.779  69.280  1.00  0.00    -0.151 C  
BRANCH  13  14
HETATM   14  S   UNL     1      -8.436   6.794  70.547  1.00  0.00    -0.139 SA 
BRANCH  14  15
HETATM   15  C   UNL     1      -8.966   5.706  71.853  1.00  0.00    -0.139 C  
HETATM   16  N   UNL     1     -10.229   5.460  71.874  1.00  0.00    -0.197 N  
HETATM   17  H   UNL     1     -10.848   5.773  71.126  1.00  0.00     0.000 HD 
HETATM   18  C   UNL     1      -6.654   5.679  72.930  1.00  0.00    -0.072 C  
HETATM   19  C   UNL     1     -10.706   4.753  72.959  1.00  0.00    -0.237 C  
HETATM   20  N   UNL     1      -8.044   5.277  72.813  1.00  0.00    -0.109 NA 
HETATM   21  C   UNL     1      -9.772   3.930  73.844  1.00  0.00    -0.107 C  
HETATM   22  O   UNL     1     -11.872   4.822  73.350  1.00  0.00    -0.218 OA 
HETATM   23  H   UNL     1      -7.866   4.192  74.624  1.00  0.00     0.000 HD 
HETATM   24  N   UNL     1      -8.495   4.431  73.857  1.00  0.00    -0.099 N  
HETATM   25  O   UNL     1     -10.129   2.970  74.506  1.00  0.00    -0.125 OA 
ENDBRANCH  14  15
ENDBRANCH  13  14
ENDBRANCH   4  13
BRANCH   6  26
HETATM   26  N   UNL     1      -9.600  13.042  68.581  1.00  0.00    -0.407 N  
HETATM   27  O   UNL     1      -8.107  14.751  68.769  1.00  0.00    -0.145 OA 
HETATM   28  C   UNL     1      -9.248  14.397  68.476  1.00  0.00    -0.198 C  
HETATM   29  H   UNL     1      -8.849  12.467  68.961  1.00  0.00     0.000 HD 
BRANCH  28  30
HETATM   30  C   UNL     1     -10.261  15.476  68.205  1.00  0.00    -0.222 C  
BRANCH  30  31
HETATM   31  C   UNL     1      -9.930  16.857  67.828  1.00  0.00    -0.278 A  
HETATM   32  H2  UNL     1     -10.573  20.655  65.967  1.00  0.00     0.000 HD 
HETATM   33  C   UNL     1      -9.350  17.735  68.730  1.00  0.00    -0.229 A  
HETATM   34  H1  UNL     1     -11.201  19.324  64.995  1.00  0.00     0.000 HD 
HETATM   35  N   UNL     1     -10.468  17.488  66.695  1.00  0.00    -0.305 NA 
HETATM   36  N   UNL     1     -10.721  19.655  65.832  1.00  0.00    -0.478 NA 
HETATM   37  S   UNL     1      -9.475  19.345  68.168  1.00  0.00    -0.365 SA 
HETATM   38  C   UNL     1     -10.283  18.787  66.757  1.00  0.00    -0.393 A  
ENDBRANCH  30  31
BRANCH  30  39
HETATM   39  N   UNL     1     -11.515  15.359  68.493  1.00  0.00    -0.335 NA 
HETATM   40  H   UNL     1     -12.110  14.792  67.889  1.00  0.00     0.000 HD 
BRANCH  39  41
HETATM   41  O   UNL     1     -12.080  15.985  69.605  1.00  0.00    -0.276 OA 
HETATM   42  C   UNL     1     -11.754  15.609  70.929  1.00  0.00    -0.387 C  
ENDBRANCH  39  41
ENDBRANCH  30  39
ENDBRANCH  28  30
ENDBRANCH   6  26
TORSDOF 8
ENDMDL
MODEL      187
REMARK 921   NORMALIZED FREE ENERGY PREDICTED BY IDOCK:   -5.57 KCAL/MOL
REMARK 922        TOTAL FREE ENERGY PREDICTED BY IDOCK:   -9.44 KCAL/MOL
REMARK 923 INTER-LIGAND FREE ENERGY PREDICTED BY IDOCK:   -7.95 KCAL/MOL
REMARK 924 INTRA-LIGAND FREE ENERGY PREDICTED BY IDOCK:   -1.48 KCAL/MOL
REMARK 927      BINDING AFFINITY PREDICTED BY RF-SCORE:    0.00 PKD
ROOT
HETATM    1  C   UNL     1     -10.289  12.809  68.308  1.00  0.00    -0.243 C  
HETATM    2  S   UNL     1     -11.784  11.858  68.258  1.00  0.00    -0.293 SA 
HETATM    3  C   UNL     1     -11.269  10.255  67.537  1.00  0.00    -0.117 C  
HETATM    4  C   UNL     1      -9.818  10.017  67.229  1.00  0.00    -0.225 C  
HETATM    5  CA  UNL     1      -8.830  10.944  67.418  1.00  0.00    -0.133 C  
HETATM    6  CA  UNL     1      -9.869  14.180  67.625  1.00  0.00    -0.229 C  
HETATM    7  C   UNL     1      -8.498  13.442  67.522  1.00  0.00    -0.192 C  
HETATM    8  N   UNL     1      -9.089  12.243  67.765  1.00  0.00    -0.183 N  
HETATM    9  C   UNL     1      -7.395  10.529  67.224  1.00  0.00    -0.091 C  
HETATM   10  O   UNL     1      -7.416  13.761  67.091  1.00  0.00    -0.092 OA 
HETATM   11  O   UNL     1      -6.555  11.415  66.654  1.00  0.00    -0.136 OA 
HETATM   12  OXT UNL     1      -6.980   9.438  67.584  1.00  0.00    -0.079 OA 
ENDROOT
BRANCH   4  13
HETATM   13  C   UNL     1      -9.484   8.637  66.586  1.00  0.00    -0.207 C  
BRANCH  13  14
HETATM   14  S   UNL     1     -10.177   7.089  67.293  1.00  0.00    -0.265 SA 
BRANCH  14  15
HETATM   15  C   UNL     1      -9.466   5.745  66.365  1.00  0.00    -0.156 C  
HETATM   16  N   UNL     1     -10.210   5.287  65.420  1.00  0.00    -0.376 N  
HETATM   17  H   UNL     1     -11.082   5.745  65.156  1.00  0.00     0.000 HD 
HETATM   18  C   UNL     1      -7.459   5.570  67.928  1.00  0.00    -0.080 C  
HETATM   19  C   UNL     1      -9.770   4.147  64.780  1.00  0.00    -0.184 C  
HETATM   20  N   UNL     1      -8.239   5.205  66.760  1.00  0.00    -0.108 NA 
HETATM   21  C   UNL     1      -8.310   3.704  64.862  1.00  0.00    -0.097 C  
HETATM   22  O   UNL     1     -10.524   3.361  64.206  1.00  0.00    -0.189 OA 
HETATM   23  H   UNL     1      -6.866   3.643  66.352  1.00  0.00     0.000 HD 
HETATM   24  N   UNL     1      -7.705   4.119  66.020  1.00  0.00    -0.089 N  
HETATM   25  O   UNL     1      -7.758   3.013  64.020  1.00  0.00    -0.074 OA 
ENDBRANCH  14  15
ENDBRANCH  13  14
ENDBRANCH   4  13
BRANCH   6  26
HETATM   26  N   UNL     1     -10.226  14.891  66.312  1.00  0.00    -0.282 N  
HETATM   27  O   UNL     1     -10.665  16.506  64.767  1.00  0.00    -0.719 OA 
HETATM   28  C   UNL     1     -10.267  16.233  65.898  1.00  0.00    -0.364 C  
HETATM   29  H   UNL     1     -10.496  14.242  65.573  1.00  0.00     0.000 HD 
BRANCH  28  30
HETATM   30  C   UNL     1      -9.659  17.346  66.708  1.00  0.00    -0.277 C  
BRANCH  30  31
HETATM   31  C   UNL     1      -8.261  17.386  67.155  1.00  0.00    -0.210 A  
HETATM   32  H2  UNL     1      -4.945  16.437  69.687  1.00  0.00     0.000 HD 
HETATM   33  C   UNL     1      -7.210  17.304  66.256  1.00  0.00    -0.300 A  
HETATM   34  H1  UNL     1      -6.443  16.633  70.599  1.00  0.00     0.000 HD 
HETATM   35  N   UNL     1      -7.880  17.161  68.488  1.00  0.00    -0.247 NA 
HETATM   36  N   UNL     1      -5.944  16.644  69.709  1.00  0.00    -0.215 NA 
HETATM   37  S   UNL     1      -5.748  16.945  67.068  1.00  0.00    -0.160 SA 
HETATM   38  C   UNL     1      -6.589  16.927  68.567  1.00  0.00    -0.165 A  
ENDBRANCH  30  31
BRANCH  30  39
HETATM   39  N   UNL     1     -10.359  18.268  67.281  1.00  0.00    -0.373 NA 
HETATM   40  H   UNL     1     -10.827  18.058  68.162  1.00  0.00     0.000 HD 
BRANCH  39  41
HETATM   41  O   UNL     1     -10.494  19.543  66.731  1.00  0.00    -0.417 OA 
HETATM   42  C   UNL     1      -9.910  20.687  67.325  1.00  0.00    -0.388 C  
ENDBRANCH  39  41
ENDBRANCH  30  39
ENDBRANCH  28  30
ENDBRANCH   6  26
TORSDOF 8
ENDMDL
MODEL      188
REMARK 921   NORMALIZED FREE ENERGY PREDICTED BY IDOCK:   -5.57 KCAL/MOL
REMARK 922        TOTAL FREE ENERGY PREDICTED BY IDOCK:   -9.43 KCAL/MOL
REMARK 923 INTER-LIGAND FREE ENERGY PREDICTED BY IDOCK:   -8.12 KCAL/MOL
REMARK 924 INTRA-LIGAND FREE ENERGY PREDICTED BY IDOCK:   -1.31 KCAL/MOL
REMARK 927      BINDING AFFINITY PREDICTED BY RF-SCORE:    0.00 PKD
ROOT
HETATM    1  C   UNL     1     -10.296  16.118  67.449  1.00  0.00    -0.294 C  
HETATM    2  S   UNL     1      -9.886  16.153  65.725  1.00  0.00    -0.271 SA 
HETATM    3  C   UNL     1     -10.076  14.413  65.187  1.00  0.00    -0.326 C  
HETATM    4  C   UNL     1     -10.575  13.388  66.166  1.00  0.00    -0.294 C  
HETATM    5  CA  UNL     1     -10.872  13.655  67.474  1.00  0.00    -0.264 C  
HETATM    6  CA  UNL     1      -9.466  16.480  68.754  1.00  0.00    -0.246 C  
HETATM    7  C   UNL     1     -10.265  15.264  69.319  1.00  0.00    -0.250 C  
HETATM    8  N   UNL     1     -10.598  14.860  68.065  1.00  0.00    -0.245 N  
HETATM    9  C   UNL     1     -11.518  12.580  68.309  1.00  0.00    -0.308 C  
HETATM   10  O   UNL     1     -10.304  14.728  70.401  1.00  0.00     0.101 OA 
HETATM   11  O   UNL     1     -11.138  12.472  69.597  1.00  0.00    -0.086 OA 
HETATM   12  OXT UNL     1     -12.373  11.834  67.859  1.00  0.00    -0.399 OA 
ENDROOT
BRANCH   4  13
HETATM   13  C   UNL     1     -10.669  11.930  65.624  1.00  0.00    -0.280 C  
BRANCH  13  14
HETATM   14  S   UNL     1      -9.152  10.916  65.407  1.00  0.00    -0.192 SA 
BRANCH  14  15
HETATM   15  C   UNL     1      -9.279   9.561  66.555  1.00  0.00    -0.160 C  
HETATM   16  N   UNL     1      -9.955   8.552  66.130  1.00  0.00    -0.468 N  
HETATM   17  H   UNL     1     -10.284   8.497  65.166  1.00  0.00     0.000 HD 
HETATM   18  C   UNL     1      -8.149  10.882  68.423  1.00  0.00    -0.131 C  
HETATM   19  C   UNL     1     -10.213   7.549  67.041  1.00  0.00    -0.298 C  
HETATM   20  N   UNL     1      -8.755   9.696  67.845  1.00  0.00    -0.119 NA 
HETATM   21  C   UNL     1      -9.394   7.410  68.323  1.00  0.00    -0.140 C  
HETATM   22  O   UNL     1     -11.170   6.780  66.946  1.00  0.00    -0.375 OA 
HETATM   23  H   UNL     1      -8.609   8.727  69.723  1.00  0.00     0.000 HD 
HETATM   24  N   UNL     1      -8.889   8.612  68.749  1.00  0.00    -0.138 N  
HETATM   25  O   UNL     1      -9.250   6.362  68.931  1.00  0.00    -0.129 OA 
ENDBRANCH  14  15
ENDBRANCH  13  14
ENDBRANCH   4  13
BRANCH   6  26
HETATM   26  N   UNL     1      -7.984  16.413  69.149  1.00  0.00    -0.233 N  
HETATM   27  O   UNL     1      -5.806  16.972  69.511  1.00  0.00    -0.177 OA 
HETATM   28  C   UNL     1      -6.937  17.347  69.205  1.00  0.00    -0.175 C  
HETATM   29  H   UNL     1      -7.695  15.478  69.436  1.00  0.00     0.000 HD 
BRANCH  28  30
HETATM   30  C   UNL     1      -7.171  18.829  69.096  1.00  0.00    -0.221 C  
BRANCH  30  31
HETATM   31  C   UNL     1      -7.542  19.527  67.859  1.00  0.00    -0.289 A  
HETATM   32  H2  UNL     1      -7.498  20.297  63.650  1.00  0.00     0.000 HD 
HETATM   33  C   UNL     1      -8.848  19.918  67.611  1.00  0.00    -0.334 A  
HETATM   34  H1  UNL     1      -5.917  19.799  64.251  1.00  0.00     0.000 HD 
HETATM   35  N   UNL     1      -6.725  19.541  66.716  1.00  0.00    -0.194 NA 
HETATM   36  N   UNL     1      -6.898  20.016  64.425  1.00  0.00    -0.185 NA 
HETATM   37  S   UNL     1      -9.059  20.303  65.959  1.00  0.00     0.077 SA 
HETATM   38  C   UNL     1      -7.406  19.937  65.665  1.00  0.00    -0.296 A  
ENDBRANCH  30  31
BRANCH  30  39
HETATM   39  N   UNL     1      -6.851  19.667  70.026  1.00  0.00    -0.171 NA 
HETATM   40  H   UNL     1      -7.570  20.284  70.404  1.00  0.00     0.000 HD 
BRANCH  39  41
HETATM   41  O   UNL     1      -5.553  19.753  70.530  1.00  0.00    -0.230 OA 
HETATM   42  C   UNL     1      -5.275  20.279  71.814  1.00  0.00    -0.380 C  
ENDBRANCH  39  41
ENDBRANCH  30  39
ENDBRANCH  28  30
ENDBRANCH   6  26
TORSDOF 8
ENDMDL
MODEL      189
REMARK 921   NORMALIZED FREE ENERGY PREDICTED BY IDOCK:   -5.57 KCAL/MOL
REMARK 922        TOTAL FREE ENERGY PREDICTED BY IDOCK:   -9.43 KCAL/MOL
REMARK 923 INTER-LIGAND FREE ENERGY PREDICTED BY IDOCK:   -7.82 KCAL/MOL
REMARK 924 INTRA-LIGAND FREE ENERGY PREDICTED BY IDOCK:   -1.61 KCAL/MOL
REMARK 927      BINDING AFFINITY PREDICTED BY RF-SCORE:    0.00 PKD
ROOT
HETATM    1  C   UNL     1      -9.126  10.819  67.692  1.00  0.00    -0.147 C  
HETATM    2  S   UNL     1      -8.782  11.228  66.002  1.00  0.00    -0.125 SA 
HETATM    3  C   UNL     1      -9.878  12.653  65.656  1.00  0.00    -0.202 C  
HETATM    4  C   UNL     1     -10.720  13.222  66.763  1.00  0.00    -0.279 C  
HETATM    5  CA  UNL     1     -10.759  12.720  68.036  1.00  0.00    -0.230 C  
HETATM    6  CA  UNL     1      -9.693   9.505  68.381  1.00  0.00    -0.154 C  
HETATM    7  C   UNL     1     -10.395  10.562  69.289  1.00  0.00    -0.227 C  
HETATM    8  N   UNL     1     -10.144  11.549  68.388  1.00  0.00    -0.199 N  
HETATM    9  C   UNL     1     -11.516  13.477  69.094  1.00  0.00    -0.295 C  
HETATM   10  O   UNL     1     -11.132  10.478  70.242  1.00  0.00    -0.298 OA 
HETATM   11  O   UNL     1     -12.206  12.763  70.006  1.00  0.00    -0.284 OA 
HETATM   12  OXT UNL     1     -11.504  14.697  69.156  1.00  0.00    -0.262 OA 
ENDROOT
BRANCH   4  13
HETATM   13  C   UNL     1     -11.645  14.411  66.362  1.00  0.00    -0.375 C  
BRANCH  13  14
HETATM   14  S   UNL     1     -10.950  15.892  65.528  1.00  0.00    -0.187 SA 
BRANCH  14  15
HETATM   15  C   UNL     1      -9.833  16.651  66.688  1.00  0.00    -0.274 C  
HETATM   16  N   UNL     1      -9.244  15.833  67.488  1.00  0.00    -0.203 N  
HETATM   17  H   UNL     1      -9.326  14.822  67.375  1.00  0.00     0.000 HD 
HETATM   18  C   UNL     1     -10.520  19.007  65.991  1.00  0.00    -0.458 C  
HETATM   19  C   UNL     1      -8.495  16.388  68.505  1.00  0.00    -0.211 C  
HETATM   20  N   UNL     1      -9.737  18.045  66.746  1.00  0.00    -0.308 NA 
HETATM   21  C   UNL     1      -8.020  17.839  68.440  1.00  0.00    -0.293 C  
HETATM   22  O   UNL     1      -8.255  15.806  69.563  1.00  0.00    -0.239 OA 
HETATM   23  H   UNL     1      -8.852  19.638  67.826  1.00  0.00     0.000 HD 
HETATM   24  N   UNL     1      -8.860  18.627  67.696  1.00  0.00    -0.273 N  
HETATM   25  O   UNL     1      -7.038  18.263  69.027  1.00  0.00    -0.271 OA 
ENDBRANCH  14  15
ENDBRANCH  13  14
ENDBRANCH   4  13
BRANCH   6  26
HETATM   26  N   UNL     1     -10.663   8.392  67.959  1.00  0.00    -0.452 N  
HETATM   27  O   UNL     1     -11.512   6.471  67.078  1.00  0.00    -0.223 OA 
HETATM   28  C   UNL     1     -10.513   7.131  67.359  1.00  0.00    -0.284 C  
HETATM   29  H   UNL     1     -11.637   8.621  68.159  1.00  0.00     0.000 HD 
BRANCH  28  30
HETATM   30  C   UNL     1      -9.175   6.457  67.220  1.00  0.00    -0.119 C  
BRANCH  30  31
HETATM   31  C   UNL     1      -8.083   6.941  66.366  1.00  0.00    -0.113 A  
HETATM   32  H2  UNL     1      -6.348   8.993  63.036  1.00  0.00     0.000 HD 
HETATM   33  C   UNL     1      -6.914   7.454  66.905  1.00  0.00    -0.082 A  
HETATM   34  H1  UNL     1      -7.867   8.202  62.612  1.00  0.00     0.000 HD 
HETATM   35  N   UNL     1      -8.255   7.244  65.005  1.00  0.00    -0.127 NA 
HETATM   36  N   UNL     1      -7.148   8.418  63.302  1.00  0.00    -0.089 NA 
HETATM   37  S   UNL     1      -6.031   8.316  65.721  1.00  0.00    -0.041 SA 
HETATM   38  C   UNL     1      -7.243   7.952  64.557  1.00  0.00    -0.080 A  
ENDBRANCH  30  31
BRANCH  30  39
HETATM   39  N   UNL     1      -8.931   5.268  67.661  1.00  0.00    -0.109 NA 
HETATM   40  H   UNL     1      -8.858   4.498  66.996  1.00  0.00     0.000 HD 
BRANCH  39  41
HETATM   41  O   UNL     1      -8.764   5.004  69.021  1.00  0.00    -0.088 OA 
HETATM   42  C   UNL     1      -9.769   4.381  69.798  1.00  0.00    -0.221 C  
ENDBRANCH  39  41
ENDBRANCH  30  39
ENDBRANCH  28  30
ENDBRANCH   6  26
TORSDOF 8
ENDMDL
MODEL      190
REMARK 921   NORMALIZED FREE ENERGY PREDICTED BY IDOCK:   -5.56 KCAL/MOL
REMARK 922        TOTAL FREE ENERGY PREDICTED BY IDOCK:   -9.42 KCAL/MOL
REMARK 923 INTER-LIGAND FREE ENERGY PREDICTED BY IDOCK:   -8.05 KCAL/MOL
REMARK 924 INTRA-LIGAND FREE ENERGY PREDICTED BY IDOCK:   -1.37 KCAL/MOL
REMARK 927      BINDING AFFINITY PREDICTED BY RF-SCORE:    0.00 PKD
ROOT
HETATM    1  C   UNL     1      -7.735  10.670  67.598  1.00  0.00    -0.097 C  
HETATM    2  S   UNL     1      -7.530  10.939  69.337  1.00  0.00    -0.060 SA 
HETATM    3  C   UNL     1      -7.529   9.253  70.052  1.00  0.00    -0.094 C  
HETATM    4  C   UNL     1      -7.605   8.064  69.136  1.00  0.00    -0.097 C  
HETATM    5  CA  UNL     1      -7.713   8.147  67.775  1.00  0.00    -0.110 C  
HETATM    6  CA  UNL     1      -8.861  11.117  66.570  1.00  0.00    -0.171 C  
HETATM    7  C   UNL     1      -8.561   9.704  65.981  1.00  0.00    -0.132 C  
HETATM    8  N   UNL     1      -7.918   9.331  67.120  1.00  0.00    -0.105 N  
HETATM    9  C   UNL     1      -7.616   6.885  66.959  1.00  0.00    -0.102 C  
HETATM   10  O   UNL     1      -8.994   9.090  65.036  1.00  0.00    -0.202 OA 
HETATM   11  O   UNL     1      -8.417   6.770  65.881  1.00  0.00    -0.135 OA 
HETATM   12  OXT UNL     1      -6.830   5.992  67.234  1.00  0.00    -0.059 OA 
ENDROOT
BRANCH   4  13
HETATM   13  C   UNL     1      -7.633   6.674  69.841  1.00  0.00    -0.100 C  
BRANCH  13  14
HETATM   14  S   UNL     1      -9.204   5.733  69.983  1.00  0.00    -0.148 SA 
BRANCH  14  15
HETATM   15  C   UNL     1     -10.350   6.784  70.850  1.00  0.00    -0.199 C  
HETATM   16  N   UNL     1     -10.656   7.873  70.237  1.00  0.00    -0.227 N  
HETATM   17  H   UNL     1     -10.355   8.051  69.278  1.00  0.00     0.000 HD 
HETATM   18  C   UNL     1     -10.292   5.324  72.941  1.00  0.00    -0.196 C  
HETATM   19  C   UNL     1     -11.412   8.790  70.938  1.00  0.00    -0.284 C  
HETATM   20  N   UNL     1     -10.757   6.445  72.144  1.00  0.00    -0.220 NA 
HETATM   21  C   UNL     1     -12.211   8.380  72.174  1.00  0.00    -0.374 C  
HETATM   22  O   UNL     1     -11.410   9.997  70.693  1.00  0.00    -0.297 OA 
HETATM   23  H   UNL     1     -11.878   7.138  73.803  1.00  0.00     0.000 HD 
HETATM   24  N   UNL     1     -11.651   7.311  72.824  1.00  0.00    -0.223 N  
HETATM   25  O   UNL     1     -13.204   8.968  72.571  1.00  0.00    -0.445 OA 
ENDBRANCH  14  15
ENDBRANCH  13  14
ENDBRANCH   4  13
BRANCH   6  26
HETATM   26  N   UNL     1     -10.370  11.380  66.664  1.00  0.00    -0.225 N  
HETATM   27  O   UNL     1     -12.391  12.243  67.264  1.00  0.00    -0.363 OA 
HETATM   28  C   UNL     1     -11.166  12.325  67.332  1.00  0.00    -0.301 C  
HETATM   29  H   UNL     1     -10.920  10.717  66.117  1.00  0.00     0.000 HD 
BRANCH  28  30
HETATM   30  C   UNL     1     -10.588  13.557  67.974  1.00  0.00    -0.239 C  
BRANCH  30  31
HETATM   31  C   UNL     1      -9.769  14.556  67.274  1.00  0.00    -0.232 A  
HETATM   32  H2  UNL     1      -8.812  18.432  65.735  1.00  0.00     0.000 HD 
HETATM   33  C   UNL     1      -8.396  14.618  67.447  1.00  0.00    -0.206 A  
HETATM   34  H1  UNL     1     -10.534  18.073  65.606  1.00  0.00     0.000 HD 
HETATM   35  N   UNL     1     -10.313  15.706  66.678  1.00  0.00    -0.282 NA 
HETATM   36  N   UNL     1      -9.592  17.790  65.876  1.00  0.00    -0.527 NA 
HETATM   37  S   UNL     1      -7.781  16.105  66.870  1.00  0.00    -0.253 SA 
HETATM   38  C   UNL     1      -9.369  16.582  66.415  1.00  0.00    -0.287 A  
ENDBRANCH  30  31
BRANCH  30  39
HETATM   39  N   UNL     1     -10.565  13.747  69.251  1.00  0.00    -0.440 NA 
HETATM   40  H   UNL     1     -10.484  12.940  69.869  1.00  0.00     0.000 HD 
BRANCH  39  41
HETATM   41  O   UNL     1     -10.647  15.022  69.812  1.00  0.00    -0.247 OA 
HETATM   42  C   UNL     1     -11.880  15.691  69.988  1.00  0.00    -0.367 C  
ENDBRANCH  39  41
ENDBRANCH  30  39
ENDBRANCH  28  30
ENDBRANCH   6  26
TORSDOF 8
ENDMDL
MODEL      191
REMARK 921   NORMALIZED FREE ENERGY PREDICTED BY IDOCK:   -5.56 KCAL/MOL
REMARK 922        TOTAL FREE ENERGY PREDICTED BY IDOCK:   -9.42 KCAL/MOL
REMARK 923 INTER-LIGAND FREE ENERGY PREDICTED BY IDOCK:   -7.67 KCAL/MOL
REMARK 924 INTRA-LIGAND FREE ENERGY PREDICTED BY IDOCK:   -1.74 KCAL/MOL
REMARK 927      BINDING AFFINITY PREDICTED BY RF-SCORE:    0.00 PKD
ROOT
HETATM    1  C   UNL     1      -6.972  11.344  67.699  1.00  0.00    -0.081 C  
HETATM    2  S   UNL     1      -8.184  10.734  66.559  1.00  0.00    -0.153 SA 
HETATM    3  C   UNL     1      -9.323  12.149  66.320  1.00  0.00    -0.218 C  
HETATM    4  C   UNL     1      -9.019  13.461  66.987  1.00  0.00    -0.228 C  
HETATM    5  CA  UNL     1      -7.947  13.675  67.809  1.00  0.00    -0.172 C  
HETATM    6  CA  UNL     1      -6.545  10.881  69.157  1.00  0.00    -0.069 C  
HETATM    7  C   UNL     1      -6.396  12.422  69.353  1.00  0.00    -0.119 C  
HETATM    8  N   UNL     1      -7.124  12.666  68.231  1.00  0.00    -0.095 N  
HETATM    9  C   UNL     1      -7.663  15.076  68.284  1.00  0.00    -0.111 C  
HETATM   10  O   UNL     1      -6.050  13.109  70.283  1.00  0.00    -0.146 OA 
HETATM   11  O   UNL     1      -7.225  15.234  69.549  1.00  0.00    -0.180 OA 
HETATM   12  OXT UNL     1      -7.799  16.049  67.558  1.00  0.00    -0.131 OA 
ENDROOT
BRANCH   4  13
HETATM   13  C   UNL     1     -10.065  14.592  66.752  1.00  0.00    -0.265 C  
BRANCH  13  14
HETATM   14  S   UNL     1     -11.859  14.262  66.970  1.00  0.00    -0.427 SA 
BRANCH  14  15
HETATM   15  C   UNL     1     -12.153  14.187  68.724  1.00  0.00    -0.291 C  
HETATM   16  N   UNL     1     -12.318  15.329  69.295  1.00  0.00    -0.595 N  
HETATM   17  H   UNL     1     -12.392  16.191  68.755  1.00  0.00     0.000 HD 
HETATM   18  C   UNL     1     -11.719  11.675  68.810  1.00  0.00    -0.330 C  
HETATM   19  C   UNL     1     -12.389  15.330  70.673  1.00  0.00    -0.377 C  
HETATM   20  N   UNL     1     -12.084  12.957  69.385  1.00  0.00    -0.245 NA 
HETATM   21  C   UNL     1     -12.701  14.055  71.453  1.00  0.00    -0.364 C  
HETATM   22  O   UNL     1     -12.102  16.309  71.363  1.00  0.00    -0.400 OA 
HETATM   23  H   UNL     1     -12.149  12.059  71.303  1.00  0.00     0.000 HD 
HETATM   24  N   UNL     1     -12.297  12.926  70.787  1.00  0.00    -0.359 N  
HETATM   25  O   UNL     1     -13.203  14.040  72.565  1.00  0.00    -0.448 OA 
ENDBRANCH  14  15
ENDBRANCH  13  14
ENDBRANCH   4  13
BRANCH   6  26
HETATM   26  N   UNL     1      -7.270  10.230  70.343  1.00  0.00    -0.199 N  
HETATM   27  O   UNL     1      -8.442   8.761  71.630  1.00  0.00    -0.203 OA 
HETATM   28  C   UNL     1      -7.865   8.977  70.566  1.00  0.00    -0.130 C  
HETATM   29  H   UNL     1      -7.336  10.847  71.152  1.00  0.00     0.000 HD 
BRANCH  28  30
HETATM   30  C   UNL     1      -7.662   7.810  69.637  1.00  0.00    -0.101 C  
BRANCH  30  31
HETATM   31  C   UNL     1      -8.473   7.545  68.441  1.00  0.00    -0.125 A  
HETATM   32  H2  UNL     1      -9.654   5.423  64.919  1.00  0.00     0.000 HD 
HETATM   33  C   UNL     1      -9.851   7.685  68.454  1.00  0.00    -0.166 A  
HETATM   34  H1  UNL     1      -7.904   5.429  65.135  1.00  0.00     0.000 HD 
HETATM   35  N   UNL     1      -7.991   6.821  67.339  1.00  0.00    -0.113 NA 
HETATM   36  N   UNL     1      -8.832   5.708  65.452  1.00  0.00    -0.139 NA 
HETATM   37  S   UNL     1     -10.549   6.914  67.097  1.00  0.00    -0.365 SA 
HETATM   38  C   UNL     1      -8.983   6.445  66.563  1.00  0.00    -0.145 A  
ENDBRANCH  30  31
BRANCH  30  39
HETATM   39  N   UNL     1      -6.903   6.804  69.919  1.00  0.00    -0.053 NA 
HETATM   40  H   UNL     1      -5.954   6.782  69.547  1.00  0.00     0.000 HD 
BRANCH  39  41
HETATM   41  O   UNL     1      -7.342   5.747  70.716  1.00  0.00    -0.079 OA 
HETATM   42  C   UNL     1      -6.571   5.239  71.787  1.00  0.00    -0.044 C  
ENDBRANCH  39  41
ENDBRANCH  30  39
ENDBRANCH  28  30
ENDBRANCH   6  26
TORSDOF 8
ENDMDL
MODEL      192
REMARK 921   NORMALIZED FREE ENERGY PREDICTED BY IDOCK:   -5.55 KCAL/MOL
REMARK 922        TOTAL FREE ENERGY PREDICTED BY IDOCK:   -9.40 KCAL/MOL
REMARK 923 INTER-LIGAND FREE ENERGY PREDICTED BY IDOCK:   -8.48 KCAL/MOL
REMARK 924 INTRA-LIGAND FREE ENERGY PREDICTED BY IDOCK:   -0.92 KCAL/MOL
REMARK 927      BINDING AFFINITY PREDICTED BY RF-SCORE:    0.00 PKD
ROOT
HETATM    1  C   UNL     1      -9.078  13.971  65.993  1.00  0.00     0.195 C  
HETATM    2  S   UNL     1      -8.064  13.172  67.206  1.00  0.00    -0.105 SA 
HETATM    3  C   UNL     1      -8.371  11.387  66.939  1.00  0.00    -0.159 C  
HETATM    4  C   UNL     1      -9.260  10.953  65.808  1.00  0.00    -0.224 C  
HETATM    5  CA  UNL     1      -9.904  11.814  64.962  1.00  0.00    -0.229 C  
HETATM    6  CA  UNL     1     -10.286  14.996  66.113  1.00  0.00    -0.299 C  
HETATM    7  C   UNL     1     -10.807  14.168  64.897  1.00  0.00    -0.411 C  
HETATM    8  N   UNL     1      -9.923  13.169  65.158  1.00  0.00    -0.203 N  
HETATM    9  C   UNL     1     -10.634  11.254  63.769  1.00  0.00    -0.392 C  
HETATM   10  O   UNL     1     -11.794  14.241  64.206  1.00  0.00    -0.417 OA 
HETATM   11  O   UNL     1     -11.800  11.831  63.419  1.00  0.00    -0.453 OA 
HETATM   12  OXT UNL     1     -10.192  10.322  63.116  1.00  0.00     0.065 OA 
ENDROOT
BRANCH   4  13
HETATM   13  C   UNL     1      -9.488   9.416  65.683  1.00  0.00    -0.262 C  
BRANCH  13  14
HETATM   14  S   UNL     1     -10.493   8.519  66.932  1.00  0.00    -0.211 SA 
BRANCH  14  15
HETATM   15  C   UNL     1     -10.022   6.805  66.826  1.00  0.00    -0.178 C  
HETATM   16  N   UNL     1      -9.529   6.448  65.693  1.00  0.00    -0.363 N  
HETATM   17  H   UNL     1      -9.317   7.128  64.963  1.00  0.00     0.000 HD 
HETATM   18  C   UNL     1     -11.021   6.266  69.111  1.00  0.00    -0.377 C  
HETATM   19  C   UNL     1      -9.299   5.099  65.512  1.00  0.00    -0.113 C  
HETATM   20  N   UNL     1     -10.300   5.944  67.892  1.00  0.00    -0.189 NA 
HETATM   21  C   UNL     1      -9.206   4.143  66.700  1.00  0.00    -0.155 C  
HETATM   22  O   UNL     1      -9.266   4.562  64.404  1.00  0.00    -0.155 OA 
HETATM   23  H   UNL     1     -10.225   3.914  68.494  1.00  0.00     0.000 HD 
HETATM   24  N   UNL     1      -9.939   4.578  67.775  1.00  0.00    -0.110 N  
HETATM   25  O   UNL     1      -8.596   3.087  66.680  1.00  0.00    -0.104 OA 
ENDBRANCH  14  15
ENDBRANCH  13  14
ENDBRANCH   4  13
BRANCH   6  26
HETATM   26  N   UNL     1     -11.398  15.243  67.142  1.00  0.00    -0.294 N  
HETATM   27  O   UNL     1     -12.510  15.878  69.026  1.00  0.00    -0.011 OA 
HETATM   28  C   UNL     1     -11.462  15.899  68.383  1.00  0.00    -0.348 C  
HETATM   29  H   UNL     1     -12.292  14.841  66.862  1.00  0.00     0.000 HD 
BRANCH  28  30
HETATM   30  C   UNL     1     -10.362  16.797  68.880  1.00  0.00    -0.317 C  
BRANCH  30  31
HETATM   31  C   UNL     1     -10.048  18.119  68.322  1.00  0.00    -0.386 A  
HETATM   32  H2  UNL     1      -7.500  21.268  66.943  1.00  0.00     0.000 HD 
HETATM   33  C   UNL     1     -10.772  18.651  67.267  1.00  0.00    -0.394 A  
HETATM   34  H1  UNL     1      -6.819  20.423  68.334  1.00  0.00     0.000 HD 
HETATM   35  N   UNL     1      -8.828  18.775  68.554  1.00  0.00    -0.339 NA 
HETATM   36  N   UNL     1      -7.574  20.544  67.658  1.00  0.00    -0.293 NA 
HETATM   37  S   UNL     1      -9.934  19.965  66.563  1.00  0.00    -0.505 SA 
HETATM   38  C   UNL     1      -8.663  19.761  67.702  1.00  0.00    -0.326 A  
ENDBRANCH  30  31
BRANCH  30  39
HETATM   39  N   UNL     1      -9.442  16.405  69.697  1.00  0.00    -0.002 NA 
HETATM   40  H   UNL     1      -9.540  16.614  70.690  1.00  0.00     0.000 HD 
BRANCH  39  41
HETATM   41  O   UNL     1      -8.317  15.702  69.262  1.00  0.00    -0.229 OA 
HETATM   42  C   UNL     1      -7.001  16.143  69.533  1.00  0.00    -0.186 C  
ENDBRANCH  39  41
ENDBRANCH  30  39
ENDBRANCH  28  30
ENDBRANCH   6  26
TORSDOF 8
ENDMDL
MODEL      193
REMARK 921   NORMALIZED FREE ENERGY PREDICTED BY IDOCK:   -5.54 KCAL/MOL
REMARK 922        TOTAL FREE ENERGY PREDICTED BY IDOCK:   -9.40 KCAL/MOL
REMARK 923 INTER-LIGAND FREE ENERGY PREDICTED BY IDOCK:   -7.60 KCAL/MOL
REMARK 924 INTRA-LIGAND FREE ENERGY PREDICTED BY IDOCK:   -1.80 KCAL/MOL
REMARK 927      BINDING AFFINITY PREDICTED BY RF-SCORE:    0.00 PKD
ROOT
HETATM    1  C   UNL     1      -9.587  10.793  68.713  1.00  0.00    -0.189 C  
HETATM    2  S   UNL     1     -10.627  10.242  70.038  1.00  0.00    -0.232 SA 
HETATM    3  C   UNL     1     -11.008   8.502  69.612  1.00  0.00    -0.086 C  
HETATM    4  C   UNL     1     -10.374   7.885  68.398  1.00  0.00    -0.235 C  
HETATM    5  CA  UNL     1      -9.539   8.551  67.543  1.00  0.00    -0.154 C  
HETATM    6  CA  UNL     1      -9.748  11.949  67.635  1.00  0.00    -0.185 C  
HETATM    7  C   UNL     1      -9.045  10.888  66.732  1.00  0.00    -0.152 C  
HETATM    8  N   UNL     1      -9.319   9.900  67.625  1.00  0.00    -0.140 N  
HETATM    9  C   UNL     1      -8.840   7.777  66.456  1.00  0.00    -0.153 C  
HETATM   10  O   UNL     1      -8.688  10.887  65.578  1.00  0.00    -0.187 OA 
HETATM   11  O   UNL     1      -8.695   8.372  65.255  1.00  0.00    -0.170 OA 
HETATM   12  OXT UNL     1      -8.394   6.656  66.641  1.00  0.00    -0.112 OA 
ENDROOT
BRANCH   4  13
HETATM   13  C   UNL     1     -10.786   6.412  68.099  1.00  0.00    -0.308 C  
BRANCH  13  14
HETATM   14  S   UNL     1     -10.135   5.035  69.128  1.00  0.00    -0.152 SA 
BRANCH  14  15
HETATM   15  C   UNL     1      -8.794   5.707  70.086  1.00  0.00    -0.138 C  
HETATM   16  N   UNL     1      -7.657   5.732  69.482  1.00  0.00    -0.085 N  
HETATM   17  H   UNL     1      -7.571   5.496  68.494  1.00  0.00     0.000 HD 
HETATM   18  C   UNL     1     -10.222   5.871  72.192  1.00  0.00    -0.195 C  
HETATM   19  C   UNL     1      -6.561   6.095  70.238  1.00  0.00    -0.045 C  
HETATM   20  N   UNL     1      -9.005   6.057  71.423  1.00  0.00    -0.143 NA 
HETATM   21  C   UNL     1      -6.720   6.843  71.560  1.00  0.00    -0.060 C  
HETATM   22  O   UNL     1      -5.410   5.752  69.965  1.00  0.00    -0.008 OA 
HETATM   23  H   UNL     1      -8.021   6.729  73.174  1.00  0.00     0.000 HD 
HETATM   24  N   UNL     1      -7.915   6.567  72.173  1.00  0.00    -0.102 N  
HETATM   25  O   UNL     1      -5.862   7.562  72.046  1.00  0.00    -0.036 OA 
ENDBRANCH  14  15
ENDBRANCH  13  14
ENDBRANCH   4  13
BRANCH   6  26
HETATM   26  N   UNL     1     -10.937  12.601  66.916  1.00  0.00    -0.254 N  
HETATM   27  O   UNL     1     -12.680  13.979  66.412  1.00  0.00    -0.369 OA 
HETATM   28  C   UNL     1     -11.728  13.737  67.153  1.00  0.00    -0.385 C  
HETATM   29  H   UNL     1     -11.216  12.095  66.076  1.00  0.00     0.000 HD 
BRANCH  28  30
HETATM   30  C   UNL     1     -11.350  14.788  68.162  1.00  0.00    -0.307 C  
BRANCH  30  31
HETATM   31  C   UNL     1     -11.609  14.691  69.604  1.00  0.00    -0.307 A  
HETATM   32  H2  UNL     1     -12.596  16.161  73.500  1.00  0.00     0.000 HD 
HETATM   33  C   UNL     1     -12.349  13.650  70.139  1.00  0.00    -0.304 A  
HETATM   34  H1  UNL     1     -11.606  17.303  72.589  1.00  0.00     0.000 HD 
HETATM   35  N   UNL     1     -11.445  15.775  70.483  1.00  0.00    -0.348 NA 
HETATM   36  N   UNL     1     -12.082  16.403  72.652  1.00  0.00    -0.517 NA 
HETATM   37  S   UNL     1     -12.843  14.018  71.734  1.00  0.00    -0.333 SA 
HETATM   38  C   UNL     1     -12.040  15.535  71.630  1.00  0.00    -0.401 A  
ENDBRANCH  30  31
BRANCH  30  39
HETATM   39  N   UNL     1     -10.964  15.977  67.835  1.00  0.00    -0.335 NA 
HETATM   40  H   UNL     1     -11.653  16.727  67.793  1.00  0.00     0.000 HD 
BRANCH  39  41
HETATM   41  O   UNL     1      -9.631  16.265  67.539  1.00  0.00    -0.227 OA 
HETATM   42  C   UNL     1      -8.744  16.802  68.501  1.00  0.00    -0.245 C  
ENDBRANCH  39  41
ENDBRANCH  30  39
ENDBRANCH  28  30
ENDBRANCH   6  26
TORSDOF 8
ENDMDL
MODEL      194
REMARK 921   NORMALIZED FREE ENERGY PREDICTED BY IDOCK:   -5.54 KCAL/MOL
REMARK 922        TOTAL FREE ENERGY PREDICTED BY IDOCK:   -9.40 KCAL/MOL
REMARK 923 INTER-LIGAND FREE ENERGY PREDICTED BY IDOCK:   -7.89 KCAL/MOL
REMARK 924 INTRA-LIGAND FREE ENERGY PREDICTED BY IDOCK:   -1.50 KCAL/MOL
REMARK 927      BINDING AFFINITY PREDICTED BY RF-SCORE:    0.00 PKD
ROOT
HETATM    1  C   UNL     1      -9.026  10.692  68.448  1.00  0.00    -0.149 C  
HETATM    2  S   UNL     1      -8.114  11.284  67.049  1.00  0.00    -0.154 SA 
HETATM    3  C   UNL     1      -8.974  12.832  66.579  1.00  0.00    -0.092 C  
HETATM    4  C   UNL     1     -10.119  13.323  67.418  1.00  0.00    -0.233 C  
HETATM    5  CA  UNL     1     -10.606  12.667  68.515  1.00  0.00    -0.243 C  
HETATM    6  CA  UNL     1      -9.843   9.354  68.705  1.00  0.00    -0.163 C  
HETATM    7  C   UNL     1     -10.771  10.342  69.478  1.00  0.00    -0.249 C  
HETATM    8  N   UNL     1     -10.192  11.411  68.871  1.00  0.00    -0.197 N  
HETATM    9  C   UNL     1     -11.649  13.343  69.366  1.00  0.00    -0.307 C  
HETATM   10  O   UNL     1     -11.789  10.199  70.111  1.00  0.00    -0.256 OA 
HETATM   11  O   UNL     1     -12.633  12.580  69.880  1.00  0.00     0.019 OA 
HETATM   12  OXT UNL     1     -11.611  14.539  69.611  1.00  0.00    -0.268 OA 
ENDROOT
BRANCH   4  13
HETATM   13  C   UNL     1     -10.808  14.629  66.918  1.00  0.00    -0.305 C  
BRANCH  13  14
HETATM   14  S   UNL     1      -9.867  15.857  65.927  1.00  0.00    -0.359 SA 
BRANCH  14  15
HETATM   15  C   UNL     1      -8.900  16.808  67.081  1.00  0.00    -0.200 C  
HETATM   16  N   UNL     1      -7.781  16.271  67.420  1.00  0.00    -0.147 N  
HETATM   17  H   UNL     1      -7.432  15.428  66.964  1.00  0.00     0.000 HD 
HETATM   18  C   UNL     1     -10.759  18.524  67.407  1.00  0.00    -0.381 C  
HETATM   19  C   UNL     1      -7.074  16.893  68.429  1.00  0.00    -0.187 C  
HETATM   20  N   UNL     1      -9.428  17.984  67.622  1.00  0.00    -0.261 NA 
HETATM   21  C   UNL     1      -7.353  18.344  68.816  1.00  0.00    -0.287 C  
HETATM   22  O   UNL     1      -6.267  16.305  69.149  1.00  0.00    -0.142 OA 
HETATM   23  H   UNL     1      -9.055  19.511  69.042  1.00  0.00     0.000 HD 
HETATM   24  N   UNL     1      -8.649  18.710  68.558  1.00  0.00    -0.338 N  
HETATM   25  O   UNL     1      -6.535  19.079  69.345  1.00  0.00    -0.287 OA 
ENDBRANCH  14  15
ENDBRANCH  13  14
ENDBRANCH   4  13
BRANCH   6  26
HETATM   26  N   UNL     1     -10.653   8.393  67.824  1.00  0.00    -0.416 N  
HETATM   27  O   UNL     1     -11.469   6.498  66.859  1.00  0.00    -0.212 OA 
HETATM   28  C   UNL     1     -10.762   6.995  67.733  1.00  0.00    -0.231 C  
HETATM   29  H   UNL     1     -11.247   8.879  67.153  1.00  0.00     0.000 HD 
BRANCH  28  30
HETATM   30  C   UNL     1     -10.204   6.072  68.782  1.00  0.00    -0.188 C  
BRANCH  30  31
HETATM   31  C   UNL     1      -9.256   4.983  68.516  1.00  0.00    -0.120 A  
HETATM   32  H2  UNL     1      -8.019   1.153  67.063  1.00  0.00     0.000 HD 
HETATM   33  C   UNL     1      -7.972   5.235  68.058  1.00  0.00    -0.091 A  
HETATM   34  H1  UNL     1      -9.645   1.111  67.746  1.00  0.00     0.000 HD 
HETATM   35  N   UNL     1      -9.654   3.644  68.364  1.00  0.00    -0.139 NA 
HETATM   36  N   UNL     1      -8.796   1.630  67.520  1.00  0.00    -0.109 NA 
HETATM   37  S   UNL     1      -7.262   3.808  67.438  1.00  0.00    -0.064 SA 
HETATM   38  C   UNL     1      -8.692   2.934  67.819  1.00  0.00    -0.114 A  
ENDBRANCH  30  31
BRANCH  30  39
HETATM   39  N   UNL     1     -10.672   6.000  69.984  1.00  0.00    -0.280 NA 
HETATM   40  H   UNL     1     -10.148   5.482  70.689  1.00  0.00     0.000 HD 
BRANCH  39  41
HETATM   41  O   UNL     1     -11.873   6.610  70.348  1.00  0.00    -0.396 OA 
HETATM   42  C   UNL     1     -12.129   7.043  71.670  1.00  0.00    -0.347 C  
ENDBRANCH  39  41
ENDBRANCH  30  39
ENDBRANCH  28  30
ENDBRANCH   6  26
TORSDOF 8
ENDMDL
MODEL      195
REMARK 921   NORMALIZED FREE ENERGY PREDICTED BY IDOCK:   -5.54 KCAL/MOL
REMARK 922        TOTAL FREE ENERGY PREDICTED BY IDOCK:   -9.39 KCAL/MOL
REMARK 923 INTER-LIGAND FREE ENERGY PREDICTED BY IDOCK:   -8.08 KCAL/MOL
REMARK 924 INTRA-LIGAND FREE ENERGY PREDICTED BY IDOCK:   -1.31 KCAL/MOL
REMARK 927      BINDING AFFINITY PREDICTED BY RF-SCORE:    0.00 PKD
ROOT
HETATM    1  C   UNL     1      -9.033  10.376  68.786  1.00  0.00    -0.157 C  
HETATM    2  S   UNL     1      -8.039  10.972  67.446  1.00  0.00    -0.126 SA 
HETATM    3  C   UNL     1      -8.888  12.502  66.907  1.00  0.00    -0.203 C  
HETATM    4  C   UNL     1     -10.094  12.982  67.664  1.00  0.00    -0.217 C  
HETATM    5  CA  UNL     1     -10.643  12.327  68.732  1.00  0.00    -0.194 C  
HETATM    6  CA  UNL     1      -9.844   9.027  69.001  1.00  0.00    -0.175 C  
HETATM    7  C   UNL     1     -10.837  10.007  69.702  1.00  0.00    -0.260 C  
HETATM    8  N   UNL     1     -10.235  11.080  69.125  1.00  0.00    -0.197 N  
HETATM    9  C   UNL     1     -11.750  12.994  69.506  1.00  0.00    -0.317 C  
HETATM   10  O   UNL     1     -11.893   9.853  70.267  1.00  0.00    -0.249 OA 
HETATM   11  O   UNL     1     -12.754  12.218  69.959  1.00  0.00     0.105 OA 
HETATM   12  OXT UNL     1     -11.747  14.192  69.742  1.00  0.00    -0.276 OA 
ENDROOT
BRANCH   4  13
HETATM   13  C   UNL     1     -10.768  14.273  67.108  1.00  0.00    -0.282 C  
BRANCH  13  14
HETATM   14  S   UNL     1      -9.839  15.404  65.997  1.00  0.00    -0.354 SA 
BRANCH  14  15
HETATM   15  C   UNL     1      -9.950  17.028  66.716  1.00  0.00    -0.295 C  
HETATM   16  N   UNL     1     -10.469  17.925  65.952  1.00  0.00    -0.333 N  
HETATM   17  H   UNL     1     -10.890  17.684  65.055  1.00  0.00     0.000 HD 
HETATM   18  C   UNL     1      -8.638  16.330  68.789  1.00  0.00    -0.240 C  
HETATM   19  C   UNL     1     -10.430  19.227  66.406  1.00  0.00    -0.474 C  
HETATM   20  N   UNL     1      -9.394  17.266  67.977  1.00  0.00    -0.257 NA 
HETATM   21  C   UNL     1     -10.203  19.546  67.883  1.00  0.00    -0.431 C  
HETATM   22  O   UNL     1     -10.461  20.205  65.658  1.00  0.00    -0.416 OA 
HETATM   23  H   UNL     1      -8.985  18.794  69.386  1.00  0.00     0.000 HD 
HETATM   24  N   UNL     1      -9.473  18.575  68.518  1.00  0.00    -0.334 N  
HETATM   25  O   UNL     1     -10.579  20.573  68.425  1.00  0.00    -0.106 OA 
ENDBRANCH  14  15
ENDBRANCH  13  14
ENDBRANCH   4  13
BRANCH   6  26
HETATM   26  N   UNL     1     -10.580   8.047  68.076  1.00  0.00    -0.393 N  
HETATM   27  O   UNL     1     -11.305   6.133  67.078  1.00  0.00    -0.200 OA 
HETATM   28  C   UNL     1     -10.667   6.648  67.995  1.00  0.00    -0.265 C  
HETATM   29  H   UNL     1     -11.129   8.519  67.358  1.00  0.00     0.000 HD 
BRANCH  28  30
HETATM   30  C   UNL     1     -10.176   5.743  69.092  1.00  0.00    -0.223 C  
BRANCH  30  31
HETATM   31  C   UNL     1      -9.128   4.728  68.930  1.00  0.00    -0.115 A  
HETATM   32  H2  UNL     1      -5.234   3.265  67.925  1.00  0.00     0.000 HD 
HETATM   33  C   UNL     1      -8.925   3.737  69.877  1.00  0.00    -0.101 A  
HETATM   34  H1  UNL     1      -5.766   4.544  66.833  1.00  0.00     0.000 HD 
HETATM   35  N   UNL     1      -8.059   4.872  68.030  1.00  0.00    -0.093 NA 
HETATM   36  N   UNL     1      -5.944   3.936  67.632  1.00  0.00    -0.027 NA 
HETATM   37  S   UNL     1      -7.406   2.986  69.649  1.00  0.00    -0.044 SA 
HETATM   38  C   UNL     1      -7.105   4.011  68.302  1.00  0.00    -0.055 A  
ENDBRANCH  30  31
BRANCH  30  39
HETATM   39  N   UNL     1     -10.780   5.613  70.227  1.00  0.00    -0.302 NA 
HETATM   40  H   UNL     1     -10.975   4.677  70.580  1.00  0.00     0.000 HD 
BRANCH  39  41
HETATM   41  O   UNL     1     -11.174   6.716  70.985  1.00  0.00    -0.268 OA 
HETATM   42  C   UNL     1     -10.517   7.082  72.183  1.00  0.00    -0.209 C  
ENDBRANCH  39  41
ENDBRANCH  30  39
ENDBRANCH  28  30
ENDBRANCH   6  26
TORSDOF 8
ENDMDL
MODEL      196
REMARK 921   NORMALIZED FREE ENERGY PREDICTED BY IDOCK:   -5.53 KCAL/MOL
REMARK 922        TOTAL FREE ENERGY PREDICTED BY IDOCK:   -9.38 KCAL/MOL
REMARK 923 INTER-LIGAND FREE ENERGY PREDICTED BY IDOCK:   -8.16 KCAL/MOL
REMARK 924 INTRA-LIGAND FREE ENERGY PREDICTED BY IDOCK:   -1.22 KCAL/MOL
REMARK 927      BINDING AFFINITY PREDICTED BY RF-SCORE:    0.00 PKD
ROOT
HETATM    1  C   UNL     1      -9.086  10.609  68.297  1.00  0.00    -0.153 C  
HETATM    2  S   UNL     1      -8.422  11.095  66.728  1.00  0.00    -0.157 SA 
HETATM    3  C   UNL     1      -9.418  12.557  66.257  1.00  0.00    -0.210 C  
HETATM    4  C   UNL     1     -10.449  13.087  67.213  1.00  0.00    -0.238 C  
HETATM    5  CA  UNL     1     -10.734  12.523  68.426  1.00  0.00    -0.240 C  
HETATM    6  CA  UNL     1      -9.787   9.273  68.796  1.00  0.00    -0.165 C  
HETATM    7  C   UNL     1     -10.638  10.298  69.609  1.00  0.00    -0.256 C  
HETATM    8  N   UNL     1     -10.210  11.323  68.826  1.00  0.00    -0.203 N  
HETATM    9  C   UNL     1     -11.671  13.241  69.361  1.00  0.00    -0.325 C  
HETATM   10  O   UNL     1     -11.543  10.181  70.400  1.00  0.00    -0.273 OA 
HETATM   11  O   UNL     1     -12.529  12.496  70.086  1.00  0.00    -0.156 OA 
HETATM   12  OXT UNL     1     -11.658  14.456  69.488  1.00  0.00    -0.270 OA 
ENDROOT
BRANCH   4  13
HETATM   13  C   UNL     1     -11.269  14.312  66.707  1.00  0.00    -0.332 C  
BRANCH  13  14
HETATM   14  S   UNL     1     -10.514  15.526  65.552  1.00  0.00    -0.410 SA 
BRANCH  14  15
HETATM   15  C   UNL     1      -9.816  16.818  66.558  1.00  0.00    -0.290 C  
HETATM   16  N   UNL     1     -10.508  17.903  66.603  1.00  0.00    -0.343 N  
HETATM   17  H   UNL     1     -11.438  17.962  66.189  1.00  0.00     0.000 HD 
HETATM   18  C   UNL     1      -7.664  15.509  66.959  1.00  0.00    -0.210 C  
HETATM   19  C   UNL     1      -9.930  18.983  67.238  1.00  0.00    -0.344 C  
HETATM   20  N   UNL     1      -8.556  16.641  67.137  1.00  0.00    -0.186 NA 
HETATM   21  C   UNL     1      -8.763  18.803  68.207  1.00  0.00    -0.333 C  
HETATM   22  O   UNL     1     -10.230  20.152  66.991  1.00  0.00    -0.432 OA 
HETATM   23  H   UNL     1      -7.052  17.629  68.256  1.00  0.00     0.000 HD 
HETATM   24  N   UNL     1      -8.010  17.695  67.913  1.00  0.00    -0.225 N  
HETATM   25  O   UNL     1      -8.496  19.583  69.106  1.00  0.00    -0.294 OA 
ENDBRANCH  14  15
ENDBRANCH  13  14
ENDBRANCH   4  13
BRANCH   6  26
HETATM   26  N   UNL     1     -10.670   8.203  68.140  1.00  0.00    -0.433 N  
HETATM   27  O   UNL     1     -11.379   6.469  66.845  1.00  0.00    -0.330 OA 
HETATM   28  C   UNL     1     -10.432   7.136  67.258  1.00  0.00    -0.301 C  
HETATM   29  H   UNL     1     -11.652   8.286  68.403  1.00  0.00     0.000 HD 
BRANCH  28  30
HETATM   30  C   UNL     1      -9.046   6.642  66.942  1.00  0.00    -0.136 C  
BRANCH  30  31
HETATM   31  C   UNL     1      -8.417   6.713  65.617  1.00  0.00    -0.144 A  
HETATM   32  H2  UNL     1      -5.717   8.208  62.653  1.00  0.00     0.000 HD 
HETATM   33  C   UNL     1      -8.080   5.568  64.913  1.00  0.00    -0.124 A  
HETATM   34  H1  UNL     1      -6.339   9.490  63.694  1.00  0.00     0.000 HD 
HETATM   35  N   UNL     1      -7.805   7.877  65.124  1.00  0.00    -0.107 NA 
HETATM   36  N   UNL     1      -6.311   8.506  63.428  1.00  0.00    -0.084 NA 
HETATM   37  S   UNL     1      -7.001   5.939  63.640  1.00  0.00    -0.044 SA 
HETATM   38  C   UNL     1      -7.048   7.599  64.087  1.00  0.00    -0.068 A  
ENDBRANCH  30  31
BRANCH  30  39
HETATM   39  N   UNL     1      -8.355   5.907  67.749  1.00  0.00    -0.108 NA 
HETATM   40  H   UNL     1      -7.494   6.282  68.146  1.00  0.00     0.000 HD 
BRANCH  39  41
HETATM   41  O   UNL     1      -8.751   4.614  68.093  1.00  0.00    -0.101 OA 
HETATM   42  C   UNL     1      -9.170   4.276  69.401  1.00  0.00    -0.137 C  
ENDBRANCH  39  41
ENDBRANCH  30  39
ENDBRANCH  28  30
ENDBRANCH   6  26
TORSDOF 8
ENDMDL
MODEL      197
REMARK 921   NORMALIZED FREE ENERGY PREDICTED BY IDOCK:   -5.53 KCAL/MOL
REMARK 922        TOTAL FREE ENERGY PREDICTED BY IDOCK:   -9.38 KCAL/MOL
REMARK 923 INTER-LIGAND FREE ENERGY PREDICTED BY IDOCK:   -7.57 KCAL/MOL
REMARK 924 INTRA-LIGAND FREE ENERGY PREDICTED BY IDOCK:   -1.81 KCAL/MOL
REMARK 927      BINDING AFFINITY PREDICTED BY RF-SCORE:    0.00 PKD
ROOT
HETATM    1  C   UNL     1     -10.979   8.325  70.984  1.00  0.00    -0.245 C  
HETATM    2  S   UNL     1     -11.913   6.840  70.733  1.00  0.00    -0.321 SA 
HETATM    3  C   UNL     1     -10.663   5.612  70.200  1.00  0.00    -0.305 C  
HETATM    4  C   UNL     1      -9.214   6.005  70.157  1.00  0.00    -0.165 C  
HETATM    5  CA  UNL     1      -8.747   7.255  70.460  1.00  0.00    -0.148 C  
HETATM    6  CA  UNL     1     -11.048   9.761  70.308  1.00  0.00    -0.292 C  
HETATM    7  C   UNL     1      -9.500   9.662  70.481  1.00  0.00    -0.181 C  
HETATM    8  N   UNL     1      -9.577   8.321  70.686  1.00  0.00    -0.169 N  
HETATM    9  C   UNL     1      -7.259   7.478  70.538  1.00  0.00    -0.064 C  
HETATM   10  O   UNL     1      -8.588  10.410  70.224  1.00  0.00     0.172 OA 
HETATM   11  O   UNL     1      -6.774   8.645  70.071  1.00  0.00    -0.038 OA 
HETATM   12  OXT UNL     1      -6.503   6.650  71.022  1.00  0.00    -0.047 OA 
ENDROOT
BRANCH   4  13
HETATM   13  C   UNL     1      -8.232   4.902  69.658  1.00  0.00    -0.080 C  
BRANCH  13  14
HETATM   14  S   UNL     1      -7.650   4.892  67.915  1.00  0.00    -0.083 SA 
BRANCH  14  15
HETATM   15  C   UNL     1      -8.272   6.381  67.164  1.00  0.00    -0.113 C  
HETATM   16  N   UNL     1      -7.470   7.387  67.210  1.00  0.00    -0.101 N  
HETATM   17  H   UNL     1      -6.512   7.292  67.545  1.00  0.00     0.000 HD 
HETATM   18  C   UNL     1     -10.579   5.364  66.774  1.00  0.00    -0.271 C  
HETATM   19  C   UNL     1      -7.970   8.600  66.784  1.00  0.00    -0.094 C  
HETATM   20  N   UNL     1      -9.583   6.417  66.679  1.00  0.00    -0.157 NA 
HETATM   21  C   UNL     1      -9.217   8.681  65.905  1.00  0.00    -0.202 C  
HETATM   22  O   UNL     1      -7.526   9.685  67.163  1.00  0.00    -0.088 OA 
HETATM   23  H   UNL     1     -11.046   7.701  65.843  1.00  0.00     0.000 HD 
HETATM   24  N   UNL     1     -10.064   7.622  66.107  1.00  0.00     0.138 N  
HETATM   25  O   UNL     1      -9.461   9.608  65.149  1.00  0.00    -0.256 OA 
ENDBRANCH  14  15
ENDBRANCH  13  14
ENDBRANCH   4  13
BRANCH   6  26
HETATM   26  N   UNL     1     -11.426  10.286  68.916  1.00  0.00    -0.467 N  
HETATM   27  O   UNL     1     -12.052  11.659  67.210  1.00  0.00    -0.595 OA 
HETATM   28  C   UNL     1     -11.708  11.556  68.386  1.00  0.00    -0.303 C  
HETATM   29  H   UNL     1     -11.487   9.545  68.218  1.00  0.00     0.000 HD 
BRANCH  28  30
HETATM   30  C   UNL     1     -11.422  12.827  69.139  1.00  0.00    -0.306 C  
BRANCH  30  31
HETATM   31  C   UNL     1     -10.727  13.992  68.576  1.00  0.00    -0.256 A  
HETATM   32  H2  UNL     1     -10.157  18.135  67.671  1.00  0.00     0.000 HD 
HETATM   33  C   UNL     1      -9.353  14.135  68.680  1.00  0.00    -0.152 A  
HETATM   34  H1  UNL     1     -11.854  17.662  67.580  1.00  0.00     0.000 HD 
HETATM   35  N   UNL     1     -11.391  15.176  68.217  1.00  0.00    -0.313 NA 
HETATM   36  N   UNL     1     -10.877  17.416  67.744  1.00  0.00    -0.327 NA 
HETATM   37  S   UNL     1      -8.887  15.743  68.332  1.00  0.00    -0.193 SA 
HETATM   38  C   UNL     1     -10.532  16.157  68.055  1.00  0.00    -0.281 A  
ENDBRANCH  30  31
BRANCH  30  39
HETATM   39  N   UNL     1     -11.559  12.938  70.419  1.00  0.00    -0.506 NA 
HETATM   40  H   UNL     1     -10.761  12.736  71.021  1.00  0.00     0.000 HD 
BRANCH  39  41
HETATM   41  O   UNL     1     -12.765  13.327  71.002  1.00  0.00    -0.340 OA 
HETATM   42  C   UNL     1     -13.401  12.556  72.004  1.00  0.00    -0.426 C  
ENDBRANCH  39  41
ENDBRANCH  30  39
ENDBRANCH  28  30
ENDBRANCH   6  26
TORSDOF 8
ENDMDL
MODEL      198
REMARK 921   NORMALIZED FREE ENERGY PREDICTED BY IDOCK:   -5.53 KCAL/MOL
REMARK 922        TOTAL FREE ENERGY PREDICTED BY IDOCK:   -9.37 KCAL/MOL
REMARK 923 INTER-LIGAND FREE ENERGY PREDICTED BY IDOCK:   -7.92 KCAL/MOL
REMARK 924 INTRA-LIGAND FREE ENERGY PREDICTED BY IDOCK:   -1.45 KCAL/MOL
REMARK 927      BINDING AFFINITY PREDICTED BY RF-SCORE:    0.00 PKD
ROOT
HETATM    1  C   UNL     1      -8.069  10.644  68.395  1.00  0.00    -0.123 C  
HETATM    2  S   UNL     1      -6.664  11.718  68.283  1.00  0.00    -0.070 SA 
HETATM    3  C   UNL     1      -7.385  13.359  67.909  1.00  0.00    -0.140 C  
HETATM    4  C   UNL     1      -8.879  13.513  67.855  1.00  0.00    -0.190 C  
HETATM    5  CA  UNL     1      -9.765  12.486  68.034  1.00  0.00    -0.215 C  
HETATM    6  CA  UNL     1      -8.503   9.358  67.570  1.00  0.00    -0.122 C  
HETATM    7  C   UNL     1      -9.917   9.981  67.785  1.00  0.00    -0.170 C  
HETATM    8  N   UNL     1      -9.372  11.178  68.129  1.00  0.00    -0.170 N  
HETATM    9  C   UNL     1     -11.236  12.800  68.118  1.00  0.00    -0.272 C  
HETATM   10  O   UNL     1     -11.031   9.638  67.469  1.00  0.00    -0.260 OA 
HETATM   11  O   UNL     1     -12.096  11.938  67.540  1.00  0.00    -0.573 OA 
HETATM   12  OXT UNL     1     -11.657  13.786  68.703  1.00  0.00    -0.287 OA 
ENDROOT
BRANCH   4  13
HETATM   13  C   UNL     1      -9.395  14.939  67.496  1.00  0.00    -0.193 C  
BRANCH  13  14
HETATM   14  S   UNL     1      -9.450  15.497  65.746  1.00  0.00    -0.232 SA 
BRANCH  14  15
HETATM   15  C   UNL     1     -10.452  14.316  64.868  1.00  0.00    -0.430 C  
HETATM   16  N   UNL     1      -9.896  13.172  64.674  1.00  0.00    -0.595 N  
HETATM   17  H   UNL     1      -9.001  12.933  65.100  1.00  0.00     0.000 HD 
HETATM   18  C   UNL     1     -12.275  16.037  64.395  1.00  0.00     0.339 C  
HETATM   19  C   UNL     1     -10.570  12.283  63.862  1.00  0.00    -0.427 C  
HETATM   20  N   UNL     1     -11.694  14.707  64.359  1.00  0.00    -0.377 NA 
HETATM   21  C   UNL     1     -12.062  12.447  63.572  1.00  0.00    -0.558 C  
HETATM   22  O   UNL     1     -10.012  11.381  63.237  1.00  0.00    -0.342 OA 
HETATM   23  H   UNL     1     -13.321  14.047  63.173  1.00  0.00     0.000 HD 
HETATM   24  N   UNL     1     -12.464  13.756  63.641  1.00  0.00    -0.255 N  
HETATM   25  O   UNL     1     -12.802  11.527  63.262  1.00  0.00    -0.306 OA 
ENDBRANCH  14  15
ENDBRANCH  13  14
ENDBRANCH   4  13
BRANCH   6  26
HETATM   26  N   UNL     1      -8.310   8.883  66.123  1.00  0.00    -0.118 N  
HETATM   27  O   UNL     1      -8.139   7.561  64.276  1.00  0.00    -0.133 OA 
HETATM   28  C   UNL     1      -8.427   7.646  65.469  1.00  0.00    -0.120 C  
HETATM   29  H   UNL     1      -8.034   9.637  65.494  1.00  0.00     0.000 HD 
BRANCH  28  30
HETATM   30  C   UNL     1      -9.077   6.451  66.112  1.00  0.00    -0.131 C  
BRANCH  30  31
HETATM   31  C   UNL     1      -8.897   6.058  67.516  1.00  0.00    -0.109 A  
HETATM   32  H2  UNL     1     -10.146   4.738  71.389  1.00  0.00     0.000 HD 
HETATM   33  C   UNL     1      -7.842   5.253  67.914  1.00  0.00    -0.092 A  
HETATM   34  H1  UNL     1     -11.319   5.827  70.648  1.00  0.00     0.000 HD 
HETATM   35  N   UNL     1      -9.921   6.158  68.473  1.00  0.00    -0.140 NA 
HETATM   36  N   UNL     1     -10.428   5.332  70.609  1.00  0.00    -0.257 NA 
HETATM   37  S   UNL     1      -8.123   4.620  69.477  1.00  0.00    -0.065 SA 
HETATM   38  C   UNL     1      -9.624   5.455  69.542  1.00  0.00    -0.149 A  
ENDBRANCH  30  31
BRANCH  30  39
HETATM   39  N   UNL     1      -9.679   5.525  65.442  1.00  0.00    -0.355 NA 
HETATM   40  H   UNL     1     -10.698   5.486  65.458  1.00  0.00     0.000 HD 
BRANCH  39  41
HETATM   41  O   UNL     1      -8.978   4.578  64.696  1.00  0.00    -0.145 OA 
HETATM   42  C   UNL     1      -9.527   3.967  63.544  1.00  0.00    -0.144 C  
ENDBRANCH  39  41
ENDBRANCH  30  39
ENDBRANCH  28  30
ENDBRANCH   6  26
TORSDOF 8
ENDMDL
MODEL      199
REMARK 921   NORMALIZED FREE ENERGY PREDICTED BY IDOCK:   -5.53 KCAL/MOL
REMARK 922        TOTAL FREE ENERGY PREDICTED BY IDOCK:   -9.37 KCAL/MOL
REMARK 923 INTER-LIGAND FREE ENERGY PREDICTED BY IDOCK:   -7.71 KCAL/MOL
REMARK 924 INTRA-LIGAND FREE ENERGY PREDICTED BY IDOCK:   -1.66 KCAL/MOL
REMARK 927      BINDING AFFINITY PREDICTED BY RF-SCORE:    0.00 PKD
ROOT
HETATM    1  C   UNL     1     -10.518   8.491  67.645  1.00  0.00    -0.241 C  
HETATM    2  S   UNL     1     -10.800   6.832  67.089  1.00  0.00    -0.376 SA 
HETATM    3  C   UNL     1      -9.202   5.987  67.380  1.00  0.00    -0.109 C  
HETATM    4  C   UNL     1      -8.082   6.736  68.045  1.00  0.00    -0.114 C  
HETATM    5  CA  UNL     1      -8.155   8.047  68.429  1.00  0.00    -0.122 C  
HETATM    6  CA  UNL     1     -10.574   9.894  66.902  1.00  0.00    -0.178 C  
HETATM    7  C   UNL     1      -9.365  10.181  67.846  1.00  0.00    -0.141 C  
HETATM    8  N   UNL     1      -9.210   8.856  68.104  1.00  0.00    -0.139 N  
HETATM    9  C   UNL     1      -7.024   8.634  69.232  1.00  0.00    -0.058 C  
HETATM   10  O   UNL     1      -8.663  11.147  68.023  1.00  0.00    -0.131 OA 
HETATM   11  O   UNL     1      -6.665   9.907  68.974  1.00  0.00    -0.052 OA 
HETATM   12  OXT UNL     1      -6.451   8.003  70.106  1.00  0.00    -0.036 OA 
ENDROOT
BRANCH   4  13
HETATM   13  C   UNL     1      -6.751   5.942  68.217  1.00  0.00    -0.057 C  
BRANCH  13  14
HETATM   14  S   UNL     1      -6.626   4.589  69.453  1.00  0.00    -0.041 SA 
BRANCH  14  15
HETATM   15  C   UNL     1      -7.888   4.894  70.671  1.00  0.00    -0.070 C  
HETATM   16  N   UNL     1      -7.579   5.768  71.564  1.00  0.00    -0.096 N  
HETATM   17  H   UNL     1      -6.725   6.321  71.498  1.00  0.00     0.000 HD 
HETATM   18  C   UNL     1      -9.364   3.010  69.788  1.00  0.00    -0.145 C  
HETATM   19  C   UNL     1      -8.459   5.920  72.615  1.00  0.00    -0.119 C  
HETATM   20  N   UNL     1      -9.057   4.128  70.663  1.00  0.00    -0.102 NA 
HETATM   21  C   UNL     1      -9.904   5.432  72.519  1.00  0.00    -0.165 C  
HETATM   22  O   UNL     1      -8.124   6.347  73.721  1.00  0.00    -0.105 OA 
HETATM   23  H   UNL     1     -10.847   3.757  71.735  1.00  0.00     0.000 HD 
HETATM   24  N   UNL     1     -10.037   4.373  71.658  1.00  0.00    -0.182 N  
HETATM   25  O   UNL     1     -10.826   5.894  73.171  1.00  0.00    -0.244 OA 
ENDBRANCH  14  15
ENDBRANCH  13  14
ENDBRANCH   4  13
BRANCH   6  26
HETATM   26  N   UNL     1     -10.296  10.372  65.470  1.00  0.00    -0.238 N  
HETATM   27  O   UNL     1     -10.411  11.510  63.500  1.00  0.00    -0.360 OA 
HETATM   28  C   UNL     1     -10.792  11.411  64.665  1.00  0.00    -0.292 C  
HETATM   29  H   UNL     1      -9.592   9.808  64.995  1.00  0.00     0.000 HD 
BRANCH  28  30
HETATM   30  C   UNL     1     -11.627  12.534  65.220  1.00  0.00    -0.364 C  
BRANCH  30  31
HETATM   31  C   UNL     1     -11.496  13.078  66.578  1.00  0.00    -0.340 A  
HETATM   32  H2  UNL     1     -11.501  12.940  70.855  1.00  0.00     0.000 HD 
HETATM   33  C   UNL     1     -10.487  13.967  66.909  1.00  0.00    -0.276 A  
HETATM   34  H1  UNL     1     -12.741  11.898  70.155  1.00  0.00     0.000 HD 
HETATM   35  N   UNL     1     -12.128  12.503  67.694  1.00  0.00    -0.426 NA 
HETATM   36  N   UNL     1     -11.980  12.567  70.035  1.00  0.00    -0.334 NA 
HETATM   37  S   UNL     1     -10.322  14.089  68.606  1.00  0.00    -0.221 SA 
HETATM   38  C   UNL     1     -11.604  12.961  68.809  1.00  0.00    -0.311 A  
ENDBRANCH  30  31
BRANCH  30  39
HETATM   39  N   UNL     1     -12.689  12.981  64.638  1.00  0.00    -0.709 NA 
HETATM   40  H   UNL     1     -13.595  12.586  64.890  1.00  0.00     0.000 HD 
BRANCH  39  41
HETATM   41  O   UNL     1     -12.636  13.989  63.675  1.00  0.00    -0.818 OA 
HETATM   42  C   UNL     1     -12.256  15.315  63.990  1.00  0.00     0.005 C  
ENDBRANCH  39  41
ENDBRANCH  30  39
ENDBRANCH  28  30
ENDBRANCH   6  26
TORSDOF 8
ENDMDL
MODEL      200
REMARK 921   NORMALIZED FREE ENERGY PREDICTED BY IDOCK:   -5.51 KCAL/MOL
REMARK 922        TOTAL FREE ENERGY PREDICTED BY IDOCK:   -9.35 KCAL/MOL
REMARK 923 INTER-LIGAND FREE ENERGY PREDICTED BY IDOCK:   -7.30 KCAL/MOL
REMARK 924 INTRA-LIGAND FREE ENERGY PREDICTED BY IDOCK:   -2.05 KCAL/MOL
REMARK 927      BINDING AFFINITY PREDICTED BY RF-SCORE:    0.00 PKD
ROOT
HETATM    1  C   UNL     1      -9.206   8.772  65.645  1.00  0.00    -0.180 C  
HETATM    2  S   UNL     1      -8.030   7.725  64.834  1.00  0.00    -0.136 SA 
HETATM    3  C   UNL     1      -7.900   6.266  65.934  1.00  0.00    -0.104 C  
HETATM    4  C   UNL     1      -8.779   6.178  67.149  1.00  0.00    -0.106 C  
HETATM    5  CA  UNL     1      -9.667   7.147  67.528  1.00  0.00    -0.142 C  
HETATM    6  CA  UNL     1      -9.103  10.245  66.232  1.00  0.00    -0.154 C  
HETATM    7  C   UNL     1     -10.045   9.631  67.315  1.00  0.00    -0.211 C  
HETATM    8  N   UNL     1      -9.734   8.370  66.916  1.00  0.00    -0.205 N  
HETATM    9  C   UNL     1     -10.604   6.868  68.673  1.00  0.00    -0.223 C  
HETATM   10  O   UNL     1     -10.579  10.081  68.300  1.00  0.00    -0.200 OA 
HETATM   11  O   UNL     1     -10.878   7.879  69.521  1.00  0.00    -0.221 OA 
HETATM   12  OXT UNL     1     -11.126   5.776  68.835  1.00  0.00    -0.265 OA 
ENDROOT
BRANCH   4  13
HETATM   13  C   UNL     1      -8.570   4.916  68.040  1.00  0.00    -0.102 C  
BRANCH  13  14
HETATM   14  S   UNL     1      -7.271   4.897  69.339  1.00  0.00    -0.057 SA 
BRANCH  14  15
HETATM   15  C   UNL     1      -7.785   6.058  70.588  1.00  0.00    -0.101 C  
HETATM   16  N   UNL     1      -8.620   5.592  71.450  1.00  0.00    -0.130 N  
HETATM   17  H   UNL     1      -8.866   4.602  71.476  1.00  0.00     0.000 HD 
HETATM   18  C   UNL     1      -6.572   7.995  69.456  1.00  0.00    -0.038 C  
HETATM   19  C   UNL     1      -9.166   6.496  72.337  1.00  0.00    -0.136 C  
HETATM   20  N   UNL     1      -7.362   7.388  70.512  1.00  0.00    -0.075 NA 
HETATM   21  C   UNL     1      -8.513   7.854  72.590  1.00  0.00    -0.150 C  
HETATM   22  O   UNL     1     -10.252   6.326  72.892  1.00  0.00    -0.179 OA 
HETATM   23  H   UNL     1      -7.594   9.293  71.410  1.00  0.00     0.000 HD 
HETATM   24  N   UNL     1      -7.804   8.299  71.505  1.00  0.00    -0.107 N  
HETATM   25  O   UNL     1      -8.650   8.496  73.619  1.00  0.00    -0.325 OA 
ENDBRANCH  14  15
ENDBRANCH  13  14
ENDBRANCH   4  13
BRANCH   6  26
HETATM   26  N   UNL     1      -7.984  11.082  66.868  1.00  0.00    -0.136 N  
HETATM   27  O   UNL     1      -6.816  12.815  67.773  1.00  0.00    -0.103 OA 
HETATM   28  C   UNL     1      -7.898  12.391  67.370  1.00  0.00    -0.174 C  
HETATM   29  H   UNL     1      -7.105  10.572  66.943  1.00  0.00     0.000 HD 
BRANCH  28  30
HETATM   30  C   UNL     1      -9.114  13.241  67.621  1.00  0.00    -0.204 C  
BRANCH  30  31
HETATM   31  C   UNL     1     -10.009  13.747  66.572  1.00  0.00    -0.288 A  
HETATM   32  H2  UNL     1     -13.778  14.695  64.782  1.00  0.00     0.000 HD 
HETATM   33  C   UNL     1      -9.727  14.913  65.879  1.00  0.00    -0.333 A  
HETATM   34  H1  UNL     1     -13.845  13.203  65.721  1.00  0.00     0.000 HD 
HETATM   35  N   UNL     1     -11.339  13.316  66.431  1.00  0.00    -0.303 NA 
HETATM   36  N   UNL     1     -13.314  13.998  65.364  1.00  0.00    -0.624 NA 
HETATM   37  S   UNL     1     -11.116  15.473  65.053  1.00  0.00    -0.366 SA 
HETATM   38  C   UNL     1     -12.011  14.134  65.654  1.00  0.00    -0.396 A  
ENDBRANCH  30  31
BRANCH  30  39
HETATM   39  N   UNL     1      -9.367  13.798  68.759  1.00  0.00    -0.395 NA 
HETATM   40  H   UNL     1      -9.681  13.216  69.535  1.00  0.00     0.000 HD 
BRANCH  39  41
HETATM   41  O   UNL     1      -9.223  15.171  68.959  1.00  0.00    -0.201 OA 
HETATM   42  C   UNL     1      -7.959  15.780  69.136  1.00  0.00    -0.231 C  
ENDBRANCH  39  41
ENDBRANCH  30  39
ENDBRANCH  28  30
ENDBRANCH   6  26
TORSDOF 8
ENDMDL
MODEL      201
REMARK 921   NORMALIZED FREE ENERGY PREDICTED BY IDOCK:   -5.50 KCAL/MOL
REMARK 922        TOTAL FREE ENERGY PREDICTED BY IDOCK:   -9.33 KCAL/MOL
REMARK 923 INTER-LIGAND FREE ENERGY PREDICTED BY IDOCK:   -8.07 KCAL/MOL
REMARK 924 INTRA-LIGAND FREE ENERGY PREDICTED BY IDOCK:   -1.26 KCAL/MOL
REMARK 927      BINDING AFFINITY PREDICTED BY RF-SCORE:    0.00 PKD
ROOT
HETATM    1  C   UNL     1     -12.114  10.951  69.644  1.00  0.00    -0.329 C  
HETATM    2  S   UNL     1     -12.435  12.411  70.595  1.00  0.00    -0.150 SA 
HETATM    3  C   UNL     1     -11.853  13.778  69.525  1.00  0.00    -0.339 C  
HETATM    4  C   UNL     1     -11.343  13.468  68.145  1.00  0.00    -0.319 C  
HETATM    5  CA  UNL     1     -11.244  12.206  67.627  1.00  0.00    -0.286 C  
HETATM    6  CA  UNL     1     -11.199   9.680  69.910  1.00  0.00    -0.207 C  
HETATM    7  C   UNL     1     -10.967   9.812  68.372  1.00  0.00    -0.152 C  
HETATM    8  N   UNL     1     -11.458  11.080  68.376  1.00  0.00    -0.294 N  
HETATM    9  C   UNL     1     -10.872  12.041  66.177  1.00  0.00    -0.286 C  
HETATM   10  O   UNL     1     -10.326   9.174  67.572  1.00  0.00    -0.228 OA 
HETATM   11  O   UNL     1     -10.061  11.016  65.849  1.00  0.00    -0.232 OA 
HETATM   12  OXT UNL     1     -11.296  12.787  65.309  1.00  0.00    -0.290 OA 
ENDROOT
BRANCH   4  13
HETATM   13  C   UNL     1     -10.839  14.694  67.324  1.00  0.00    -0.305 C  
BRANCH  13  14
HETATM   14  S   UNL     1     -10.907  16.385  68.038  1.00  0.00    -0.323 SA 
BRANCH  14  15
HETATM   15  C   UNL     1      -9.693  17.353  67.167  1.00  0.00    -0.267 C  
HETATM   16  N   UNL     1      -8.665  16.694  66.761  1.00  0.00    -0.207 N  
HETATM   17  H   UNL     1      -8.618  15.678  66.832  1.00  0.00     0.000 HD 
HETATM   18  C   UNL     1     -10.904  19.542  67.668  1.00  0.00    -0.316 C  
HETATM   19  C   UNL     1      -7.628  17.429  66.223  1.00  0.00    -0.313 C  
HETATM   20  N   UNL     1      -9.855  18.738  67.066  1.00  0.00    -0.311 NA 
HETATM   21  C   UNL     1      -7.842  18.858  65.726  1.00  0.00     0.052 C  
HETATM   22  O   UNL     1      -6.460  17.040  66.209  1.00  0.00    -0.198 OA 
HETATM   23  H   UNL     1      -8.907  20.510  66.394  1.00  0.00     0.000 HD 
HETATM   24  N   UNL     1      -8.862  19.491  66.389  1.00  0.00    -0.355 N  
HETATM   25  O   UNL     1      -7.151  19.396  64.876  1.00  0.00    -0.326 OA 
ENDBRANCH  14  15
ENDBRANCH  13  14
ENDBRANCH   4  13
BRANCH   6  26
HETATM   26  N   UNL     1      -9.882   9.430  70.658  1.00  0.00    -0.265 N  
HETATM   27  O   UNL     1      -8.178   8.409  71.773  1.00  0.00    -0.128 OA 
HETATM   28  C   UNL     1      -9.223   8.285  71.137  1.00  0.00    -0.162 C  
HETATM   29  H   UNL     1      -9.369  10.290  70.852  1.00  0.00     0.000 HD 
BRANCH  28  30
HETATM   30  C   UNL     1      -9.634   6.893  70.741  1.00  0.00    -0.165 C  
BRANCH  30  31
HETATM   31  C   UNL     1      -9.381   6.291  69.425  1.00  0.00    -0.140 A  
HETATM   32  H2  UNL     1      -7.252   3.941  66.552  1.00  0.00     0.000 HD 
HETATM   33  C   UNL     1     -10.404   5.734  68.674  1.00  0.00    -0.221 A  
HETATM   34  H1  UNL     1      -6.165   4.803  67.643  1.00  0.00     0.000 HD 
HETATM   35  N   UNL     1      -8.098   5.921  68.989  1.00  0.00    -0.102 NA 
HETATM   36  N   UNL     1      -7.112   4.582  67.334  1.00  0.00    -0.064 NA 
HETATM   37  S   UNL     1      -9.771   4.751  67.427  1.00  0.00    -0.174 SA 
HETATM   38  C   UNL     1      -8.175   5.124  67.947  1.00  0.00    -0.098 A  
ENDBRANCH  30  31
BRANCH  30  39
HETATM   39  N   UNL     1     -10.444   6.168  71.438  1.00  0.00    -0.218 NA 
HETATM   40  H   UNL     1     -11.447   6.249  71.273  1.00  0.00     0.000 HD 
BRANCH  39  41
HETATM   41  O   UNL     1      -9.989   5.276  72.410  1.00  0.00    -0.168 OA 
HETATM   42  C   UNL     1     -10.818   4.271  72.959  1.00  0.00    -0.183 C  
ENDBRANCH  39  41
ENDBRANCH  30  39
ENDBRANCH  28  30
ENDBRANCH   6  26
TORSDOF 8
ENDMDL
MODEL      202
REMARK 921   NORMALIZED FREE ENERGY PREDICTED BY IDOCK:   -5.49 KCAL/MOL
REMARK 922        TOTAL FREE ENERGY PREDICTED BY IDOCK:   -9.32 KCAL/MOL
REMARK 923 INTER-LIGAND FREE ENERGY PREDICTED BY IDOCK:   -8.18 KCAL/MOL
REMARK 924 INTRA-LIGAND FREE ENERGY PREDICTED BY IDOCK:   -1.14 KCAL/MOL
REMARK 927      BINDING AFFINITY PREDICTED BY RF-SCORE:    0.00 PKD
ROOT
HETATM    1  C   UNL     1     -11.646  10.033  70.224  1.00  0.00    -0.280 C  
HETATM    2  S   UNL     1     -12.799  11.169  70.946  1.00  0.00    -0.222 SA 
HETATM    3  C   UNL     1     -12.159  12.817  70.468  1.00  0.00    -0.285 C  
HETATM    4  C   UNL     1     -10.955  12.910  69.575  1.00  0.00     0.048 C  
HETATM    5  CA  UNL     1     -10.259  11.829  69.107  1.00  0.00     0.076 C  
HETATM    6  CA  UNL     1     -10.683   8.939  70.856  1.00  0.00    -0.231 C  
HETATM    7  C   UNL     1      -9.748   9.434  69.709  1.00  0.00    -0.199 C  
HETATM    8  N   UNL     1     -10.502  10.551  69.534  1.00  0.00    -0.237 N  
HETATM    9  C   UNL     1      -9.171  12.049  68.088  1.00  0.00    -0.195 C  
HETATM   10  O   UNL     1      -8.641   9.116  69.347  1.00  0.00    -0.129 OA 
HETATM   11  O   UNL     1      -8.059  11.295  68.185  1.00  0.00    -0.121 OA 
HETATM   12  OXT UNL     1      -9.282  12.863  67.185  1.00  0.00    -0.208 OA 
ENDROOT
BRANCH   4  13
HETATM   13  C   UNL     1     -10.467  14.355  69.253  1.00  0.00    -0.140 C  
BRANCH  13  14
HETATM   14  S   UNL     1     -11.587  15.556  68.430  1.00  0.00    -0.310 SA 
BRANCH  14  15
HETATM   15  C   UNL     1     -11.785  14.998  66.751  1.00  0.00    -0.154 C  
HETATM   16  N   UNL     1     -12.414  13.883  66.621  1.00  0.00    -0.474 N  
HETATM   17  H   UNL     1     -12.863  13.427  67.415  1.00  0.00     0.000 HD 
HETATM   18  C   UNL     1     -10.311  16.865  65.831  1.00  0.00    -0.315 C  
HETATM   19  C   UNL     1     -12.452  13.334  65.356  1.00  0.00    -0.489 C  
HETATM   20  N   UNL     1     -11.181  15.709  65.710  1.00  0.00    -0.158 NA 
HETATM   21  C   UNL     1     -12.169  14.179  64.115  1.00  0.00    -0.390 C  
HETATM   22  O   UNL     1     -12.600  12.130  65.146  1.00  0.00    -0.505 OA 
HETATM   23  H   UNL     1     -10.815  15.674  63.623  1.00  0.00     0.000 HD 
HETATM   24  N   UNL     1     -11.332  15.232  64.383  1.00  0.00    -0.274 N  
HETATM   25  O   UNL     1     -12.594  13.920  63.001  1.00  0.00    -0.694 OA 
ENDBRANCH  14  15
ENDBRANCH  13  14
ENDBRANCH   4  13
BRANCH   6  26
HETATM   26  N   UNL     1      -9.923   8.800  72.182  1.00  0.00    -0.321 N  
HETATM   27  O   UNL     1      -8.806   7.923  73.963  1.00  0.00    -0.265 OA 
HETATM   28  C   UNL     1      -9.292   7.737  72.849  1.00  0.00    -0.219 C  
HETATM   29  H   UNL     1      -9.864   9.679  72.696  1.00  0.00     0.000 HD 
BRANCH  28  30
HETATM   30  C   UNL     1      -9.008   6.419  72.179  1.00  0.00    -0.136 C  
BRANCH  30  31
HETATM   31  C   UNL     1      -9.797   5.196  72.376  1.00  0.00    -0.167 A  
HETATM   32  H2  UNL     1     -10.549   0.985  72.312  1.00  0.00     0.000 HD 
HETATM   33  C   UNL     1     -10.582   5.014  73.503  1.00  0.00    -0.256 A  
HETATM   34  H1  UNL     1      -9.573   1.507  70.939  1.00  0.00     0.000 HD 
HETATM   35  N   UNL     1      -9.562   4.013  71.657  1.00  0.00    -0.150 NA 
HETATM   36  N   UNL     1     -10.087   1.730  71.791  1.00  0.00    -0.151 NA 
HETATM   37  S   UNL     1     -11.027   3.372  73.669  1.00  0.00    -0.222 SA 
HETATM   38  C   UNL     1     -10.161   2.995  72.232  1.00  0.00    -0.148 A  
ENDBRANCH  30  31
BRANCH  30  39
HETATM   39  N   UNL     1      -7.914   6.171  71.540  1.00  0.00    -0.109 NA 
HETATM   40  H   UNL     1      -7.022   6.297  72.018  1.00  0.00     0.000 HD 
BRANCH  39  41
HETATM   41  O   UNL     1      -7.914   5.735  70.214  1.00  0.00    -0.100 OA 
HETATM   42  C   UNL     1      -6.754   5.223  69.588  1.00  0.00    -0.051 C  
ENDBRANCH  39  41
ENDBRANCH  30  39
ENDBRANCH  28  30
ENDBRANCH   6  26
TORSDOF 8
ENDMDL
MODEL      203
REMARK 921   NORMALIZED FREE ENERGY PREDICTED BY IDOCK:   -5.48 KCAL/MOL
REMARK 922        TOTAL FREE ENERGY PREDICTED BY IDOCK:   -9.30 KCAL/MOL
REMARK 923 INTER-LIGAND FREE ENERGY PREDICTED BY IDOCK:   -8.04 KCAL/MOL
REMARK 924 INTRA-LIGAND FREE ENERGY PREDICTED BY IDOCK:   -1.26 KCAL/MOL
REMARK 927      BINDING AFFINITY PREDICTED BY RF-SCORE:    0.00 PKD
ROOT
HETATM    1  C   UNL     1      -9.217  11.029  68.275  1.00  0.00    -0.165 C  
HETATM    2  S   UNL     1      -7.488  10.788  68.577  1.00  0.00    -0.107 SA 
HETATM    3  C   UNL     1      -7.440   9.589  69.961  1.00  0.00    -0.126 C  
HETATM    4  C   UNL     1      -8.726   9.015  70.484  1.00  0.00    -0.238 C  
HETATM    5  CA  UNL     1      -9.966   9.354  70.017  1.00  0.00    -0.221 C  
HETATM    6  CA  UNL     1     -10.148  12.315  68.344  1.00  0.00    -0.215 C  
HETATM    7  C   UNL     1     -11.166  11.265  68.888  1.00  0.00    -0.253 C  
HETATM    8  N   UNL     1     -10.168  10.372  69.123  1.00  0.00    -0.210 N  
HETATM    9  C   UNL     1     -11.166   8.589  70.511  1.00  0.00    -0.242 C  
HETATM   10  O   UNL     1     -12.316  11.335  69.247  1.00  0.00    -0.342 OA 
HETATM   11  O   UNL     1     -12.304   9.276  70.728  1.00  0.00    -0.219 OA 
HETATM   12  OXT UNL     1     -11.135   7.382  70.696  1.00  0.00    -0.255 OA 
ENDROOT
BRANCH   4  13
HETATM   13  C   UNL     1      -8.584   8.031  71.685  1.00  0.00    -0.129 C  
BRANCH  13  14
HETATM   14  S   UNL     1      -7.450   6.590  71.580  1.00  0.00    -0.090 SA 
BRANCH  14  15
HETATM   15  C   UNL     1      -8.186   5.447  70.430  1.00  0.00    -0.105 C  
HETATM   16  N   UNL     1      -7.798   5.580  69.210  1.00  0.00    -0.089 N  
HETATM   17  H   UNL     1      -7.039   6.213  68.956  1.00  0.00     0.000 HD 
HETATM   18  C   UNL     1      -9.780   4.517  72.191  1.00  0.00    -0.163 C  
HETATM   19  C   UNL     1      -8.457   4.825  68.262  1.00  0.00    -0.098 C  
HETATM   20  N   UNL     1      -9.184   4.572  70.868  1.00  0.00    -0.131 NA 
HETATM   21  C   UNL     1      -9.274   3.595  68.655  1.00  0.00    -0.160 C  
HETATM   22  O   UNL     1      -8.528   5.143  67.075  1.00  0.00    -0.108 OA 
HETATM   23  H   UNL     1     -10.573   3.117  70.202  1.00  0.00     0.000 HD 
HETATM   24  N   UNL     1      -9.773   3.688  69.929  1.00  0.00    -0.162 N  
HETATM   25  O   UNL     1      -9.504   2.660  67.905  1.00  0.00    -0.211 OA 
ENDBRANCH  14  15
ENDBRANCH  13  14
ENDBRANCH   4  13
BRANCH   6  26
HETATM   26  N   UNL     1     -10.159  13.599  69.184  1.00  0.00    -0.424 N  
HETATM   27  O   UNL     1     -10.137  15.793  69.797  1.00  0.00    -0.275 OA 
HETATM   28  C   UNL     1     -10.206  14.971  68.885  1.00  0.00    -0.235 C  
HETATM   29  H   UNL     1     -10.125  13.415  70.187  1.00  0.00     0.000 HD 
BRANCH  28  30
HETATM   30  C   UNL     1     -10.533  15.487  67.510  1.00  0.00    -0.282 C  
BRANCH  30  31
HETATM   31  C   UNL     1      -9.854  16.615  66.859  1.00  0.00    -0.263 A  
HETATM   32  H2  UNL     1      -9.260  20.710  65.769  1.00  0.00     0.000 HD 
HETATM   33  C   UNL     1      -8.473  16.729  66.862  1.00  0.00    -0.212 A  
HETATM   34  H1  UNL     1     -10.969  20.274  65.812  1.00  0.00     0.000 HD 
HETATM   35  N   UNL     1     -10.516  17.802  66.504  1.00  0.00    -0.330 NA 
HETATM   36  N   UNL     1      -9.989  20.012  65.917  1.00  0.00    -0.435 NA 
HETATM   37  S   UNL     1      -7.999  18.313  66.426  1.00  0.00    -0.243 SA 
HETATM   38  C   UNL     1      -9.650  18.756  66.249  1.00  0.00    -0.297 A  
ENDBRANCH  30  31
BRANCH  30  39
HETATM   39  N   UNL     1     -11.589  15.136  66.854  1.00  0.00    -0.229 NA 
HETATM   40  H   UNL     1     -12.452  15.662  66.988  1.00  0.00     0.000 HD 
BRANCH  39  41
HETATM   41  O   UNL     1     -11.585  14.059  65.967  1.00  0.00    -0.335 OA 
HETATM   42  C   UNL     1     -12.262  14.101  64.726  1.00  0.00    -0.440 C  
ENDBRANCH  39  41
ENDBRANCH  30  39
ENDBRANCH  28  30
ENDBRANCH   6  26
TORSDOF 8
ENDMDL
MODEL      204
REMARK 921   NORMALIZED FREE ENERGY PREDICTED BY IDOCK:   -5.47 KCAL/MOL
REMARK 922        TOTAL FREE ENERGY PREDICTED BY IDOCK:   -9.29 KCAL/MOL
REMARK 923 INTER-LIGAND FREE ENERGY PREDICTED BY IDOCK:   -7.23 KCAL/MOL
REMARK 924 INTRA-LIGAND FREE ENERGY PREDICTED BY IDOCK:   -2.06 KCAL/MOL
REMARK 927      BINDING AFFINITY PREDICTED BY RF-SCORE:    0.00 PKD
ROOT
HETATM    1  C   UNL     1     -11.273   8.611  71.674  1.00  0.00    -0.309 C  
HETATM    2  S   UNL     1     -12.148   7.394  72.619  1.00  0.00     0.116 SA 
HETATM    3  C   UNL     1     -10.855   6.628  73.666  1.00  0.00    -0.140 C  
HETATM    4  C   UNL     1      -9.452   7.163  73.614  1.00  0.00    -0.265 C  
HETATM    5  CA  UNL     1      -9.047   8.181  72.796  1.00  0.00    -0.259 C  
HETATM    6  CA  UNL     1     -11.050   8.797  70.112  1.00  0.00    -0.202 C  
HETATM    7  C   UNL     1      -9.647   9.273  70.603  1.00  0.00    -0.273 C  
HETATM    8  N   UNL     1      -9.852   8.717  71.827  1.00  0.00    -0.298 N  
HETATM    9  C   UNL     1      -7.654   8.733  72.955  1.00  0.00     0.247 C  
HETATM   10  O   UNL     1      -8.665   9.685  70.034  1.00  0.00    -0.200 OA 
HETATM   11  O   UNL     1      -6.987   9.087  71.839  1.00  0.00    -0.274 OA 
HETATM   12  OXT UNL     1      -7.136   8.883  74.051  1.00  0.00    -0.380 OA 
ENDROOT
BRANCH   4  13
HETATM   13  C   UNL     1      -8.417   6.423  74.515  1.00  0.00    -0.136 C  
BRANCH  13  14
HETATM   14  S   UNL     1      -7.410   5.043  73.838  1.00  0.00    -0.084 SA 
BRANCH  14  15
HETATM   15  C   UNL     1      -8.137   4.604  72.273  1.00  0.00    -0.102 C  
HETATM   16  N   UNL     1      -7.742   5.314  71.275  1.00  0.00    -0.099 N  
HETATM   17  H   UNL     1      -6.984   5.990  71.365  1.00  0.00     0.000 HD 
HETATM   18  C   UNL     1      -9.739   2.937  73.349  1.00  0.00    -0.101 C  
HETATM   19  C   UNL     1      -8.394   5.117  70.075  1.00  0.00    -0.089 C  
HETATM   20  N   UNL     1      -9.136   3.628  72.224  1.00  0.00    -0.107 NA 
HETATM   21  C   UNL     1      -9.211   3.852  69.814  1.00  0.00    -0.143 C  
HETATM   22  O   UNL     1      -8.458   5.972  69.192  1.00  0.00    -0.113 OA 
HETATM   23  H   UNL     1     -10.518   2.683  70.925  1.00  0.00     0.000 HD 
HETATM   24  N   UNL     1      -9.718   3.314  70.969  1.00  0.00    -0.164 N  
HETATM   25  O   UNL     1      -9.434   3.400  68.703  1.00  0.00    -0.170 OA 
ENDBRANCH  14  15
ENDBRANCH  13  14
ENDBRANCH   4  13
BRANCH   6  26
HETATM   26  N   UNL     1     -10.934   7.846  68.914  1.00  0.00    -0.424 N  
HETATM   27  O   UNL     1     -10.793   7.038  66.789  1.00  0.00    -0.318 OA 
HETATM   28  C   UNL     1     -10.798   8.021  67.526  1.00  0.00    -0.062 C  
HETATM   29  H   UNL     1     -10.961   6.863  69.186  1.00  0.00     0.000 HD 
BRANCH  28  30
HETATM   30  C   UNL     1     -10.463   9.353  66.910  1.00  0.00    -0.211 C  
BRANCH  30  31
HETATM   31  C   UNL     1      -9.693   9.529  65.672  1.00  0.00    -0.290 A  
HETATM   32  H2  UNL     1      -8.483  11.508  62.077  1.00  0.00     0.000 HD 
HETATM   33  C   UNL     1      -8.337   9.248  65.616  1.00  0.00    -0.123 A  
HETATM   34  H1  UNL     1     -10.212  11.683  62.382  1.00  0.00     0.000 HD 
HETATM   35  N   UNL     1     -10.154  10.297  64.590  1.00  0.00    -0.321 NA 
HETATM   36  N   UNL     1      -9.302  11.311  62.653  1.00  0.00    -0.335 NA 
HETATM   37  S   UNL     1      -7.636   9.939  64.218  1.00  0.00    -0.141 SA 
HETATM   38  C   UNL     1      -9.170  10.565  63.761  1.00  0.00    -0.263 A  
ENDBRANCH  30  31
BRANCH  30  39
HETATM   39  N   UNL     1     -10.626  10.478  67.523  1.00  0.00    -0.239 NA 
HETATM   40  H   UNL     1      -9.877  10.829  68.120  1.00  0.00     0.000 HD 
BRANCH  39  41
HETATM   41  O   UNL     1     -11.795  11.229  67.394  1.00  0.00    -0.590 OA 
HETATM   42  C   UNL     1     -11.779  12.591  67.015  1.00  0.00    -0.367 C  
ENDBRANCH  39  41
ENDBRANCH  30  39
ENDBRANCH  28  30
ENDBRANCH   6  26
TORSDOF 8
ENDMDL
MODEL      205
REMARK 921   NORMALIZED FREE ENERGY PREDICTED BY IDOCK:   -5.47 KCAL/MOL
REMARK 922        TOTAL FREE ENERGY PREDICTED BY IDOCK:   -9.29 KCAL/MOL
REMARK 923 INTER-LIGAND FREE ENERGY PREDICTED BY IDOCK:   -8.32 KCAL/MOL
REMARK 924 INTRA-LIGAND FREE ENERGY PREDICTED BY IDOCK:   -0.97 KCAL/MOL
REMARK 927      BINDING AFFINITY PREDICTED BY RF-SCORE:    0.00 PKD
ROOT
HETATM    1  C   UNL     1      -6.993  12.209  67.884  1.00  0.00    -0.099 C  
HETATM    2  S   UNL     1      -8.506  12.096  66.968  1.00  0.00    -0.168 SA 
HETATM    3  C   UNL     1      -9.314  13.717  67.240  1.00  0.00    -0.239 C  
HETATM    4  C   UNL     1      -8.596  14.775  68.030  1.00  0.00    -0.166 C  
HETATM    5  CA  UNL     1      -7.368  14.604  68.607  1.00  0.00    -0.125 C  
HETATM    6  CA  UNL     1      -6.415  11.373  69.105  1.00  0.00    -0.085 C  
HETATM    7  C   UNL     1      -5.882  12.781  69.518  1.00  0.00    -0.105 C  
HETATM    8  N   UNL     1      -6.734  13.392  68.652  1.00  0.00    -0.088 N  
HETATM    9  C   UNL     1      -6.685  15.792  69.233  1.00  0.00    -0.174 C  
HETATM   10  O   UNL     1      -5.219  13.176  70.445  1.00  0.00    -0.095 OA 
HETATM   11  O   UNL     1      -5.991  15.591  70.370  1.00  0.00    -0.140 OA 
HETATM   12  OXT UNL     1      -6.729  16.905  68.732  1.00  0.00    -0.169 OA 
ENDROOT
BRANCH   4  13
HETATM   13  C   UNL     1      -9.380  16.107  68.236  1.00  0.00    -0.205 C  
BRANCH  13  14
HETATM   14  S   UNL     1     -11.211  16.142  68.099  1.00  0.00    -0.265 SA 
BRANCH  14  15
HETATM   15  C   UNL     1     -11.847  15.458  69.615  1.00  0.00    -0.347 C  
HETATM   16  N   UNL     1     -11.861  16.272  70.612  1.00  0.00    -0.488 N  
HETATM   17  H   UNL     1     -11.636  17.261  70.499  1.00  0.00     0.000 HD 
HETATM   18  C   UNL     1     -12.009  13.112  68.629  1.00  0.00    -0.284 C  
HETATM   19  C   UNL     1     -12.195  15.743  71.842  1.00  0.00    -0.459 C  
HETATM   20  N   UNL     1     -12.184  14.103  69.675  1.00  0.00    -0.338 NA 
HETATM   21  C   UNL     1     -12.928  14.408  71.959  1.00  0.00    -0.353 C  
HETATM   22  O   UNL     1     -11.836  16.238  72.910  1.00  0.00    -0.499 OA 
HETATM   23  H   UNL     1     -12.816  12.572  70.996  1.00  0.00     0.000 HD 
HETATM   24  N   UNL     1     -12.665  13.576  70.901  1.00  0.00    -0.318 N  
HETATM   25  O   UNL     1     -13.626  14.093  72.909  1.00  0.00    -0.651 OA 
ENDBRANCH  14  15
ENDBRANCH  13  14
ENDBRANCH   4  13
BRANCH   6  26
HETATM   26  N   UNL     1      -7.033  10.633  70.299  1.00  0.00    -0.255 N  
HETATM   27  O   UNL     1      -8.308   9.226  71.559  1.00  0.00    -0.323 OA 
HETATM   28  C   UNL     1      -7.943   9.571  70.436  1.00  0.00    -0.178 C  
HETATM   29  H   UNL     1      -6.710  10.993  71.197  1.00  0.00     0.000 HD 
BRANCH  28  30
HETATM   30  C   UNL     1      -8.348   8.700  69.277  1.00  0.00    -0.118 C  
BRANCH  30  31
HETATM   31  C   UNL     1      -9.331   7.613  69.355  1.00  0.00    -0.152 A  
HETATM   32  H2  UNL     1     -10.784   3.734  70.429  1.00  0.00     0.000 HD 
HETATM   33  C   UNL     1     -10.664   7.860  69.642  1.00  0.00    -0.218 A  
HETATM   34  H1  UNL     1      -9.079   3.703  69.977  1.00  0.00     0.000 HD 
HETATM   35  N   UNL     1      -8.967   6.263  69.493  1.00  0.00    -0.134 NA 
HETATM   36  N   UNL     1      -9.947   4.222  70.108  1.00  0.00    -0.200 NA 
HETATM   37  S   UNL     1     -11.463   6.415  70.085  1.00  0.00    -0.364 SA 
HETATM   38  C   UNL     1     -10.000   5.540  69.864  1.00  0.00    -0.215 A  
ENDBRANCH  30  31
BRANCH  30  39
HETATM   39  N   UNL     1      -7.710   8.674  68.154  1.00  0.00    -0.101 NA 
HETATM   40  H   UNL     1      -6.722   8.926  68.140  1.00  0.00     0.000 HD 
BRANCH  39  41
HETATM   41  O   UNL     1      -8.332   8.312  66.959  1.00  0.00    -0.119 OA 
HETATM   42  C   UNL     1      -7.607   8.113  65.761  1.00  0.00    -0.082 C  
ENDBRANCH  39  41
ENDBRANCH  30  39
ENDBRANCH  28  30
ENDBRANCH   6  26
TORSDOF 8
ENDMDL
MODEL      206
REMARK 921   NORMALIZED FREE ENERGY PREDICTED BY IDOCK:   -5.46 KCAL/MOL
REMARK 922        TOTAL FREE ENERGY PREDICTED BY IDOCK:   -9.27 KCAL/MOL
REMARK 923 INTER-LIGAND FREE ENERGY PREDICTED BY IDOCK:   -7.50 KCAL/MOL
REMARK 924 INTRA-LIGAND FREE ENERGY PREDICTED BY IDOCK:   -1.77 KCAL/MOL
REMARK 927      BINDING AFFINITY PREDICTED BY RF-SCORE:    0.00 PKD
ROOT
HETATM    1  C   UNL     1      -8.952   6.484  68.743  1.00  0.00    -0.124 C  
HETATM    2  S   UNL     1     -10.622   7.074  68.790  1.00  0.00    -0.197 SA 
HETATM    3  C   UNL     1     -10.502   8.799  68.185  1.00  0.00    -0.191 C  
HETATM    4  C   UNL     1      -9.174   9.327  67.722  1.00  0.00    -0.141 C  
HETATM    5  CA  UNL     1      -8.009   8.612  67.752  1.00  0.00    -0.107 C  
HETATM    6  CA  UNL     1      -7.972   5.949  69.874  1.00  0.00    -0.104 C  
HETATM    7  C   UNL     1      -6.924   6.709  69.003  1.00  0.00    -0.086 C  
HETATM    8  N   UNL     1      -7.908   7.386  68.353  1.00  0.00    -0.120 N  
HETATM    9  C   UNL     1      -6.778   9.197  67.109  1.00  0.00    -0.065 C  
HETATM   10  O   UNL     1      -5.730   6.865  69.091  1.00  0.00    -0.017 OA 
HETATM   11  O   UNL     1      -5.594   8.994  67.719  1.00  0.00    -0.035 OA 
HETATM   12  OXT UNL     1      -6.827   9.820  66.060  1.00  0.00    -0.087 OA 
ENDROOT
BRANCH   4  13
HETATM   13  C   UNL     1      -9.168  10.816  67.258  1.00  0.00    -0.147 C  
BRANCH  13  14
HETATM   14  S   UNL     1     -10.497  11.965  67.795  1.00  0.00    -0.208 SA 
BRANCH  14  15
HETATM   15  C   UNL     1     -10.020  13.588  67.240  1.00  0.00    -0.236 C  
HETATM   16  N   UNL     1      -9.737  14.420  68.180  1.00  0.00    -0.217 N  
HETATM   17  H   UNL     1      -9.677  14.126  69.155  1.00  0.00     0.000 HD 
HETATM   18  C   UNL     1     -10.569  13.048  64.808  1.00  0.00    -0.362 C  
HETATM   19  C   UNL     1      -9.518  15.730  67.805  1.00  0.00    -0.212 C  
HETATM   20  N   UNL     1     -10.079  13.899  65.878  1.00  0.00    -0.309 NA 
HETATM   21  C   UNL     1      -9.188  16.098  66.360  1.00  0.00    -0.300 C  
HETATM   22  O   UNL     1      -9.679  16.686  68.565  1.00  0.00    -0.227 OA 
HETATM   23  H   UNL     1      -9.854  15.484  64.492  1.00  0.00     0.000 HD 
HETATM   24  N   UNL     1      -9.719  15.206  65.463  1.00  0.00    -0.316 N  
HETATM   25  O   UNL     1      -8.571  17.098  66.033  1.00  0.00    -0.479 OA 
ENDBRANCH  14  15
ENDBRANCH  13  14
ENDBRANCH   4  13
BRANCH   6  26
HETATM   26  N   UNL     1      -7.781   6.242  71.369  1.00  0.00    -0.099 N  
HETATM   27  O   UNL     1      -7.685   7.314  73.376  1.00  0.00    -0.090 OA 
HETATM   28  C   UNL     1      -8.002   7.361  72.189  1.00  0.00    -0.093 C  
HETATM   29  H   UNL     1      -7.410   5.444  71.883  1.00  0.00     0.000 HD 
BRANCH  28  30
HETATM   30  C   UNL     1      -8.791   8.557  71.728  1.00  0.00    -0.211 C  
BRANCH  30  31
HETATM   31  C   UNL     1     -10.237   8.725  71.916  1.00  0.00    -0.345 A  
HETATM   32  H2  UNL     1     -14.145  10.210  71.003  1.00  0.00     0.000 HD 
HETATM   33  C   UNL     1     -11.052   7.659  72.261  1.00  0.00    -0.286 A  
HETATM   34  H1  UNL     1     -12.888  11.404  70.679  1.00  0.00     0.000 HD 
HETATM   35  N   UNL     1     -10.944   9.842  71.440  1.00  0.00    -0.290 NA 
HETATM   36  N   UNL     1     -13.161  10.477  71.006  1.00  0.00    -0.371 NA 
HETATM   37  S   UNL     1     -12.696   8.045  71.992  1.00  0.00    -0.275 SA 
HETATM   38  C   UNL     1     -12.237   9.607  71.441  1.00  0.00    -0.385 A  
ENDBRANCH  30  31
BRANCH  30  39
HETATM   39  N   UNL     1      -8.317   9.451  70.925  1.00  0.00    -0.294 NA 
HETATM   40  H   UNL     1      -8.933   9.861  70.223  1.00  0.00     0.000 HD 
BRANCH  39  41
HETATM   41  O   UNL     1      -6.989   9.873  70.989  1.00  0.00    -0.333 OA 
HETATM   42  C   UNL     1      -6.492  10.925  70.184  1.00  0.00    -0.145 C  
ENDBRANCH  39  41
ENDBRANCH  30  39
ENDBRANCH  28  30
ENDBRANCH   6  26
TORSDOF 8
ENDMDL
MODEL      207
REMARK 921   NORMALIZED FREE ENERGY PREDICTED BY IDOCK:   -5.45 KCAL/MOL
REMARK 922        TOTAL FREE ENERGY PREDICTED BY IDOCK:   -9.25 KCAL/MOL
REMARK 923 INTER-LIGAND FREE ENERGY PREDICTED BY IDOCK:   -7.77 KCAL/MOL
REMARK 924 INTRA-LIGAND FREE ENERGY PREDICTED BY IDOCK:   -1.48 KCAL/MOL
REMARK 927      BINDING AFFINITY PREDICTED BY RF-SCORE:    0.00 PKD
ROOT
HETATM    1  C   UNL     1      -9.718  10.887  68.886  1.00  0.00    -0.187 C  
HETATM    2  S   UNL     1     -10.385   9.252  68.742  1.00  0.00    -0.211 SA 
HETATM    3  C   UNL     1      -9.173   8.367  67.692  1.00  0.00    -0.134 C  
HETATM    4  C   UNL     1      -7.920   9.074  67.257  1.00  0.00    -0.099 C  
HETATM    5  CA  UNL     1      -7.624  10.374  67.563  1.00  0.00    -0.094 C  
HETATM    6  CA  UNL     1     -10.275  12.313  68.461  1.00  0.00    -0.206 C  
HETATM    7  C   UNL     1      -8.768  12.548  68.132  1.00  0.00    -0.190 C  
HETATM    8  N   UNL     1      -8.518  11.213  68.172  1.00  0.00    -0.132 N  
HETATM    9  C   UNL     1      -6.265  10.915  67.206  1.00  0.00    -0.064 C  
HETATM   10  O   UNL     1      -8.150  13.495  67.708  1.00  0.00    -0.147 OA 
HETATM   11  O   UNL     1      -6.190  12.187  66.770  1.00  0.00    -0.164 OA 
HETATM   12  OXT UNL     1      -5.249  10.246  67.319  1.00  0.00    -0.040 OA 
ENDROOT
BRANCH   4  13
HETATM   13  C   UNL     1      -6.969   8.249  66.338  1.00  0.00    -0.067 C  
BRANCH  13  14
HETATM   14  S   UNL     1      -7.417   7.923  64.586  1.00  0.00    -0.108 SA 
BRANCH  14  15
HETATM   15  C   UNL     1      -8.016   6.248  64.518  1.00  0.00    -0.121 C  
HETATM   16  N   UNL     1      -9.014   5.998  65.292  1.00  0.00    -0.367 N  
HETATM   17  H   UNL     1      -9.490   6.739  65.807  1.00  0.00     0.000 HD 
HETATM   18  C   UNL     1      -6.103   5.498  63.008  1.00  0.00    -0.021 C  
HETATM   19  C   UNL     1      -9.408   4.680  65.392  1.00  0.00    -0.158 C  
HETATM   20  N   UNL     1      -7.337   5.300  63.747  1.00  0.00    -0.050 NA 
HETATM   21  C   UNL     1      -9.004   3.649  64.339  1.00  0.00    -0.121 C  
HETATM   22  O   UNL     1     -10.004   4.225  66.369  1.00  0.00    -0.221 OA 
HETATM   23  H   UNL     1      -7.280   3.240  63.258  1.00  0.00     0.000 HD 
HETATM   24  N   UNL     1      -7.819   3.967  63.728  1.00  0.00    -0.082 N  
HETATM   25  O   UNL     1      -9.633   2.629  64.105  1.00  0.00    -0.137 OA 
ENDBRANCH  14  15
ENDBRANCH  13  14
ENDBRANCH   4  13
BRANCH   6  26
HETATM   26  N   UNL     1     -11.184  12.829  67.336  1.00  0.00    -0.278 N  
HETATM   27  O   UNL     1     -12.638  14.103  66.132  1.00  0.00    -0.465 OA 
HETATM   28  C   UNL     1     -11.938  13.997  67.137  1.00  0.00    -0.430 C  
HETATM   29  H   UNL     1     -11.256  12.176  66.556  1.00  0.00     0.000 HD 
BRANCH  28  30
HETATM   30  C   UNL     1     -11.783  15.216  68.006  1.00  0.00    -0.285 C  
BRANCH  30  31
HETATM   31  C   UNL     1     -10.741  16.236  67.833  1.00  0.00    -0.329 A  
HETATM   32  H2  UNL     1      -8.930  19.710  66.112  1.00  0.00     0.000 HD 
HETATM   33  C   UNL     1     -10.101  16.811  68.919  1.00  0.00    -0.285 A  
HETATM   34  H1  UNL     1      -9.806  18.755  64.915  1.00  0.00     0.000 HD 
HETATM   35  N   UNL     1     -10.561  16.946  66.634  1.00  0.00    -0.243 NA 
HETATM   36  N   UNL     1      -9.491  18.891  65.876  1.00  0.00    -0.423 NA 
HETATM   37  S   UNL     1      -9.276  18.233  68.450  1.00  0.00    -0.321 SA 
HETATM   38  C   UNL     1      -9.807  18.004  66.831  1.00  0.00    -0.330 A  
ENDBRANCH  30  31
BRANCH  30  39
HETATM   39  N   UNL     1     -12.409  15.373  69.125  1.00  0.00    -0.609 NA 
HETATM   40  H   UNL     1     -12.738  16.303  69.381  1.00  0.00     0.000 HD 
BRANCH  39  41
HETATM   41  O   UNL     1     -12.648  14.308  69.994  1.00  0.00    -0.335 OA 
HETATM   42  C   UNL     1     -12.040  14.222  71.268  1.00  0.00    -0.316 C  
ENDBRANCH  39  41
ENDBRANCH  30  39
ENDBRANCH  28  30
ENDBRANCH   6  26
TORSDOF 8
ENDMDL
MODEL      208
REMARK 921   NORMALIZED FREE ENERGY PREDICTED BY IDOCK:   -5.41 KCAL/MOL
REMARK 922        TOTAL FREE ENERGY PREDICTED BY IDOCK:   -9.21 KCAL/MOL
REMARK 923 INTER-LIGAND FREE ENERGY PREDICTED BY IDOCK:   -7.13 KCAL/MOL
REMARK 924 INTRA-LIGAND FREE ENERGY PREDICTED BY IDOCK:   -2.08 KCAL/MOL
REMARK 927      BINDING AFFINITY PREDICTED BY RF-SCORE:    0.00 PKD
ROOT
HETATM    1  C   UNL     1      -8.372   7.884  65.478  1.00  0.00    -0.147 C  
HETATM    2  S   UNL     1      -6.748   7.199  65.293  1.00  0.00    -0.048 SA 
HETATM    3  C   UNL     1      -6.581   6.059  66.717  1.00  0.00    -0.056 C  
HETATM    4  C   UNL     1      -7.748   5.857  67.641  1.00  0.00    -0.097 C  
HETATM    5  CA  UNL     1      -8.947   6.504  67.518  1.00  0.00    -0.110 C  
HETATM    6  CA  UNL     1      -8.890   9.372  65.683  1.00  0.00    -0.174 C  
HETATM    7  C   UNL     1      -9.921   8.641  66.599  1.00  0.00    -0.287 C  
HETATM    8  N   UNL     1      -9.152   7.520  66.624  1.00  0.00    -0.151 N  
HETATM    9  C   UNL     1     -10.091   6.094  68.409  1.00  0.00    -0.158 C  
HETATM   10  O   UNL     1     -10.854   9.021  67.264  1.00  0.00    -0.223 OA 
HETATM   11  O   UNL     1     -10.903   7.063  68.875  1.00  0.00    -0.215 OA 
HETATM   12  OXT UNL     1     -10.305   4.926  68.696  1.00  0.00    -0.096 OA 
ENDROOT
BRANCH   4  13
HETATM   13  C   UNL     1      -7.497   4.895  68.842  1.00  0.00    -0.065 C  
BRANCH  13  14
HETATM   14  S   UNL     1      -6.897   5.550  70.450  1.00  0.00    -0.054 SA 
BRANCH  14  15
HETATM   15  C   UNL     1      -8.289   6.343  71.227  1.00  0.00    -0.123 C  
HETATM   16  N   UNL     1      -9.139   5.540  71.764  1.00  0.00    -0.139 N  
HETATM   17  H   UNL     1      -8.957   4.539  71.838  1.00  0.00     0.000 HD 
HETATM   18  C   UNL     1      -7.605   8.647  70.372  1.00  0.00    -0.075 C  
HETATM   19  C   UNL     1     -10.309   6.099  72.236  1.00  0.00    -0.192 C  
HETATM   20  N   UNL     1      -8.441   7.729  71.125  1.00  0.00    -0.110 NA 
HETATM   21  C   UNL     1     -10.417   7.596  72.518  1.00  0.00    -0.268 C  
HETATM   22  O   UNL     1     -11.360   5.467  72.354  1.00  0.00    -0.271 OA 
HETATM   23  H   UNL     1      -9.756   9.326  71.580  1.00  0.00     0.000 HD 
HETATM   24  N   UNL     1      -9.571   8.335  71.731  1.00  0.00    -0.187 N  
HETATM   25  O   UNL     1     -11.203   8.087  73.312  1.00  0.00    -0.262 OA 
ENDBRANCH  14  15
ENDBRANCH  13  14
ENDBRANCH   4  13
BRANCH   6  26
HETATM   26  N   UNL     1      -8.328  10.630  66.360  1.00  0.00    -0.145 N  
HETATM   27  O   UNL     1      -8.097  12.761  67.130  1.00  0.00    -0.176 OA 
HETATM   28  C   UNL     1      -8.825  11.921  66.604  1.00  0.00    -0.191 C  
HETATM   29  H   UNL     1      -7.381  10.499  66.713  1.00  0.00     0.000 HD 
BRANCH  28  30
HETATM   30  C   UNL     1     -10.277  12.275  66.428  1.00  0.00    -0.225 C  
BRANCH  30  31
HETATM   31  C   UNL     1     -11.060  13.079  67.375  1.00  0.00    -0.272 A  
HETATM   32  H2  UNL     1     -12.646  14.160  71.199  1.00  0.00     0.000 HD 
HETATM   33  C   UNL     1     -11.067  14.464  67.317  1.00  0.00    -0.311 A  
HETATM   34  H1  UNL     1     -12.554  12.412  70.987  1.00  0.00     0.000 HD 
HETATM   35  N   UNL     1     -11.561  12.564  68.582  1.00  0.00    -0.292 NA 
HETATM   36  N   UNL     1     -12.415  13.353  70.620  1.00  0.00    -0.334 NA 
HETATM   37  S   UNL     1     -11.694  15.125  68.764  1.00  0.00    -0.325 SA 
HETATM   38  C   UNL     1     -11.930  13.538  69.383  1.00  0.00    -0.330 A  
ENDBRANCH  30  31
BRANCH  30  39
HETATM   39  N   UNL     1     -11.038  11.722  65.544  1.00  0.00    -0.301 NA 
HETATM   40  H   UNL     1     -11.606  10.918  65.813  1.00  0.00     0.000 HD 
BRANCH  39  41
HETATM   41  O   UNL     1     -11.108  12.190  64.231  1.00  0.00    -0.305 OA 
HETATM   42  C   UNL     1     -10.215  11.753  63.226  1.00  0.00    -0.416 C  
ENDBRANCH  39  41
ENDBRANCH  30  39
ENDBRANCH  28  30
ENDBRANCH   6  26
TORSDOF 8
ENDMDL
MODEL      209
REMARK 921   NORMALIZED FREE ENERGY PREDICTED BY IDOCK:   -5.41 KCAL/MOL
REMARK 922        TOTAL FREE ENERGY PREDICTED BY IDOCK:   -9.20 KCAL/MOL
REMARK 923 INTER-LIGAND FREE ENERGY PREDICTED BY IDOCK:   -7.25 KCAL/MOL
REMARK 924 INTRA-LIGAND FREE ENERGY PREDICTED BY IDOCK:   -1.95 KCAL/MOL
REMARK 927      BINDING AFFINITY PREDICTED BY RF-SCORE:    0.00 PKD
ROOT
HETATM    1  C   UNL     1      -8.873   6.439  69.363  1.00  0.00    -0.132 C  
HETATM    2  S   UNL     1     -10.432   6.673  68.554  1.00  0.00    -0.234 SA 
HETATM    3  C   UNL     1     -10.702   8.484  68.621  1.00  0.00    -0.041 C  
HETATM    4  C   UNL     1      -9.635   9.367  69.205  1.00  0.00    -0.163 C  
HETATM    5  CA  UNL     1      -8.462   8.907  69.737  1.00  0.00    -0.131 C  
HETATM    6  CA  UNL     1      -8.453   5.630  70.664  1.00  0.00    -0.126 C  
HETATM    7  C   UNL     1      -7.495   6.851  70.832  1.00  0.00    -0.083 C  
HETATM    8  N   UNL     1      -8.208   7.575  69.930  1.00  0.00    -0.129 N  
HETATM    9  C   UNL     1      -7.406   9.902  70.141  1.00  0.00    -0.160 C  
HETATM   10  O   UNL     1      -6.660   7.142  71.654  1.00  0.00    -0.047 OA 
HETATM   11  O   UNL     1      -6.697   9.647  71.258  1.00  0.00    -0.293 OA 
HETATM   12  OXT UNL     1      -7.170  10.902  69.482  1.00  0.00    -0.127 OA 
ENDROOT
BRANCH   4  13
HETATM   13  C   UNL     1      -9.972  10.888  69.250  1.00  0.00    -0.113 C  
BRANCH  13  14
HETATM   14  S   UNL     1     -11.342  11.569  68.233  1.00  0.00    -0.314 SA 
BRANCH  14  15
HETATM   15  C   UNL     1     -11.188  13.342  68.294  1.00  0.00    -0.277 C  
HETATM   16  N   UNL     1     -11.378  13.862  69.456  1.00  0.00    -0.351 N  
HETATM   17  H   UNL     1     -11.487  13.284  70.289  1.00  0.00     0.000 HD 
HETATM   18  C   UNL     1     -10.950  13.529  65.762  1.00  0.00    -0.278 C  
HETATM   19  C   UNL     1     -11.426  15.239  69.520  1.00  0.00    -0.305 C  
HETATM   20  N   UNL     1     -10.985  14.061  67.112  1.00  0.00    -0.292 NA 
HETATM   21  C   UNL     1     -10.855  16.107  68.400  1.00  0.00    -0.318 C  
HETATM   22  O   UNL     1     -12.017  15.854  70.408  1.00  0.00    -0.353 OA 
HETATM   23  H   UNL     1     -10.848  16.023  66.326  1.00  0.00     0.000 HD 
HETATM   24  N   UNL     1     -10.890  15.474  67.184  1.00  0.00    -0.320 N  
HETATM   25  O   UNL     1     -10.463  17.252  68.555  1.00  0.00    -0.343 OA 
ENDBRANCH  14  15
ENDBRANCH  13  14
ENDBRANCH   4  13
BRANCH   6  26
HETATM   26  N   UNL     1      -9.144   5.270  71.986  1.00  0.00    -0.137 N  
HETATM   27  O   UNL     1     -10.141   5.427  74.028  1.00  0.00    -0.184 OA 
HETATM   28  C   UNL     1      -9.700   6.013  73.041  1.00  0.00    -0.158 C  
HETATM   29  H   UNL     1      -9.216   4.263  72.132  1.00  0.00     0.000 HD 
BRANCH  28  30
HETATM   30  C   UNL     1      -9.960   7.492  72.937  1.00  0.00    -0.249 C  
BRANCH  30  31
HETATM   31  C   UNL     1     -11.238   8.087  72.529  1.00  0.00    -0.388 A  
HETATM   32  H2  UNL     1     -13.792  11.108  70.898  1.00  0.00     0.000 HD 
HETATM   33  C   UNL     1     -12.213   7.342  71.885  1.00  0.00    -0.313 A  
HETATM   34  H1  UNL     1     -12.452  11.796  71.816  1.00  0.00     0.000 HD 
HETATM   35  N   UNL     1     -11.438   9.475  72.435  1.00  0.00     0.457 NA 
HETATM   36  N   UNL     1     -12.955  10.980  71.467  1.00  0.00    -0.450 NA 
HETATM   37  S   UNL     1     -13.376   8.365  71.162  1.00  0.00     0.092 SA 
HETATM   38  C   UNL     1     -12.528   9.740  71.750  1.00  0.00    -0.398 A  
ENDBRANCH  30  31
BRANCH  30  39
HETATM   39  N   UNL     1      -9.023   8.380  72.980  1.00  0.00    -0.292 NA 
HETATM   40  H   UNL     1      -8.677   8.776  72.107  1.00  0.00     0.000 HD 
BRANCH  39  41
HETATM   41  O   UNL     1      -8.471   8.815  74.186  1.00  0.00    -0.179 OA 
HETATM   42  C   UNL     1      -7.099   8.650  74.490  1.00  0.00    -0.122 C  
ENDBRANCH  39  41
ENDBRANCH  30  39
ENDBRANCH  28  30
ENDBRANCH   6  26
TORSDOF 8
ENDMDL
MODEL      210
REMARK 921   NORMALIZED FREE ENERGY PREDICTED BY IDOCK:   -5.41 KCAL/MOL
REMARK 922        TOTAL FREE ENERGY PREDICTED BY IDOCK:   -9.20 KCAL/MOL
REMARK 923 INTER-LIGAND FREE ENERGY PREDICTED BY IDOCK:   -7.41 KCAL/MOL
REMARK 924 INTRA-LIGAND FREE ENERGY PREDICTED BY IDOCK:   -1.80 KCAL/MOL
REMARK 927      BINDING AFFINITY PREDICTED BY RF-SCORE:    0.00 PKD
ROOT
HETATM    1  C   UNL     1      -8.255  10.391  69.162  1.00  0.00    -0.157 C  
HETATM    2  S   UNL     1      -6.837  11.446  69.287  1.00  0.00    -0.110 SA 
HETATM    3  C   UNL     1      -7.456  13.088  68.762  1.00  0.00    -0.049 C  
HETATM    4  C   UNL     1      -8.913  13.258  68.438  1.00  0.00    -0.124 C  
HETATM    5  CA  UNL     1      -9.831  12.245  68.470  1.00  0.00    -0.153 C  
HETATM    6  CA  UNL     1      -8.551   9.094  68.293  1.00  0.00    -0.129 C  
HETATM    7  C   UNL     1      -9.972   9.737  68.238  1.00  0.00    -0.153 C  
HETATM    8  N   UNL     1      -9.481  10.934  68.656  1.00  0.00    -0.184 N  
HETATM    9  C   UNL     1     -11.289  12.576  68.282  1.00  0.00    -0.286 C  
HETATM   10  O   UNL     1     -11.016   9.400  67.733  1.00  0.00    -0.219 OA 
HETATM   11  O   UNL     1     -12.043  11.713  67.573  1.00  0.00    -0.611 OA 
HETATM   12  OXT UNL     1     -11.795  13.577  68.765  1.00  0.00    -0.319 OA 
ENDROOT
BRANCH   4  13
HETATM   13  C   UNL     1      -9.336  14.683  67.967  1.00  0.00    -0.198 C  
BRANCH  13  14
HETATM   14  S   UNL     1      -9.111  15.191  66.216  1.00  0.00    -0.229 SA 
BRANCH  14  15
HETATM   15  C   UNL     1     -10.249  14.217  65.254  1.00  0.00    -0.382 C  
HETATM   16  N   UNL     1      -9.919  12.981  65.114  1.00  0.00    -0.488 N  
HETATM   17  H   UNL     1      -9.131  12.577  65.620  1.00  0.00     0.000 HD 
HETATM   18  C   UNL     1     -11.640  16.257  64.614  1.00  0.00    -0.067 C  
HETATM   19  C   UNL     1     -10.685  12.228  64.247  1.00  0.00    -0.351 C  
HETATM   20  N   UNL     1     -11.338  14.837  64.634  1.00  0.00    -0.385 NA 
HETATM   21  C   UNL     1     -12.081  12.680  63.824  1.00  0.00    -0.522 C  
HETATM   22  O   UNL     1     -10.266  11.220  63.677  1.00  0.00    -0.320 OA 
HETATM   23  H   UNL     1     -12.953  14.492  63.308  1.00  0.00     0.000 HD 
HETATM   24  N   UNL     1     -12.216  14.045  63.852  1.00  0.00    -0.396 N  
HETATM   25  O   UNL     1     -12.961  11.921  63.450  1.00  0.00    -0.730 OA 
ENDBRANCH  14  15
ENDBRANCH  13  14
ENDBRANCH   4  13
BRANCH   6  26
HETATM   26  N   UNL     1      -8.108   8.591  66.912  1.00  0.00    -0.098 N  
HETATM   27  O   UNL     1      -7.025   7.457  65.260  1.00  0.00    -0.057 OA 
HETATM   28  C   UNL     1      -7.230   7.589  66.465  1.00  0.00    -0.076 C  
HETATM   29  H   UNL     1      -8.550   9.098  66.146  1.00  0.00     0.000 HD 
BRANCH  28  30
HETATM   30  C   UNL     1      -6.672   6.536  67.383  1.00  0.00    -0.067 C  
BRANCH  30  31
HETATM   31  C   UNL     1      -7.348   5.274  67.714  1.00  0.00    -0.076 A  
HETATM   32  H2  UNL     1      -8.100   1.730  69.990  1.00  0.00     0.000 HD 
HETATM   33  C   UNL     1      -8.724   5.144  67.620  1.00  0.00    -0.103 A  
HETATM   34  H1  UNL     1      -6.381   2.121  69.917  1.00  0.00     0.000 HD 
HETATM   35  N   UNL     1      -6.735   4.253  68.458  1.00  0.00    -0.046 NA 
HETATM   36  N   UNL     1      -7.345   2.333  69.660  1.00  0.00    -0.043 NA 
HETATM   37  S   UNL     1      -9.256   3.751  68.459  1.00  0.00    -0.165 SA 
HETATM   38  C   UNL     1      -7.631   3.395  68.892  1.00  0.00    -0.052 A  
ENDBRANCH  30  31
BRANCH  30  39
HETATM   39  N   UNL     1      -5.648   6.731  68.146  1.00  0.00    -0.015 NA 
HETATM   40  H   UNL     1      -4.964   5.983  68.256  1.00  0.00     0.000 HD 
BRANCH  39  41
HETATM   41  O   UNL     1      -5.450   7.934  68.824  1.00  0.00    -0.026 OA 
HETATM   42  C   UNL     1      -5.459   8.014  70.236  1.00  0.00    -0.023 C  
ENDBRANCH  39  41
ENDBRANCH  30  39
ENDBRANCH  28  30
ENDBRANCH   6  26
TORSDOF 8
ENDMDL
MODEL      211
REMARK 921   NORMALIZED FREE ENERGY PREDICTED BY IDOCK:   -5.41 KCAL/MOL
REMARK 922        TOTAL FREE ENERGY PREDICTED BY IDOCK:   -9.20 KCAL/MOL
REMARK 923 INTER-LIGAND FREE ENERGY PREDICTED BY IDOCK:   -7.36 KCAL/MOL
REMARK 924 INTRA-LIGAND FREE ENERGY PREDICTED BY IDOCK:   -1.84 KCAL/MOL
REMARK 927      BINDING AFFINITY PREDICTED BY RF-SCORE:    0.00 PKD
ROOT
HETATM    1  C   UNL     1     -12.136   9.020  71.569  1.00  0.00    -0.340 C  
HETATM    2  S   UNL     1     -13.523   7.917  71.590  1.00  0.00    -0.306 SA 
HETATM    3  C   UNL     1     -12.836   6.349  72.241  1.00  0.00     0.144 C  
HETATM    4  C   UNL     1     -11.399   6.299  72.679  1.00  0.00    -0.283 C  
HETATM    5  CA  UNL     1     -10.532   7.353  72.593  1.00  0.00    -0.255 C  
HETATM    6  CA  UNL     1     -11.407   9.802  70.394  1.00  0.00    -0.297 C  
HETATM    7  C   UNL     1     -10.152   9.457  71.255  1.00  0.00    -0.238 C  
HETATM    8  N   UNL     1     -10.848   8.522  71.953  1.00  0.00    -0.297 N  
HETATM    9  C   UNL     1      -9.166   7.225  73.215  1.00  0.00    -0.174 C  
HETATM   10  O   UNL     1      -8.974   9.696  71.136  1.00  0.00    -0.173 OA 
HETATM   11  O   UNL     1      -8.125   7.780  72.564  1.00  0.00    -0.105 OA 
HETATM   12  OXT UNL     1      -8.989   6.660  74.283  1.00  0.00    -0.150 OA 
ENDROOT
BRANCH   4  13
HETATM   13  C   UNL     1     -10.898   4.912  73.185  1.00  0.00    -0.282 C  
BRANCH  13  14
HETATM   14  S   UNL     1     -10.054   3.751  72.038  1.00  0.00    -0.092 SA 
BRANCH  14  15
HETATM   15  C   UNL     1      -9.566   4.706  70.617  1.00  0.00    -0.191 C  
HETATM   16  N   UNL     1     -10.530   5.040  69.833  1.00  0.00    -0.238 N  
HETATM   17  H   UNL     1     -11.505   4.870  70.080  1.00  0.00     0.000 HD 
HETATM   18  C   UNL     1      -7.084   4.425  71.132  1.00  0.00    -0.037 C  
HETATM   19  C   UNL     1     -10.181   5.641  68.640  1.00  0.00    -0.200 C  
HETATM   20  N   UNL     1      -8.209   4.941  70.374  1.00  0.00    -0.086 NA 
HETATM   21  C   UNL     1      -8.805   6.275  68.444  1.00  0.00    -0.114 C  
HETATM   22  O   UNL     1     -10.892   5.612  67.636  1.00  0.00    -0.225 OA 
HETATM   23  H   UNL     1      -6.860   5.776  68.971  1.00  0.00     0.000 HD 
HETATM   24  N   UNL     1      -7.844   5.683  69.222  1.00  0.00    -0.088 N  
HETATM   25  O   UNL     1      -8.573   7.170  67.647  1.00  0.00    -0.122 OA 
ENDBRANCH  14  15
ENDBRANCH  13  14
ENDBRANCH   4  13
BRANCH   6  26
HETATM   26  N   UNL     1     -11.159   9.531  68.904  1.00  0.00    -0.446 N  
HETATM   27  O   UNL     1     -10.697   9.821  66.692  1.00  0.00    -0.147 OA 
HETATM   28  C   UNL     1     -10.746  10.318  67.816  1.00  0.00    -0.275 C  
HETATM   29  H   UNL     1     -11.335   8.561  68.644  1.00  0.00     0.000 HD 
BRANCH  28  30
HETATM   30  C   UNL     1     -10.170  11.698  67.990  1.00  0.00    -0.190 C  
BRANCH  30  31
HETATM   31  C   UNL     1     -10.966  12.914  68.200  1.00  0.00    -0.248 A  
HETATM   32  H2  UNL     1     -12.974  15.915  70.495  1.00  0.00     0.000 HD 
HETATM   33  C   UNL     1     -10.751  14.059  67.450  1.00  0.00    -0.283 A  
HETATM   34  H1  UNL     1     -13.117  14.314  71.223  1.00  0.00     0.000 HD 
HETATM   35  N   UNL     1     -11.730  13.134  69.358  1.00  0.00    -0.312 NA 
HETATM   36  N   UNL     1     -12.777  14.914  70.472  1.00  0.00    -0.354 NA 
HETATM   37  S   UNL     1     -11.499  15.409  68.185  1.00  0.00    -0.316 SA 
HETATM   38  C   UNL     1     -12.073  14.399  69.452  1.00  0.00    -0.297 A  
ENDBRANCH  30  31
BRANCH  30  39
HETATM   39  N   UNL     1      -8.933  11.984  67.749  1.00  0.00    -0.169 NA 
HETATM   40  H   UNL     1      -8.714  12.844  67.246  1.00  0.00     0.000 HD 
BRANCH  39  41
HETATM   41  O   UNL     1      -7.889  11.154  68.157  1.00  0.00    -0.107 OA 
HETATM   42  C   UNL     1      -6.617  11.184  67.540  1.00  0.00    -0.070 C  
ENDBRANCH  39  41
ENDBRANCH  30  39
ENDBRANCH  28  30
ENDBRANCH   6  26
TORSDOF 8
ENDMDL
MODEL      212
REMARK 921   NORMALIZED FREE ENERGY PREDICTED BY IDOCK:   -5.39 KCAL/MOL
REMARK 922        TOTAL FREE ENERGY PREDICTED BY IDOCK:   -9.18 KCAL/MOL
REMARK 923 INTER-LIGAND FREE ENERGY PREDICTED BY IDOCK:   -7.38 KCAL/MOL
REMARK 924 INTRA-LIGAND FREE ENERGY PREDICTED BY IDOCK:   -1.80 KCAL/MOL
REMARK 927      BINDING AFFINITY PREDICTED BY RF-SCORE:    0.00 PKD
ROOT
HETATM    1  C   UNL     1      -7.678   9.922  68.354  1.00  0.00    -0.084 C  
HETATM    2  S   UNL     1      -7.971   9.664  70.083  1.00  0.00    -0.180 SA 
HETATM    3  C   UNL     1      -7.987   7.841  70.264  1.00  0.00    -0.100 C  
HETATM    4  C   UNL     1      -7.695   6.978  69.070  1.00  0.00    -0.109 C  
HETATM    5  CA  UNL     1      -7.447   7.461  67.814  1.00  0.00    -0.101 C  
HETATM    6  CA  UNL     1      -8.531  10.634  67.218  1.00  0.00    -0.126 C  
HETATM    7  C   UNL     1      -7.943   9.466  66.366  1.00  0.00    -0.108 C  
HETATM    8  N   UNL     1      -7.591   8.783  67.488  1.00  0.00    -0.093 N  
HETATM    9  C   UNL     1      -7.008   6.503  66.739  1.00  0.00    -0.067 C  
HETATM   10  O   UNL     1      -8.045   9.155  65.204  1.00  0.00    -0.118 OA 
HETATM   11  O   UNL     1      -7.479   6.699  65.491  1.00  0.00    -0.073 OA 
HETATM   12  OXT UNL     1      -6.236   5.583  66.963  1.00  0.00    -0.032 OA 
ENDROOT
BRANCH   4  13
HETATM   13  C   UNL     1      -7.768   5.441  69.317  1.00  0.00    -0.085 C  
BRANCH  13  14
HETATM   14  S   UNL     1      -9.372   4.553  69.201  1.00  0.00    -0.163 SA 
BRANCH  14  15
HETATM   15  C   UNL     1      -9.662   4.251  67.471  1.00  0.00    -0.148 C  
HETATM   16  N   UNL     1      -9.036   3.236  66.986  1.00  0.00    -0.146 N  
HETATM   17  H   UNL     1      -8.515   2.593  67.583  1.00  0.00     0.000 HD 
HETATM   18  C   UNL     1     -11.000   6.404  67.197  1.00  0.00    -0.399 C  
HETATM   19  C   UNL     1      -9.104   3.059  65.619  1.00  0.00    -0.149 C  
HETATM   20  N   UNL     1     -10.432   5.152  66.731  1.00  0.00    -0.263 NA 
HETATM   21  C   UNL     1     -10.192   3.732  64.785  1.00  0.00    -0.150 C  
HETATM   22  O   UNL     1      -8.249   2.452  64.973  1.00  0.00    -0.081 OA 
HETATM   23  H   UNL     1     -11.097   5.600  64.770  1.00  0.00     0.000 HD 
HETATM   24  N   UNL     1     -10.628   4.904  65.348  1.00  0.00    -0.039 N  
HETATM   25  O   UNL     1     -10.590   3.309  63.712  1.00  0.00    -0.231 OA 
ENDBRANCH  14  15
ENDBRANCH  13  14
ENDBRANCH   4  13
BRANCH   6  26
HETATM   26  N   UNL     1     -10.030  10.827  66.950  1.00  0.00    -0.193 N  
HETATM   27  O   UNL     1     -12.144  11.674  66.952  1.00  0.00    -0.512 OA 
HETATM   28  C   UNL     1     -10.963  11.832  67.254  1.00  0.00    -0.267 C  
HETATM   29  H   UNL     1     -10.442  10.050  66.434  1.00  0.00     0.000 HD 
BRANCH  28  30
HETATM   30  C   UNL     1     -10.552  13.189  67.761  1.00  0.00    -0.234 C  
BRANCH  30  31
HETATM   31  C   UNL     1     -10.031  14.272  66.917  1.00  0.00    -0.263 A  
HETATM   32  H2  UNL     1     -10.162  18.020  64.857  1.00  0.00     0.000 HD 
HETATM   33  C   UNL     1      -8.732  14.734  67.051  1.00  0.00    -0.235 A  
HETATM   34  H1  UNL     1     -11.715  17.184  64.815  1.00  0.00     0.000 HD 
HETATM   35  N   UNL     1     -10.863  15.136  66.186  1.00  0.00    -0.326 NA 
HETATM   36  N   UNL     1     -10.736  17.212  65.099  1.00  0.00    -0.660 NA 
HETATM   37  S   UNL     1      -8.545  16.243  66.268  1.00  0.00    -0.316 SA 
HETATM   38  C   UNL     1     -10.195  16.196  65.789  1.00  0.00    -0.374 A  
ENDBRANCH  30  31
BRANCH  30  39
HETATM   39  N   UNL     1     -10.405  13.461  69.015  1.00  0.00    -0.430 NA 
HETATM   40  H   UNL     1      -9.463  13.522  69.401  1.00  0.00     0.000 HD 
BRANCH  39  41
HETATM   41  O   UNL     1     -11.496  13.674  69.858  1.00  0.00    -0.225 OA 
HETATM   42  C   UNL     1     -11.781  14.942  70.417  1.00  0.00    -0.297 C  
ENDBRANCH  39  41
ENDBRANCH  30  39
ENDBRANCH  28  30
ENDBRANCH   6  26
TORSDOF 8
ENDMDL
MODEL      213
REMARK 921   NORMALIZED FREE ENERGY PREDICTED BY IDOCK:   -5.38 KCAL/MOL
REMARK 922        TOTAL FREE ENERGY PREDICTED BY IDOCK:   -9.16 KCAL/MOL
REMARK 923 INTER-LIGAND FREE ENERGY PREDICTED BY IDOCK:   -7.90 KCAL/MOL
REMARK 924 INTRA-LIGAND FREE ENERGY PREDICTED BY IDOCK:   -1.26 KCAL/MOL
REMARK 927      BINDING AFFINITY PREDICTED BY RF-SCORE:    0.00 PKD
ROOT
HETATM    1  C   UNL     1      -8.496   9.683  66.017  1.00  0.00    -0.124 C  
HETATM    2  S   UNL     1     -10.248   9.585  66.264  1.00  0.00    -0.166 SA 
HETATM    3  C   UNL     1     -10.651  11.102  67.207  1.00  0.00    -0.239 C  
HETATM    4  C   UNL     1      -9.565  12.099  67.499  1.00  0.00    -0.179 C  
HETATM    5  CA  UNL     1      -8.256  11.939  67.135  1.00  0.00    -0.171 C  
HETATM    6  CA  UNL     1      -7.298   8.741  66.464  1.00  0.00    -0.081 C  
HETATM    7  C   UNL     1      -6.584  10.118  66.634  1.00  0.00    -0.075 C  
HETATM    8  N   UNL     1      -7.774  10.775  66.599  1.00  0.00    -0.134 N  
HETATM    9  C   UNL     1      -7.297  13.082  67.342  1.00  0.00    -0.116 C  
HETATM   10  O   UNL     1      -5.470  10.438  66.973  1.00  0.00    -0.040 OA 
HETATM   11  O   UNL     1      -6.044  12.787  67.739  1.00  0.00    -0.102 OA 
HETATM   12  OXT UNL     1      -7.618  14.243  67.143  1.00  0.00    -0.145 OA 
ENDROOT
BRANCH   4  13
HETATM   13  C   UNL     1      -9.998  13.340  68.337  1.00  0.00    -0.226 C  
BRANCH  13  14
HETATM   14  S   UNL     1     -11.763  13.848  68.405  1.00  0.00    -0.373 SA 
BRANCH  14  15
HETATM   15  C   UNL     1     -12.092  14.317  70.090  1.00  0.00    -0.339 C  
HETATM   16  N   UNL     1     -12.858  13.510  70.737  1.00  0.00    -0.222 N  
HETATM   17  H   UNL     1     -13.149  12.616  70.342  1.00  0.00     0.000 HD 
HETATM   18  C   UNL     1     -10.905  16.559  69.824  1.00  0.00    -0.302 C  
HETATM   19  C   UNL     1     -13.268  13.914  71.991  1.00  0.00    -0.416 C  
HETATM   20  N   UNL     1     -11.614  15.538  70.574  1.00  0.00    -0.312 NA 
HETATM   21  C   UNL     1     -12.528  15.012  72.753  1.00  0.00    -0.377 C  
HETATM   22  O   UNL     1     -14.301  13.510  72.527  1.00  0.00    -0.713 OA 
HETATM   23  H   UNL     1     -11.662  16.830  72.253  1.00  0.00     0.000 HD 
HETATM   24  N   UNL     1     -11.910  15.902  71.913  1.00  0.00    -0.463 N  
HETATM   25  O   UNL     1     -12.529  15.119  73.969  1.00  0.00    -0.575 OA 
ENDBRANCH  14  15
ENDBRANCH  13  14
ENDBRANCH   4  13
BRANCH   6  26
HETATM   26  N   UNL     1      -7.034   7.818  67.662  1.00  0.00    -0.079 N  
HETATM   27  O   UNL     1      -7.323   6.324  69.356  1.00  0.00    -0.086 OA 
HETATM   28  C   UNL     1      -7.803   6.880  68.371  1.00  0.00    -0.121 C  
HETATM   29  H   UNL     1      -6.085   7.906  68.026  1.00  0.00     0.000 HD 
BRANCH  28  30
HETATM   30  C   UNL     1      -9.128   6.377  67.866  1.00  0.00    -0.112 C  
BRANCH  30  31
HETATM   31  C   UNL     1      -9.303   5.545  66.668  1.00  0.00    -0.141 A  
HETATM   32  H2  UNL     1      -8.286   3.991  62.813  1.00  0.00     0.000 HD 
HETATM   33  C   UNL     1      -9.721   4.227  66.756  1.00  0.00    -0.219 A  
HETATM   34  H1  UNL     1      -7.881   5.701  62.969  1.00  0.00     0.000 HD 
HETATM   35  N   UNL     1      -8.750   5.878  65.421  1.00  0.00    -0.137 NA 
HETATM   36  N   UNL     1      -8.271   4.847  63.368  1.00  0.00    -0.104 NA 
HETATM   37  S   UNL     1      -9.424   3.401  65.288  1.00  0.00    -0.115 SA 
HETATM   38  C   UNL     1      -8.766   4.840  64.615  1.00  0.00    -0.153 A  
ENDBRANCH  30  31
BRANCH  30  39
HETATM   39  N   UNL     1     -10.264   6.808  68.305  1.00  0.00    -0.164 NA 
HETATM   40  H   UNL     1     -10.981   7.083  67.635  1.00  0.00     0.000 HD 
BRANCH  39  41
HETATM   41  O   UNL     1     -10.539   6.909  69.669  1.00  0.00    -0.212 OA 
HETATM   42  C   UNL     1     -11.786   6.527  70.217  1.00  0.00    -0.366 C  
ENDBRANCH  39  41
ENDBRANCH  30  39
ENDBRANCH  28  30
ENDBRANCH   6  26
TORSDOF 8
ENDMDL
MODEL      214
REMARK 921   NORMALIZED FREE ENERGY PREDICTED BY IDOCK:   -5.38 KCAL/MOL
REMARK 922        TOTAL FREE ENERGY PREDICTED BY IDOCK:   -9.16 KCAL/MOL
REMARK 923 INTER-LIGAND FREE ENERGY PREDICTED BY IDOCK:   -8.22 KCAL/MOL
REMARK 924 INTRA-LIGAND FREE ENERGY PREDICTED BY IDOCK:   -0.93 KCAL/MOL
REMARK 927      BINDING AFFINITY PREDICTED BY RF-SCORE:    0.00 PKD
ROOT
HETATM    1  C   UNL     1      -8.592  12.085  68.428  1.00  0.00    -0.147 C  
HETATM    2  S   UNL     1      -7.048  12.952  68.356  1.00  0.00    -0.108 SA 
HETATM    3  C   UNL     1      -7.507  14.637  67.805  1.00  0.00    -0.166 C  
HETATM    4  C   UNL     1      -8.958  14.981  67.616  1.00  0.00    -0.180 C  
HETATM    5  CA  UNL     1      -9.987  14.097  67.793  1.00  0.00    -0.235 C  
HETATM    6  CA  UNL     1      -9.136  10.803  67.664  1.00  0.00    -0.147 C  
HETATM    7  C   UNL     1     -10.464  11.622  67.714  1.00  0.00    -0.187 C  
HETATM    8  N   UNL     1      -9.786  12.761  68.015  1.00  0.00    -0.220 N  
HETATM    9  C   UNL     1     -11.403  14.607  67.731  1.00  0.00    -0.322 C  
HETATM   10  O   UNL     1     -11.588  11.402  67.331  1.00  0.00    -0.509 OA 
HETATM   11  O   UNL     1     -12.329  13.821  67.147  1.00  0.00    -0.357 OA 
HETATM   12  OXT UNL     1     -11.727  15.685  68.205  1.00  0.00    -0.349 OA 
ENDROOT
BRANCH   4  13
HETATM   13  C   UNL     1      -9.245  16.427  67.112  1.00  0.00    -0.213 C  
BRANCH  13  14
HETATM   14  S   UNL     1      -8.889  17.876  68.184  1.00  0.00    -0.270 SA 
BRANCH  14  15
HETATM   15  C   UNL     1      -7.684  18.863  67.322  1.00  0.00    -0.234 C  
HETATM   16  N   UNL     1      -7.688  18.725  66.042  1.00  0.00    -0.241 N  
HETATM   17  H   UNL     1      -8.408  18.183  65.564  1.00  0.00     0.000 HD 
HETATM   18  C   UNL     1      -6.605  19.659  69.492  1.00  0.00    -0.348 C  
HETATM   19  C   UNL     1      -6.670  19.346  65.347  1.00  0.00    -0.269 C  
HETATM   20  N   UNL     1      -6.762  19.621  68.049  1.00  0.00    -0.242 NA 
HETATM   21  C   UNL     1      -5.857  20.478  65.973  1.00  0.00    -0.195 C  
HETATM   22  O   UNL     1      -6.278  18.969  64.243  1.00  0.00    -0.471 OA 
HETATM   23  H   UNL     1      -5.051  20.855  67.849  1.00  0.00     0.000 HD 
HETATM   24  N   UNL     1      -5.796  20.379  67.339  1.00  0.00    -0.178 N  
HETATM   25  O   UNL     1      -5.281  21.341  65.331  1.00  0.00    -0.195 OA 
ENDBRANCH  14  15
ENDBRANCH  13  14
ENDBRANCH   4  13
BRANCH   6  26
HETATM   26  N   UNL     1      -8.905  10.189  66.277  1.00  0.00    -0.146 N  
HETATM   27  O   UNL     1      -8.628   8.689  64.585  1.00  0.00    -0.165 OA 
HETATM   28  C   UNL     1      -8.924   8.882  65.763  1.00  0.00    -0.203 C  
HETATM   29  H   UNL     1      -8.688  10.888  65.567  1.00  0.00     0.000 HD 
BRANCH  28  30
HETATM   30  C   UNL     1      -9.479   7.717  66.538  1.00  0.00    -0.201 C  
BRANCH  30  31
HETATM   31  C   UNL     1      -9.509   7.629  68.004  1.00  0.00    -0.143 A  
HETATM   32  H2  UNL     1     -11.212   6.736  71.826  1.00  0.00     0.000 HD 
HETATM   33  C   UNL     1      -8.412   7.186  68.725  1.00  0.00    -0.126 A  
HETATM   34  H1  UNL     1     -12.411   7.362  70.693  1.00  0.00     0.000 HD 
HETATM   35  N   UNL     1     -10.702   7.641  68.744  1.00  0.00    -0.135 NA 
HETATM   36  N   UNL     1     -11.448   7.099  70.902  1.00  0.00    -0.285 NA 
HETATM   37  S   UNL     1      -8.865   6.784  70.324  1.00  0.00    -0.152 SA 
HETATM   38  C   UNL     1     -10.488   7.227  69.973  1.00  0.00    -0.224 A  
ENDBRANCH  30  31
BRANCH  30  39
HETATM   39  N   UNL     1      -9.781   6.584  65.996  1.00  0.00    -0.395 NA 
HETATM   40  H   UNL     1     -10.740   6.422  65.690  1.00  0.00     0.000 HD 
BRANCH  39  41
HETATM   41  O   UNL     1      -8.834   5.576  65.815  1.00  0.00    -0.147 OA 
HETATM   42  C   UNL     1      -9.017   4.269  66.324  1.00  0.00    -0.120 C  
ENDBRANCH  39  41
ENDBRANCH  30  39
ENDBRANCH  28  30
ENDBRANCH   6  26
TORSDOF 8
ENDMDL
MODEL      215
REMARK 921   NORMALIZED FREE ENERGY PREDICTED BY IDOCK:   -5.35 KCAL/MOL
REMARK 922        TOTAL FREE ENERGY PREDICTED BY IDOCK:   -9.12 KCAL/MOL
REMARK 923 INTER-LIGAND FREE ENERGY PREDICTED BY IDOCK:   -7.80 KCAL/MOL
REMARK 924 INTRA-LIGAND FREE ENERGY PREDICTED BY IDOCK:   -1.32 KCAL/MOL
REMARK 927      BINDING AFFINITY PREDICTED BY RF-SCORE:    0.00 PKD
ROOT
HETATM    1  C   UNL     1     -10.037   8.300  66.854  1.00  0.00    -0.296 C  
HETATM    2  S   UNL     1     -10.803   9.333  68.073  1.00  0.00    -0.026 SA 
HETATM    3  C   UNL     1     -10.857  10.986  67.287  1.00  0.00    -0.281 C  
HETATM    4  C   UNL     1     -10.378  11.145  65.871  1.00  0.00    -0.314 C  
HETATM    5  CA  UNL     1      -9.858  10.130  65.117  1.00  0.00    -0.325 C  
HETATM    6  CA  UNL     1      -8.697   7.447  66.863  1.00  0.00    -0.126 C  
HETATM    7  C   UNL     1      -8.653   7.930  65.380  1.00  0.00    -0.095 C  
HETATM    8  N   UNL     1      -9.578   8.893  65.632  1.00  0.00    -0.180 N  
HETATM    9  C   UNL     1      -9.565  10.381  63.661  1.00  0.00    -0.310 C  
HETATM   10  O   UNL     1      -7.885   7.737  64.468  1.00  0.00    -0.125 OA 
HETATM   11  O   UNL     1      -8.459   9.817  63.136  1.00  0.00    -0.150 OA 
HETATM   12  OXT UNL     1     -10.303  11.052  62.956  1.00  0.00    -0.278 OA 
ENDROOT
BRANCH   4  13
HETATM   13  C   UNL     1     -10.432  12.596  65.303  1.00  0.00    -0.289 C  
BRANCH  13  14
HETATM   14  S   UNL     1     -11.918  13.644  65.562  1.00  0.00    -0.411 SA 
BRANCH  14  15
HETATM   15  C   UNL     1     -11.362  15.115  66.397  1.00  0.00    -0.225 C  
HETATM   16  N   UNL     1     -10.801  15.990  65.637  1.00  0.00    -0.303 N  
HETATM   17  H   UNL     1     -10.791  15.889  64.622  1.00  0.00     0.000 HD 
HETATM   18  C   UNL     1     -11.913  14.162  68.698  1.00  0.00    -0.338 C  
HETATM   19  C   UNL     1     -10.214  17.071  66.262  1.00  0.00    -0.329 C  
HETATM   20  N   UNL     1     -11.458  15.199  67.789  1.00  0.00    -0.331 NA 
HETATM   21  C   UNL     1     -10.577  17.452  67.696  1.00  0.00    -0.350 C  
HETATM   22  O   UNL     1      -9.296  17.723  65.764  1.00  0.00    -0.512 OA 
HETATM   23  H   UNL     1     -10.950  16.410  69.452  1.00  0.00     0.000 HD 
HETATM   24  N   UNL     1     -10.986  16.371  68.434  1.00  0.00    -0.341 N  
HETATM   25  O   UNL     1     -10.465  18.579  68.153  1.00  0.00    -0.372 OA 
ENDBRANCH  14  15
ENDBRANCH  13  14
ENDBRANCH   4  13
BRANCH   6  26
HETATM   26  N   UNL     1      -7.328   7.587  67.542  1.00  0.00    -0.100 N  
HETATM   27  O   UNL     1      -5.701   7.832  69.117  1.00  0.00    -0.028 OA 
HETATM   28  C   UNL     1      -6.893   7.649  68.877  1.00  0.00    -0.061 C  
HETATM   29  H   UNL     1      -6.561   7.649  66.874  1.00  0.00     0.000 HD 
BRANCH  28  30
HETATM   30  C   UNL     1      -7.790   7.308  70.035  1.00  0.00    -0.111 C  
BRANCH  30  31
HETATM   31  C   UNL     1      -8.166   5.944  70.426  1.00  0.00    -0.111 A  
HETATM   32  H2  UNL     1      -8.220   2.478  72.935  1.00  0.00     0.000 HD 
HETATM   33  C   UNL     1      -9.458   5.471  70.258  1.00  0.00    -0.165 A  
HETATM   34  H1  UNL     1      -6.647   3.276  72.938  1.00  0.00     0.000 HD 
HETATM   35  N   UNL     1      -7.387   5.155  71.289  1.00  0.00    -0.075 NA 
HETATM   36  N   UNL     1      -7.610   3.226  72.605  1.00  0.00    -0.050 NA 
HETATM   37  S   UNL     1      -9.703   4.048  71.174  1.00  0.00    -0.173 SA 
HETATM   38  C   UNL     1      -8.080   4.133  71.735  1.00  0.00    -0.090 A  
ENDBRANCH  30  31
BRANCH  30  39
HETATM   39  N   UNL     1      -8.499   8.186  70.665  1.00  0.00    -0.124 NA 
HETATM   40  H   UNL     1      -9.188   8.730  70.146  1.00  0.00     0.000 HD 
BRANCH  39  41
HETATM   41  O   UNL     1      -8.350   8.414  72.033  1.00  0.00    -0.150 OA 
HETATM   42  C   UNL     1      -9.430   8.302  72.939  1.00  0.00    -0.250 C  
ENDBRANCH  39  41
ENDBRANCH  30  39
ENDBRANCH  28  30
ENDBRANCH   6  26
TORSDOF 8
ENDMDL
MODEL      216
REMARK 921   NORMALIZED FREE ENERGY PREDICTED BY IDOCK:   -5.35 KCAL/MOL
REMARK 922        TOTAL FREE ENERGY PREDICTED BY IDOCK:   -9.11 KCAL/MOL
REMARK 923 INTER-LIGAND FREE ENERGY PREDICTED BY IDOCK:   -7.09 KCAL/MOL
REMARK 924 INTRA-LIGAND FREE ENERGY PREDICTED BY IDOCK:   -2.02 KCAL/MOL
REMARK 927      BINDING AFFINITY PREDICTED BY RF-SCORE:    0.00 PKD
ROOT
HETATM    1  C   UNL     1      -9.795  10.212  65.440  1.00  0.00    -0.307 C  
HETATM    2  S   UNL     1      -8.544   9.819  64.248  1.00  0.00    -0.205 SA 
HETATM    3  C   UNL     1      -8.002   8.132  64.712  1.00  0.00    -0.147 C  
HETATM    4  C   UNL     1      -8.694   7.418  65.839  1.00  0.00    -0.161 C  
HETATM    5  CA  UNL     1      -9.701   7.961  66.589  1.00  0.00    -0.235 C  
HETATM    6  CA  UNL     1      -9.910  11.359  66.533  1.00  0.00    -0.208 C  
HETATM    7  C   UNL     1     -10.577  10.203  67.342  1.00  0.00    -0.272 C  
HETATM    8  N   UNL     1     -10.077   9.273  66.485  1.00  0.00    -0.274 N  
HETATM    9  C   UNL     1     -10.422   7.086  67.581  1.00  0.00    -0.237 C  
HETATM   10  O   UNL     1     -11.066  10.136  68.444  1.00  0.00    -0.250 OA 
HETATM   11  O   UNL     1     -10.782   7.636  68.758  1.00  0.00    -0.177 OA 
HETATM   12  OXT UNL     1     -10.698   5.921  67.340  1.00  0.00    -0.253 OA 
ENDROOT
BRANCH   4  13
HETATM   13  C   UNL     1      -8.138   6.003  66.180  1.00  0.00    -0.110 C  
BRANCH  13  14
HETATM   14  S   UNL     1      -6.821   5.799  67.444  1.00  0.00    -0.065 SA 
BRANCH  14  15
HETATM   15  C   UNL     1      -7.566   6.166  69.019  1.00  0.00    -0.091 C  
HETATM   16  N   UNL     1      -8.346   5.249  69.475  1.00  0.00    -0.094 N  
HETATM   17  H   UNL     1      -8.427   4.340  69.021  1.00  0.00     0.000 HD 
HETATM   18  C   UNL     1      -6.645   8.544  69.035  1.00  0.00    -0.048 C  
HETATM   19  C   UNL     1      -9.067   5.556  70.611  1.00  0.00    -0.145 C  
HETATM   20  N   UNL     1      -7.364   7.419  69.604  1.00  0.00    -0.088 NA 
HETATM   21  C   UNL     1      -8.656   6.710  71.525  1.00  0.00    -0.124 C  
HETATM   22  O   UNL     1     -10.131   5.011  70.903  1.00  0.00    -0.210 OA 
HETATM   23  H   UNL     1      -7.941   8.637  71.239  1.00  0.00     0.000 HD 
HETATM   24  N   UNL     1      -7.989   7.697  70.847  1.00  0.00    -0.093 N  
HETATM   25  O   UNL     1      -8.936   6.774  72.711  1.00  0.00    -0.128 OA 
ENDBRANCH  14  15
ENDBRANCH  13  14
ENDBRANCH   4  13
BRANCH   6  26
HETATM   26  N   UNL     1      -8.907  12.141  67.393  1.00  0.00    -0.174 N  
HETATM   27  O   UNL     1      -7.847  13.824  68.501  1.00  0.00    -0.132 OA 
HETATM   28  C   UNL     1      -8.835  13.461  67.867  1.00  0.00    -0.194 C  
HETATM   29  H   UNL     1      -8.112  11.573  67.686  1.00  0.00     0.000 HD 
BRANCH  28  30
HETATM   30  C   UNL     1     -10.004  14.406  67.802  1.00  0.00    -0.226 C  
BRANCH  30  31
HETATM   31  C   UNL     1      -9.948  15.767  67.251  1.00  0.00    -0.238 A  
HETATM   32  H2  UNL     1     -11.242  19.060  64.846  1.00  0.00     0.000 HD 
HETATM   33  C   UNL     1      -9.641  16.859  68.047  1.00  0.00    -0.247 A  
HETATM   34  H1  UNL     1     -11.493  17.510  64.041  1.00  0.00     0.000 HD 
HETATM   35  N   UNL     1     -10.518  16.113  66.016  1.00  0.00    -0.334 NA 
HETATM   36  N   UNL     1     -11.162  18.042  64.846  1.00  0.00    -0.332 NA 
HETATM   37  S   UNL     1     -10.064  18.316  67.259  1.00  0.00    -0.374 SA 
HETATM   38  C   UNL     1     -10.622  17.418  65.903  1.00  0.00    -0.200 A  
ENDBRANCH  30  31
BRANCH  30  39
HETATM   39  N   UNL     1     -11.117  14.201  68.426  1.00  0.00    -0.243 NA 
HETATM   40  H   UNL     1     -11.918  14.795  68.215  1.00  0.00     0.000 HD 
BRANCH  39  41
HETATM   41  O   UNL     1     -11.255  13.191  69.379  1.00  0.00    -0.226 OA 
HETATM   42  C   UNL     1     -12.331  13.162  70.297  1.00  0.00    -0.249 C  
ENDBRANCH  39  41
ENDBRANCH  30  39
ENDBRANCH  28  30
ENDBRANCH   6  26
TORSDOF 8
ENDMDL
MODEL      217
REMARK 921   NORMALIZED FREE ENERGY PREDICTED BY IDOCK:   -5.34 KCAL/MOL
REMARK 922        TOTAL FREE ENERGY PREDICTED BY IDOCK:   -9.10 KCAL/MOL
REMARK 923 INTER-LIGAND FREE ENERGY PREDICTED BY IDOCK:   -7.84 KCAL/MOL
REMARK 924 INTRA-LIGAND FREE ENERGY PREDICTED BY IDOCK:   -1.26 KCAL/MOL
REMARK 927      BINDING AFFINITY PREDICTED BY RF-SCORE:    0.00 PKD
ROOT
HETATM    1  C   UNL     1      -9.701  10.448  65.097  1.00  0.00    -0.291 C  
HETATM    2  S   UNL     1     -10.928  11.725  65.103  1.00  0.00    -0.273 SA 
HETATM    3  C   UNL     1     -10.248  12.991  66.239  1.00  0.00    -0.288 C  
HETATM    4  C   UNL     1      -8.882  12.791  66.832  1.00  0.00    -0.194 C  
HETATM    5  CA  UNL     1      -8.101  11.690  66.612  1.00  0.00    -0.121 C  
HETATM    6  CA  UNL     1      -9.746   8.916  65.518  1.00  0.00     0.081 C  
HETATM    7  C   UNL     1      -8.304   9.248  66.013  1.00  0.00    -0.113 C  
HETATM    8  N   UNL     1      -8.554  10.583  65.945  1.00  0.00    -0.158 N  
HETATM    9  C   UNL     1      -6.688  11.684  67.132  1.00  0.00    -0.142 C  
HETATM   10  O   UNL     1      -7.436   8.593  66.538  1.00  0.00    -0.086 OA 
HETATM   11  O   UNL     1      -6.204  10.526  67.624  1.00  0.00    -0.055 OA 
HETATM   12  OXT UNL     1      -5.979  12.678  67.099  1.00  0.00    -0.283 OA 
ENDROOT
BRANCH   4  13
HETATM   13  C   UNL     1      -8.406  13.905  67.813  1.00  0.00    -0.174 C  
BRANCH  13  14
HETATM   14  S   UNL     1      -9.626  14.996  68.648  1.00  0.00    -0.225 SA 
BRANCH  14  15
HETATM   15  C   UNL     1      -9.784  16.451  67.634  1.00  0.00    -0.238 C  
HETATM   16  N   UNL     1     -10.623  16.346  66.663  1.00  0.00    -0.279 N  
HETATM   17  H   UNL     1     -11.230  15.533  66.567  1.00  0.00     0.000 HD 
HETATM   18  C   UNL     1      -7.865  17.636  68.825  1.00  0.00    -0.242 C  
HETATM   19  C   UNL     1     -10.661  17.388  65.759  1.00  0.00    -0.182 C  
HETATM   20  N   UNL     1      -8.948  17.548  67.862  1.00  0.00    -0.246 NA 
HETATM   21  C   UNL     1     -10.091  18.762  66.107  1.00  0.00    -0.384 C  
HETATM   22  O   UNL     1     -11.044  17.260  64.596  1.00  0.00    -1.052 OA 
HETATM   23  H   UNL     1      -8.408  19.453  67.108  1.00  0.00     0.000 HD 
HETATM   24  N   UNL     1      -9.076  18.686  67.026  1.00  0.00    -0.284 N  
HETATM   25  O   UNL     1     -10.457  19.805  65.589  1.00  0.00    -0.480 OA 
ENDBRANCH  14  15
ENDBRANCH  13  14
ENDBRANCH   4  13
BRANCH   6  26
HETATM   26  N   UNL     1     -10.525   8.103  66.561  1.00  0.00    -0.414 N  
HETATM   27  O   UNL     1     -11.232   6.403  67.903  1.00  0.00    -0.319 OA 
HETATM   28  C   UNL     1     -10.391   6.815  67.105  1.00  0.00    -0.258 C  
HETATM   29  H   UNL     1     -11.321   8.612  66.945  1.00  0.00     0.000 HD 
BRANCH  28  30
HETATM   30  C   UNL     1      -9.155   5.979  66.907  1.00  0.00    -0.125 C  
BRANCH  30  31
HETATM   31  C   UNL     1      -8.923   5.092  65.760  1.00  0.00    -0.145 A  
HETATM   32  H2  UNL     1      -9.854   1.957  63.001  1.00  0.00     0.000 HD 
HETATM   33  C   UNL     1      -8.384   5.565  64.575  1.00  0.00    -0.127 A  
HETATM   34  H1  UNL     1     -10.413   1.593  64.633  1.00  0.00     0.000 HD 
HETATM   35  N   UNL     1      -9.525   3.828  65.640  1.00  0.00    -0.165 NA 
HETATM   36  N   UNL     1      -9.939   2.219  63.983  1.00  0.00    -0.130 NA 
HETATM   37  S   UNL     1      -8.626   4.440  63.311  1.00  0.00    -0.118 SA 
HETATM   38  C   UNL     1      -9.426   3.384  64.407  1.00  0.00    -0.146 A  
ENDBRANCH  30  31
BRANCH  30  39
HETATM   39  N   UNL     1      -8.274   5.787  67.832  1.00  0.00    -0.101 NA 
HETATM   40  H   UNL     1      -8.411   6.224  68.743  1.00  0.00     0.000 HD 
BRANCH  39  41
HETATM   41  O   UNL     1      -7.142   4.999  67.623  1.00  0.00    -0.064 OA 
HETATM   42  C   UNL     1      -5.831   5.506  67.778  1.00  0.00    -0.017 C  
ENDBRANCH  39  41
ENDBRANCH  30  39
ENDBRANCH  28  30
ENDBRANCH   6  26
TORSDOF 8
ENDMDL
MODEL      218
REMARK 921   NORMALIZED FREE ENERGY PREDICTED BY IDOCK:   -5.32 KCAL/MOL
REMARK 922        TOTAL FREE ENERGY PREDICTED BY IDOCK:   -9.08 KCAL/MOL
REMARK 923 INTER-LIGAND FREE ENERGY PREDICTED BY IDOCK:   -7.94 KCAL/MOL
REMARK 924 INTRA-LIGAND FREE ENERGY PREDICTED BY IDOCK:   -1.14 KCAL/MOL
REMARK 927      BINDING AFFINITY PREDICTED BY RF-SCORE:    0.00 PKD
ROOT
HETATM    1  C   UNL     1      -8.976  10.635  67.753  1.00  0.00    -0.140 C  
HETATM    2  S   UNL     1      -8.580  11.049  66.077  1.00  0.00    -0.153 SA 
HETATM    3  C   UNL     1      -9.619  12.515  65.723  1.00  0.00    -0.129 C  
HETATM    4  C   UNL     1     -10.466  13.100  66.817  1.00  0.00    -0.262 C  
HETATM    5  CA  UNL     1     -10.550  12.587  68.082  1.00  0.00    -0.226 C  
HETATM    6  CA  UNL     1      -9.603   9.334  68.415  1.00  0.00    -0.147 C  
HETATM    7  C   UNL     1     -10.289  10.405  69.319  1.00  0.00    -0.230 C  
HETATM    8  N   UNL     1      -9.984  11.392  68.435  1.00  0.00    -0.198 N  
HETATM    9  C   UNL     1     -11.306  13.359  69.133  1.00  0.00    -0.280 C  
HETATM   10  O   UNL     1     -11.049  10.336  70.255  1.00  0.00    -0.282 OA 
HETATM   11  O   UNL     1     -12.039  12.659  70.020  1.00  0.00    -0.316 OA 
HETATM   12  OXT UNL     1     -11.253  14.577  69.208  1.00  0.00    -0.258 OA 
ENDROOT
BRANCH   4  13
HETATM   13  C   UNL     1     -11.341  14.324  66.409  1.00  0.00    -0.343 C  
BRANCH  13  14
HETATM   14  S   UNL     1     -10.639  15.666  65.369  1.00  0.00    -0.431 SA 
BRANCH  14  15
HETATM   15  C   UNL     1     -10.014  16.902  66.488  1.00  0.00    -0.301 C  
HETATM   16  N   UNL     1     -10.655  18.018  66.474  1.00  0.00    -0.305 N  
HETATM   17  H   UNL     1     -11.522  18.131  65.949  1.00  0.00     0.000 HD 
HETATM   18  C   UNL     1      -7.992  15.481  67.119  1.00  0.00    -0.221 C  
HETATM   19  C   UNL     1     -10.112  19.055  67.205  1.00  0.00    -0.364 C  
HETATM   20  N   UNL     1      -8.846  16.652  67.213  1.00  0.00    -0.190 NA 
HETATM   21  C   UNL     1      -9.085  18.798  68.306  1.00  0.00    -0.324 C  
HETATM   22  O   UNL     1     -10.324  20.242  66.954  1.00  0.00    -0.415 OA 
HETATM   23  H   UNL     1      -7.450  17.540  68.537  1.00  0.00     0.000 HD 
HETATM   24  N   UNL     1      -8.354  17.661  68.080  1.00  0.00    -0.239 N  
HETATM   25  O   UNL     1      -8.897  19.546  69.253  1.00  0.00    -0.219 OA 
ENDBRANCH  14  15
ENDBRANCH  13  14
ENDBRANCH   4  13
BRANCH   6  26
HETATM   26  N   UNL     1     -10.601   8.259  67.959  1.00  0.00    -0.402 N  
HETATM   27  O   UNL     1     -11.528   6.464  66.908  1.00  0.00    -0.188 OA 
HETATM   28  C   UNL     1     -10.513   7.114  67.151  1.00  0.00    -0.319 C  
HETATM   29  H   UNL     1     -11.540   8.412  68.325  1.00  0.00     0.000 HD 
BRANCH  28  30
HETATM   30  C   UNL     1      -9.194   6.528  66.722  1.00  0.00    -0.147 C  
BRANCH  30  31
HETATM   31  C   UNL     1      -8.208   5.936  67.634  1.00  0.00    -0.105 A  
HETATM   32  H2  UNL     1      -6.056   5.503  71.307  1.00  0.00     0.000 HD 
HETATM   33  C   UNL     1      -8.029   4.565  67.718  1.00  0.00    -0.088 A  
HETATM   34  H1  UNL     1      -6.398   7.193  70.932  1.00  0.00     0.000 HD 
HETATM   35  N   UNL     1      -7.639   6.644  68.706  1.00  0.00    -0.102 NA 
HETATM   36  N   UNL     1      -6.457   6.205  70.685  1.00  0.00    -0.039 NA 
HETATM   37  S   UNL     1      -7.156   4.156  69.130  1.00  0.00    -0.051 SA 
HETATM   38  C   UNL     1      -7.056   5.820  69.547  1.00  0.00    -0.065 A  
ENDBRANCH  30  31
BRANCH  30  39
HETATM   39  N   UNL     1      -8.700   6.687  65.539  1.00  0.00    -0.314 NA 
HETATM   40  H   UNL     1      -8.248   7.571  65.307  1.00  0.00     0.000 HD 
BRANCH  39  41
HETATM   41  O   UNL     1      -8.766   5.686  64.569  1.00  0.00    -0.071 OA 
HETATM   42  C   UNL     1      -7.646   4.894  64.225  1.00  0.00    -0.073 C  
ENDBRANCH  39  41
ENDBRANCH  30  39
ENDBRANCH  28  30
ENDBRANCH   6  26
TORSDOF 8
ENDMDL
MODEL      219
REMARK 921   NORMALIZED FREE ENERGY PREDICTED BY IDOCK:   -5.31 KCAL/MOL
REMARK 922        TOTAL FREE ENERGY PREDICTED BY IDOCK:   -9.06 KCAL/MOL
REMARK 923 INTER-LIGAND FREE ENERGY PREDICTED BY IDOCK:   -6.74 KCAL/MOL
REMARK 924 INTRA-LIGAND FREE ENERGY PREDICTED BY IDOCK:   -2.32 KCAL/MOL
REMARK 927      BINDING AFFINITY PREDICTED BY RF-SCORE:    0.00 PKD
ROOT
HETATM    1  C   UNL     1      -7.844   7.840  68.739  1.00  0.00    -0.123 C  
HETATM    2  S   UNL     1      -6.297   8.633  69.082  1.00  0.00    -0.043 SA 
HETATM    3  C   UNL     1      -6.693  10.420  69.041  1.00  0.00    -0.061 C  
HETATM    4  C   UNL     1      -8.116  10.856  68.835  1.00  0.00    -0.144 C  
HETATM    5  CA  UNL     1      -9.162   9.997  68.634  1.00  0.00    -0.152 C  
HETATM    6  CA  UNL     1      -8.317   6.875  67.569  1.00  0.00    -0.123 C  
HETATM    7  C   UNL     1      -9.639   7.684  67.748  1.00  0.00    -0.144 C  
HETATM    8  N   UNL     1      -8.990   8.651  68.448  1.00  0.00    -0.142 N  
HETATM    9  C   UNL     1     -10.563  10.549  68.603  1.00  0.00    -0.200 C  
HETATM   10  O   UNL     1     -10.721   7.632  67.215  1.00  0.00    -0.306 OA 
HETATM   11  O   UNL     1     -11.430  10.014  67.722  1.00  0.00    -0.211 OA 
HETATM   12  OXT UNL     1     -10.927  11.439  69.356  1.00  0.00    -0.240 OA 
ENDROOT
BRANCH   4  13
HETATM   13  C   UNL     1      -8.347  12.396  68.780  1.00  0.00     0.125 C  
BRANCH  13  14
HETATM   14  S   UNL     1      -7.329  13.452  67.673  1.00  0.00    -0.165 SA 
BRANCH  14  15
HETATM   15  C   UNL     1      -8.197  14.998  67.507  1.00  0.00    -0.182 C  
HETATM   16  N   UNL     1      -9.088  15.022  66.579  1.00  0.00    -0.279 N  
HETATM   17  H   UNL     1      -9.351  14.179  66.067  1.00  0.00     0.000 HD 
HETATM   18  C   UNL     1      -6.692  16.162  69.206  1.00  0.00    -0.198 C  
HETATM   19  C   UNL     1      -9.672  16.242  66.308  1.00  0.00    -0.304 C  
HETATM   20  N   UNL     1      -7.811  16.095  68.283  1.00  0.00    -0.149 NA 
HETATM   21  C   UNL     1      -9.611  17.391  67.314  1.00  0.00    -0.258 C  
HETATM   22  O   UNL     1     -10.173  16.526  65.220  1.00  0.00    -0.588 OA 
HETATM   23  H   UNL     1      -8.168  18.160  68.593  1.00  0.00     0.000 HD 
HETATM   24  N   UNL     1      -8.500  17.323  68.115  1.00  0.00    -0.230 N  
HETATM   25  O   UNL     1     -10.427  18.297  67.365  1.00  0.00    -0.381 OA 
ENDBRANCH  14  15
ENDBRANCH  13  14
ENDBRANCH   4  13
BRANCH   6  26
HETATM   26  N   UNL     1      -7.953   6.711  66.087  1.00  0.00    -0.106 N  
HETATM   27  O   UNL     1      -7.596   7.140  63.879  1.00  0.00    -0.096 OA 
HETATM   28  C   UNL     1      -7.858   7.588  64.993  1.00  0.00    -0.127 C  
HETATM   29  H   UNL     1      -7.731   5.747  65.839  1.00  0.00     0.000 HD 
BRANCH  28  30
HETATM   30  C   UNL     1      -7.869   9.084  65.155  1.00  0.00    -0.108 C  
BRANCH  30  31
HETATM   31  C   UNL     1      -8.967   9.961  64.726  1.00  0.00    -0.217 A  
HETATM   32  H2  UNL     1     -11.288  13.554  64.648  1.00  0.00     0.000 HD 
HETATM   33  C   UNL     1      -9.355  10.039  63.398  1.00  0.00    -0.257 A  
HETATM   34  H1  UNL     1     -10.680  13.190  66.264  1.00  0.00     0.000 HD 
HETATM   35  N   UNL     1      -9.458  11.011  65.519  1.00  0.00    -0.208 NA 
HETATM   36  N   UNL     1     -10.763  12.946  65.277  1.00  0.00    -0.289 NA 
HETATM   37  S   UNL     1     -10.330  11.418  63.136  1.00  0.00    -0.239 SA 
HETATM   38  C   UNL     1     -10.190  11.831  64.799  1.00  0.00    -0.282 A  
ENDBRANCH  30  31
BRANCH  30  39
HETATM   39  N   UNL     1      -6.825   9.769  65.482  1.00  0.00    -0.089 NA 
HETATM   40  H   UNL     1      -6.882  10.412  66.271  1.00  0.00     0.000 HD 
BRANCH  39  41
HETATM   41  O   UNL     1      -5.619   9.656  64.789  1.00  0.00    -0.061 OA 
HETATM   42  C   UNL     1      -5.263  10.542  63.745  1.00  0.00    -0.163 C  
ENDBRANCH  39  41
ENDBRANCH  30  39
ENDBRANCH  28  30
ENDBRANCH   6  26
TORSDOF 8
ENDMDL
MODEL      220
REMARK 921   NORMALIZED FREE ENERGY PREDICTED BY IDOCK:   -5.31 KCAL/MOL
REMARK 922        TOTAL FREE ENERGY PREDICTED BY IDOCK:   -9.06 KCAL/MOL
REMARK 923 INTER-LIGAND FREE ENERGY PREDICTED BY IDOCK:   -7.61 KCAL/MOL
REMARK 924 INTRA-LIGAND FREE ENERGY PREDICTED BY IDOCK:   -1.45 KCAL/MOL
REMARK 927      BINDING AFFINITY PREDICTED BY RF-SCORE:    0.00 PKD
ROOT
HETATM    1  C   UNL     1      -9.378  10.869  67.414  1.00  0.00    -0.155 C  
HETATM    2  S   UNL     1     -10.794  11.022  68.467  1.00  0.00    -0.234 SA 
HETATM    3  C   UNL     1     -11.345   9.295  68.727  1.00  0.00     0.361 C  
HETATM    4  C   UNL     1     -10.540   8.168  68.142  1.00  0.00    -0.168 C  
HETATM    5  CA  UNL     1      -9.418   8.340  67.379  1.00  0.00    -0.151 C  
HETATM    6  CA  UNL     1      -9.065  11.412  65.954  1.00  0.00    -0.198 C  
HETATM    7  C   UNL     1      -8.348  10.030  65.843  1.00  0.00    -0.127 C  
HETATM    8  N   UNL     1      -9.000   9.569  66.943  1.00  0.00    -0.130 N  
HETATM    9  C   UNL     1      -8.610   7.130  66.989  1.00  0.00    -0.122 C  
HETATM   10  O   UNL     1      -7.719   9.491  64.965  1.00  0.00    -0.106 OA 
HETATM   11  O   UNL     1      -8.071   7.106  65.755  1.00  0.00    -0.115 OA 
HETATM   12  OXT UNL     1      -8.422   6.199  67.757  1.00  0.00    -0.115 OA 
ENDROOT
BRANCH   4  13
HETATM   13  C   UNL     1     -11.108   6.738  68.389  1.00  0.00    -0.136 C  
BRANCH  13  14
HETATM   14  S   UNL     1     -11.323   6.102  70.099  1.00  0.00    -0.281 SA 
BRANCH  14  15
HETATM   15  C   UNL     1     -10.079   6.896  71.096  1.00  0.00    -0.191 C  
HETATM   16  N   UNL     1      -8.876   6.492  70.883  1.00  0.00    -0.146 N  
HETATM   17  H   UNL     1      -8.653   5.856  70.117  1.00  0.00     0.000 HD 
HETATM   18  C   UNL     1     -11.817   8.139  72.488  1.00  0.00    -0.376 C  
HETATM   19  C   UNL     1      -7.902   6.961  71.740  1.00  0.00    -0.099 C  
HETATM   20  N   UNL     1     -10.463   7.798  72.093  1.00  0.00    -0.218 NA 
HETATM   21  C   UNL     1      -8.130   8.206  72.595  1.00  0.00    -0.160 C  
HETATM   22  O   UNL     1      -6.847   6.363  71.957  1.00  0.00    -0.066 OA 
HETATM   23  H   UNL     1      -9.718   8.976  73.688  1.00  0.00     0.000 HD 
HETATM   24  N   UNL     1      -9.455   8.398  72.890  1.00  0.00    -0.245 N  
HETATM   25  O   UNL     1      -7.234   8.920  73.016  1.00  0.00    -0.343 OA 
ENDBRANCH  14  15
ENDBRANCH  13  14
ENDBRANCH   4  13
BRANCH   6  26
HETATM   26  N   UNL     1      -9.908  11.710  64.706  1.00  0.00    -0.273 N  
HETATM   27  O   UNL     1     -11.338  12.706  63.239  1.00  0.00    -0.460 OA 
HETATM   28  C   UNL     1     -10.721  12.781  64.300  1.00  0.00    -0.394 C  
HETATM   29  H   UNL     1      -9.868  10.962  64.015  1.00  0.00     0.000 HD 
BRANCH  28  30
HETATM   30  C   UNL     1     -10.725  14.107  65.011  1.00  0.00    -0.416 C  
BRANCH  30  31
HETATM   31  C   UNL     1     -10.479  14.284  66.448  1.00  0.00    -0.282 A  
HETATM   32  H2  UNL     1      -8.563  15.915  69.909  1.00  0.00     0.000 HD 
HETATM   33  C   UNL     1     -11.522  14.370  67.357  1.00  0.00    -0.358 A  
HETATM   34  H1  UNL     1      -7.432  15.667  68.577  1.00  0.00     0.000 HD 
HETATM   35  N   UNL     1      -9.247  14.717  66.964  1.00  0.00    -0.221 NA 
HETATM   36  N   UNL     1      -8.377  15.601  68.956  1.00  0.00    -0.216 NA 
HETATM   37  S   UNL     1     -10.970  14.992  68.851  1.00  0.00    -0.266 SA 
HETATM   38  C   UNL     1      -9.378  15.104  68.213  1.00  0.00    -0.193 A  
ENDBRANCH  30  31
BRANCH  30  39
HETATM   39  N   UNL     1     -11.164  15.198  64.475  1.00  0.00    -0.655 NA 
HETATM   40  H   UNL     1     -12.028  15.170  63.935  1.00  0.00     0.000 HD 
BRANCH  39  41
HETATM   41  O   UNL     1     -10.491  16.412  64.613  1.00  0.00    -0.548 OA 
HETATM   42  C   UNL     1     -10.999  17.471  65.400  1.00  0.00     0.194 C  
ENDBRANCH  39  41
ENDBRANCH  30  39
ENDBRANCH  28  30
ENDBRANCH   6  26
TORSDOF 8
ENDMDL
MODEL      221
REMARK 921   NORMALIZED FREE ENERGY PREDICTED BY IDOCK:   -5.29 KCAL/MOL
REMARK 922        TOTAL FREE ENERGY PREDICTED BY IDOCK:   -9.02 KCAL/MOL
REMARK 923 INTER-LIGAND FREE ENERGY PREDICTED BY IDOCK:   -6.55 KCAL/MOL
REMARK 924 INTRA-LIGAND FREE ENERGY PREDICTED BY IDOCK:   -2.47 KCAL/MOL
REMARK 927      BINDING AFFINITY PREDICTED BY RF-SCORE:    0.00 PKD
ROOT
HETATM    1  C   UNL     1     -11.185   7.873  70.140  1.00  0.00    -0.152 C  
HETATM    2  S   UNL     1     -10.597   9.389  70.844  1.00  0.00    -0.338 SA 
HETATM    3  C   UNL     1      -9.163   9.839  69.798  1.00  0.00    -0.226 C  
HETATM    4  C   UNL     1      -8.825   8.990  68.605  1.00  0.00    -0.137 C  
HETATM    5  CA  UNL     1      -9.502   7.855  68.252  1.00  0.00    -0.144 C  
HETATM    6  CA  UNL     1     -11.333   6.405  70.730  1.00  0.00    -0.350 C  
HETATM    7  C   UNL     1     -10.906   6.028  69.277  1.00  0.00    -0.358 C  
HETATM    8  N   UNL     1     -10.468   7.293  69.043  1.00  0.00    -0.209 N  
HETATM    9  C   UNL     1      -9.169   7.185  66.945  1.00  0.00    -0.148 C  
HETATM   10  O   UNL     1     -10.741   4.975  68.708  1.00  0.00     0.011 OA 
HETATM   11  O   UNL     1      -9.173   5.838  66.911  1.00  0.00    -0.118 OA 
HETATM   12  OXT UNL     1      -8.919   7.821  65.933  1.00  0.00    -0.168 OA 
ENDROOT
BRANCH   4  13
HETATM   13  C   UNL     1      -7.567   9.435  67.798  1.00  0.00    -0.088 C  
BRANCH  13  14
HETATM   14  S   UNL     1      -7.481  11.114  67.058  1.00  0.00    -0.138 SA 
BRANCH  14  15
HETATM   15  C   UNL     1      -9.101  11.467  66.409  1.00  0.00    -0.200 C  
HETATM   16  N   UNL     1      -9.960  11.861  67.282  1.00  0.00    -0.186 N  
HETATM   17  H   UNL     1      -9.690  12.067  68.244  1.00  0.00     0.000 HD 
HETATM   18  C   UNL     1      -8.494  10.590  64.092  1.00  0.00    -0.122 C  
HETATM   19  C   UNL     1     -11.265  11.993  66.854  1.00  0.00    -0.320 C  
HETATM   20  N   UNL     1      -9.379  11.206  65.064  1.00  0.00    -0.221 NA 
HETATM   21  C   UNL     1     -11.606  12.104  65.369  1.00  0.00    -0.330 C  
HETATM   22  O   UNL     1     -12.235  11.919  67.609  1.00  0.00    -0.510 OA 
HETATM   23  H   UNL     1     -10.937  11.193  63.628  1.00  0.00     0.000 HD 
HETATM   24  N   UNL     1     -10.683  11.472  64.575  1.00  0.00    -0.315 N  
HETATM   25  O   UNL     1     -12.612  12.643  64.938  1.00  0.00    -0.510 OA 
ENDBRANCH  14  15
ENDBRANCH  13  14
ENDBRANCH   4  13
BRANCH   6  26
HETATM   26  N   UNL     1     -10.573   5.575  71.774  1.00  0.00    -0.231 N  
HETATM   27  O   UNL     1      -8.903   4.557  72.940  1.00  0.00    -0.114 OA 
HETATM   28  C   UNL     1      -9.215   5.345  72.050  1.00  0.00    -0.137 C  
HETATM   29  H   UNL     1     -11.195   5.078  72.411  1.00  0.00     0.000 HD 
BRANCH  28  30
HETATM   30  C   UNL     1      -8.116   6.168  71.435  1.00  0.00    -0.118 C  
BRANCH  30  31
HETATM   31  C   UNL     1      -7.215   5.698  70.375  1.00  0.00    -0.071 A  
HETATM   32  H2  UNL     1      -6.136   3.526  66.849  1.00  0.00     0.000 HD 
HETATM   33  C   UNL     1      -6.308   6.549  69.763  1.00  0.00    -0.042 A  
HETATM   34  H1  UNL     1      -7.284   2.638  67.852  1.00  0.00     0.000 HD 
HETATM   35  N   UNL     1      -7.425   4.500  69.672  1.00  0.00    -0.051 NA 
HETATM   36  N   UNL     1      -6.707   3.464  67.693  1.00  0.00    -0.041 NA 
HETATM   37  S   UNL     1      -5.718   5.860  68.314  1.00  0.00    -0.009 SA 
HETATM   38  C   UNL     1      -6.691   4.468  68.582  1.00  0.00    -0.047 A  
ENDBRANCH  30  31
BRANCH  30  39
HETATM   39  N   UNL     1      -7.709   7.290  71.930  1.00  0.00    -0.089 NA 
HETATM   40  H   UNL     1      -7.698   8.118  71.335  1.00  0.00     0.000 HD 
BRANCH  39  41
HETATM   41  O   UNL     1      -7.283   7.403  73.254  1.00  0.00    -0.071 OA 
HETATM   42  C   UNL     1      -8.028   8.108  74.228  1.00  0.00    -0.254 C  
ENDBRANCH  39  41
ENDBRANCH  30  39
ENDBRANCH  28  30
ENDBRANCH   6  26
TORSDOF 8
ENDMDL
MODEL      222
REMARK 921   NORMALIZED FREE ENERGY PREDICTED BY IDOCK:   -5.29 KCAL/MOL
REMARK 922        TOTAL FREE ENERGY PREDICTED BY IDOCK:   -9.02 KCAL/MOL
REMARK 923 INTER-LIGAND FREE ENERGY PREDICTED BY IDOCK:   -8.58 KCAL/MOL
REMARK 924 INTRA-LIGAND FREE ENERGY PREDICTED BY IDOCK:   -0.44 KCAL/MOL
REMARK 927      BINDING AFFINITY PREDICTED BY RF-SCORE:    0.00 PKD
ROOT
HETATM    1  C   UNL     1     -10.058  16.622  67.493  1.00  0.00    -0.273 C  
HETATM    2  S   UNL     1      -8.999  15.903  66.268  1.00  0.00    -0.349 SA 
HETATM    3  C   UNL     1      -8.875  14.144  66.764  1.00  0.00    -0.167 C  
HETATM    4  C   UNL     1      -9.672  13.651  67.938  1.00  0.00    -0.234 C  
HETATM    5  CA  UNL     1     -10.477  14.444  68.708  1.00  0.00    -0.244 C  
HETATM    6  CA  UNL     1      -9.835  17.784  68.553  1.00  0.00    -0.355 C  
HETATM    7  C   UNL     1     -10.733  16.849  69.422  1.00  0.00    -0.258 C  
HETATM    8  N   UNL     1     -10.519  15.806  68.577  1.00  0.00    -0.230 N  
HETATM    9  C   UNL     1     -11.348  13.799  69.755  1.00  0.00    -0.134 C  
HETATM   10  O   UNL     1     -11.173  16.931  70.543  1.00  0.00    -0.014 OA 
HETATM   11  O   UNL     1     -11.508  14.447  70.926  1.00  0.00    -0.206 OA 
HETATM   12  OXT UNL     1     -11.917  12.736  69.561  1.00  0.00    -0.309 OA 
ENDROOT
BRANCH   4  13
HETATM   13  C   UNL     1      -9.472  12.149  68.303  1.00  0.00    -0.204 C  
BRANCH  13  14
HETATM   14  S   UNL     1      -9.912  10.831  67.101  1.00  0.00    -0.200 SA 
BRANCH  14  15
HETATM   15  C   UNL     1     -10.820  11.623  65.790  1.00  0.00    -0.281 C  
HETATM   16  N   UNL     1     -11.700  12.477  66.180  1.00  0.00    -0.399 N  
HETATM   17  H   UNL     1     -11.777  12.758  67.157  1.00  0.00     0.000 HD 
HETATM   18  C   UNL     1      -9.774  10.131  64.004  1.00  0.00    -0.206 C  
HETATM   19  C   UNL     1     -12.535  12.996  65.211  1.00  0.00    -0.499 C  
HETATM   20  N   UNL     1     -10.620  11.217  64.467  1.00  0.00    -0.331 NA 
HETATM   21  C   UNL     1     -12.173  12.922  63.729  1.00  0.00    -0.476 C  
HETATM   22  O   UNL     1     -13.656  13.443  65.454  1.00  0.00    -0.357 OA 
HETATM   23  H   UNL     1     -11.320  11.494  62.486  1.00  0.00     0.000 HD 
HETATM   24  N   UNL     1     -11.373  11.845  63.442  1.00  0.00    -0.397 N  
HETATM   25  O   UNL     1     -12.589  13.698  62.884  1.00  0.00    -0.621 OA 
ENDBRANCH  14  15
ENDBRANCH  13  14
ENDBRANCH   4  13
BRANCH   6  26
HETATM   26  N   UNL     1      -8.631  18.308  69.348  1.00  0.00     0.311 N  
HETATM   27  O   UNL     1      -6.501  18.725  70.039  1.00  0.00    -0.135 OA 
HETATM   28  C   UNL     1      -7.238  18.254  69.175  1.00  0.00    -0.159 C  
HETATM   29  H   UNL     1      -8.904  18.808  70.193  1.00  0.00     0.000 HD 
BRANCH  28  30
HETATM   30  C   UNL     1      -6.601  17.815  67.884  1.00  0.00    -0.189 C  
BRANCH  30  31
HETATM   31  C   UNL     1      -6.316  18.705  66.751  1.00  0.00    -0.182 A  
HETATM   32  H2  UNL     1      -5.837  19.739  62.626  1.00  0.00     0.000 HD 
HETATM   33  C   UNL     1      -6.800  20.002  66.708  1.00  0.00    -0.216 A  
HETATM   34  H1  UNL     1      -5.258  18.109  62.975  1.00  0.00     0.000 HD 
HETATM   35  N   UNL     1      -5.856  18.235  65.509  1.00  0.00    -0.207 NA 
HETATM   36  N   UNL     1      -5.669  18.986  63.294  1.00  0.00    -0.312 NA 
HETATM   37  S   UNL     1      -6.684  20.637  65.124  1.00  0.00    -0.116 SA 
HETATM   38  C   UNL     1      -5.991  19.159  64.585  1.00  0.00    -0.273 A  
ENDBRANCH  30  31
BRANCH  30  39
HETATM   39  N   UNL     1      -6.445  16.576  67.556  1.00  0.00    -0.139 NA 
HETATM   40  H   UNL     1      -6.609  16.296  66.590  1.00  0.00     0.000 HD 
BRANCH  39  41
HETATM   41  O   UNL     1      -6.058  15.608  68.484  1.00  0.00    -0.097 OA 
HETATM   42  C   UNL     1      -5.306  14.468  68.116  1.00  0.00    -0.120 C  
ENDBRANCH  39  41
ENDBRANCH  30  39
ENDBRANCH  28  30
ENDBRANCH   6  26
TORSDOF 8
ENDMDL
MODEL      223
REMARK 921   NORMALIZED FREE ENERGY PREDICTED BY IDOCK:   -5.28 KCAL/MOL
REMARK 922        TOTAL FREE ENERGY PREDICTED BY IDOCK:   -9.01 KCAL/MOL
REMARK 923 INTER-LIGAND FREE ENERGY PREDICTED BY IDOCK:   -8.17 KCAL/MOL
REMARK 924 INTRA-LIGAND FREE ENERGY PREDICTED BY IDOCK:   -0.84 KCAL/MOL
REMARK 927      BINDING AFFINITY PREDICTED BY RF-SCORE:    0.00 PKD
ROOT
HETATM    1  C   UNL     1      -8.426   9.758  65.407  1.00  0.00    -0.145 C  
HETATM    2  S   UNL     1      -9.576  10.548  64.314  1.00  0.00    -0.331 SA 
HETATM    3  C   UNL     1     -10.097  12.049  65.225  1.00  0.00    -0.260 C  
HETATM    4  C   UNL     1      -9.465  12.363  66.552  1.00  0.00    -0.242 C  
HETATM    5  CA  UNL     1      -8.532  11.573  67.165  1.00  0.00    -0.158 C  
HETATM    6  CA  UNL     1      -8.425   8.336  66.115  1.00  0.00    -0.134 C  
HETATM    7  C   UNL     1      -7.782   9.167  67.268  1.00  0.00    -0.095 C  
HETATM    8  N   UNL     1      -8.190  10.332  66.699  1.00  0.00    -0.123 N  
HETATM    9  C   UNL     1      -7.856  12.079  68.413  1.00  0.00    -0.147 C  
HETATM   10  O   UNL     1      -7.371   8.881  68.367  1.00  0.00    -0.080 OA 
HETATM   11  O   UNL     1      -7.598  11.189  69.392  1.00  0.00    -0.107 OA 
HETATM   12  OXT UNL     1      -7.527  13.247  68.546  1.00  0.00    -0.109 OA 
ENDROOT
BRANCH   4  13
HETATM   13  C   UNL     1      -9.999  13.642  67.265  1.00  0.00    -0.240 C  
BRANCH  13  14
HETATM   14  S   UNL     1     -11.803  13.986  67.334  1.00  0.00    -0.409 SA 
BRANCH  14  15
HETATM   15  C   UNL     1     -12.272  13.897  69.049  1.00  0.00    -0.239 C  
HETATM   16  N   UNL     1     -12.505  15.033  69.606  1.00  0.00    -0.570 N  
HETATM   17  H   UNL     1     -12.533  15.898  69.067  1.00  0.00     0.000 HD 
HETATM   18  C   UNL     1     -11.826  11.388  69.164  1.00  0.00    -0.345 C  
HETATM   19  C   UNL     1     -12.716  15.025  70.970  1.00  0.00    -0.366 C  
HETATM   20  N   UNL     1     -12.260  12.663  69.706  1.00  0.00    -0.200 NA 
HETATM   21  C   UNL     1     -13.094  13.741  71.707  1.00  0.00    -0.379 C  
HETATM   22  O   UNL     1     -12.510  16.001  71.691  1.00  0.00    -0.461 OA 
HETATM   23  H   UNL     1     -12.510  11.752  71.602  1.00  0.00     0.000 HD 
HETATM   24  N   UNL     1     -12.614  12.621  71.079  1.00  0.00    -0.330 N  
HETATM   25  O   UNL     1     -13.706  13.715  72.762  1.00  0.00    -0.707 OA 
ENDBRANCH  14  15
ENDBRANCH  13  14
ENDBRANCH   4  13
BRANCH   6  26
HETATM   26  N   UNL     1      -9.512   7.388  66.642  1.00  0.00    -0.181 N  
HETATM   27  O   UNL     1     -10.880   5.587  66.905  1.00  0.00    -0.266 OA 
HETATM   28  C   UNL     1      -9.902   6.073  66.340  1.00  0.00    -0.110 C  
HETATM   29  H   UNL     1     -10.078   7.808  67.379  1.00  0.00     0.000 HD 
BRANCH  28  30
HETATM   30  C   UNL     1      -9.062   5.155  65.494  1.00  0.00    -0.153 C  
BRANCH  30  31
HETATM   31  C   UNL     1      -9.519   3.870  64.950  1.00  0.00    -0.170 A  
HETATM   32  H2  UNL     1     -11.110   1.235  61.978  1.00  0.00     0.000 HD 
HETATM   33  C   UNL     1      -8.826   2.694  65.189  1.00  0.00    -0.125 A  
HETATM   34  H1  UNL     1     -11.856   2.833  61.918  1.00  0.00     0.000 HD 
HETATM   35  N   UNL     1     -10.446   3.773  63.899  1.00  0.00    -0.253 NA 
HETATM   36  N   UNL     1     -11.196   2.183  62.345  1.00  0.00    -0.195 NA 
HETATM   37  S   UNL     1      -9.326   1.469  64.107  1.00  0.00    -0.128 SA 
HETATM   38  C   UNL     1     -10.440   2.563  63.386  1.00  0.00    -0.194 A  
ENDBRANCH  30  31
BRANCH  30  39
HETATM   39  N   UNL     1      -7.786   5.297  65.348  1.00  0.00    -0.091 NA 
HETATM   40  H   UNL     1      -7.165   4.994  66.099  1.00  0.00     0.000 HD 
BRANCH  39  41
HETATM   41  O   UNL     1      -7.231   5.851  64.194  1.00  0.00    -0.051 OA 
HETATM   42  C   UNL     1      -8.020   6.488  63.208  1.00  0.00    -0.081 C  
ENDBRANCH  39  41
ENDBRANCH  30  39
ENDBRANCH  28  30
ENDBRANCH   6  26
TORSDOF 8
ENDMDL
MODEL      224
REMARK 921   NORMALIZED FREE ENERGY PREDICTED BY IDOCK:   -5.23 KCAL/MOL
REMARK 922        TOTAL FREE ENERGY PREDICTED BY IDOCK:   -8.94 KCAL/MOL
REMARK 923 INTER-LIGAND FREE ENERGY PREDICTED BY IDOCK:   -7.40 KCAL/MOL
REMARK 924 INTRA-LIGAND FREE ENERGY PREDICTED BY IDOCK:   -1.54 KCAL/MOL
REMARK 927      BINDING AFFINITY PREDICTED BY RF-SCORE:    0.00 PKD
ROOT
HETATM    1  C   UNL     1      -9.619  10.016  67.638  1.00  0.00    -0.148 C  
HETATM    2  S   UNL     1      -8.379  10.004  68.903  1.00  0.00    -0.140 SA 
HETATM    3  C   UNL     1      -7.637  11.677  68.817  1.00  0.00    -0.119 C  
HETATM    4  C   UNL     1      -8.203  12.685  67.858  1.00  0.00    -0.170 C  
HETATM    5  CA  UNL     1      -9.234  12.432  66.995  1.00  0.00    -0.208 C  
HETATM    6  CA  UNL     1      -9.817   9.145  66.324  1.00  0.00    -0.289 C  
HETATM    7  C   UNL     1     -10.322  10.514  65.771  1.00  0.00    -0.200 C  
HETATM    8  N   UNL     1      -9.756  11.179  66.812  1.00  0.00    -0.190 N  
HETATM    9  C   UNL     1      -9.816  13.572  66.201  1.00  0.00    -0.283 C  
HETATM   10  O   UNL     1     -10.757  10.865  64.701  1.00  0.00    -0.308 OA 
HETATM   11  O   UNL     1     -10.190  13.326  64.930  1.00  0.00    -0.325 OA 
HETATM   12  OXT UNL     1      -9.972  14.685  66.680  1.00  0.00    -0.258 OA 
ENDROOT
BRANCH   4  13
HETATM   13  C   UNL     1      -7.483  14.067  67.833  1.00  0.00    -0.149 C  
BRANCH  13  14
HETATM   14  S   UNL     1      -7.477  15.142  69.323  1.00  0.00    -0.204 SA 
BRANCH  14  15
HETATM   15  C   UNL     1      -8.091  16.731  68.806  1.00  0.00    -0.252 C  
HETATM   16  N   UNL     1      -9.325  16.743  68.440  1.00  0.00    -0.224 N  
HETATM   17  H   UNL     1      -9.925  15.926  68.557  1.00  0.00     0.000 HD 
HETATM   18  C   UNL     1      -5.780  17.802  68.946  1.00  0.00    -0.180 C  
HETATM   19  C   UNL     1      -9.797  17.913  67.883  1.00  0.00    -0.309 C  
HETATM   20  N   UNL     1      -7.214  17.817  68.721  1.00  0.00    -0.266 NA 
HETATM   21  C   UNL     1      -9.066  19.240  68.084  1.00  0.00    -0.331 C  
HETATM   22  O   UNL     1     -10.753  17.955  67.108  1.00  0.00    -0.331 OA 
HETATM   23  H   UNL     1      -7.080  19.842  68.114  1.00  0.00     0.000 HD 
HETATM   24  N   UNL     1      -7.721  19.067  68.283  1.00  0.00    -0.299 N  
HETATM   25  O   UNL     1      -9.606  20.333  68.022  1.00  0.00    -0.330 OA 
ENDBRANCH  14  15
ENDBRANCH  13  14
ENDBRANCH   4  13
BRANCH   6  26
HETATM   26  N   UNL     1      -8.873   8.450  65.333  1.00  0.00    -0.335 N  
HETATM   27  O   UNL     1      -7.435   6.960  64.384  1.00  0.00    -0.085 OA 
HETATM   28  C   UNL     1      -8.193   7.221  65.317  1.00  0.00    -0.125 C  
HETATM   29  H   UNL     1      -8.699   9.007  64.496  1.00  0.00     0.000 HD 
BRANCH  28  30
HETATM   30  C   UNL     1      -8.496   6.118  66.294  1.00  0.00    -0.132 C  
BRANCH  30  31
HETATM   31  C   UNL     1      -8.541   6.285  67.753  1.00  0.00    -0.115 A  
HETATM   32  H2  UNL     1     -10.148   5.802  71.689  1.00  0.00     0.000 HD 
HETATM   33  C   UNL     1      -7.400   6.168  68.531  1.00  0.00    -0.086 A  
HETATM   34  H1  UNL     1     -11.412   6.007  70.475  1.00  0.00     0.000 HD 
HETATM   35  N   UNL     1      -9.734   6.225  68.491  1.00  0.00    -0.128 NA 
HETATM   36  N   UNL     1     -10.423   5.952  70.717  1.00  0.00    -0.234 NA 
HETATM   37  S   UNL     1      -7.812   5.982  70.180  1.00  0.00    -0.103 SA 
HETATM   38  C   UNL     1      -9.479   6.075  69.771  1.00  0.00    -0.149 A  
ENDBRANCH  30  31
BRANCH  30  39
HETATM   39  N   UNL     1      -8.528   4.869  65.966  1.00  0.00    -0.116 NA 
HETATM   40  H   UNL     1      -7.675   4.426  65.624  1.00  0.00     0.000 HD 
BRANCH  39  41
HETATM   41  O   UNL     1      -9.692   4.107  66.064  1.00  0.00    -0.182 OA 
HETATM   42  C   UNL     1     -10.689   4.119  65.060  1.00  0.00    -0.095 C  
ENDBRANCH  39  41
ENDBRANCH  30  39
ENDBRANCH  28  30
ENDBRANCH   6  26
TORSDOF 8
ENDMDL
MODEL      225
REMARK 921   NORMALIZED FREE ENERGY PREDICTED BY IDOCK:   -5.22 KCAL/MOL
REMARK 922        TOTAL FREE ENERGY PREDICTED BY IDOCK:   -8.93 KCAL/MOL
REMARK 923 INTER-LIGAND FREE ENERGY PREDICTED BY IDOCK:   -7.75 KCAL/MOL
REMARK 924 INTRA-LIGAND FREE ENERGY PREDICTED BY IDOCK:   -1.18 KCAL/MOL
REMARK 927      BINDING AFFINITY PREDICTED BY RF-SCORE:    0.00 PKD
ROOT
HETATM    1  C   UNL     1      -8.475   9.726  65.367  1.00  0.00    -0.145 C  
HETATM    2  S   UNL     1      -9.689  10.470  64.313  1.00  0.00    -0.342 SA 
HETATM    3  C   UNL     1     -10.195  11.982  65.215  1.00  0.00    -0.271 C  
HETATM    4  C   UNL     1      -9.509  12.336  66.504  1.00  0.00    -0.238 C  
HETATM    5  CA  UNL     1      -8.534  11.577  67.090  1.00  0.00    -0.158 C  
HETATM    6  CA  UNL     1      -8.415   8.320  66.105  1.00  0.00    -0.134 C  
HETATM    7  C   UNL     1      -7.734   9.188  67.209  1.00  0.00    -0.095 C  
HETATM    8  N   UNL     1      -8.191  10.332  66.634  1.00  0.00    -0.123 N  
HETATM    9  C   UNL     1      -7.811  12.122  68.294  1.00  0.00    -0.153 C  
HETATM   10  O   UNL     1      -7.268   8.934  68.293  1.00  0.00    -0.077 OA 
HETATM   11  O   UNL     1      -7.491  11.260  69.278  1.00  0.00    -0.109 OA 
HETATM   12  OXT UNL     1      -7.499  13.299  68.386  1.00  0.00    -0.110 OA 
ENDROOT
BRANCH   4  13
HETATM   13  C   UNL     1     -10.034  13.621  67.214  1.00  0.00    -0.240 C  
BRANCH  13  14
HETATM   14  S   UNL     1     -11.838  13.954  67.324  1.00  0.00    -0.413 SA 
BRANCH  14  15
HETATM   15  C   UNL     1     -12.253  13.931  69.055  1.00  0.00    -0.239 C  
HETATM   16  N   UNL     1     -12.406  15.092  69.590  1.00  0.00    -0.534 N  
HETATM   17  H   UNL     1     -12.406  15.944  69.030  1.00  0.00     0.000 HD 
HETATM   18  C   UNL     1     -11.937  11.406  69.221  1.00  0.00    -0.332 C  
HETATM   19  C   UNL     1     -12.571  15.128  70.960  1.00  0.00    -0.377 C  
HETATM   20  N   UNL     1     -12.284  12.715  69.744  1.00  0.00    -0.200 NA 
HETATM   21  C   UNL     1     -12.992  13.885  71.742  1.00  0.00    -0.358 C  
HETATM   22  O   UNL     1     -12.289  16.109  71.649  1.00  0.00    -0.442 OA 
HETATM   23  H   UNL     1     -12.519  11.865  71.670  1.00  0.00     0.000 HD 
HETATM   24  N   UNL     1     -12.593  12.725  71.128  1.00  0.00    -0.340 N  
HETATM   25  O   UNL     1     -13.568  13.917  72.817  1.00  0.00    -0.654 OA 
ENDBRANCH  14  15
ENDBRANCH  13  14
ENDBRANCH   4  13
BRANCH   6  26
HETATM   26  N   UNL     1      -9.457   7.365  66.703  1.00  0.00    -0.181 N  
HETATM   27  O   UNL     1     -10.784   5.549  67.062  1.00  0.00    -0.267 OA 
HETATM   28  C   UNL     1      -9.845   6.041  66.439  1.00  0.00    -0.110 C  
HETATM   29  H   UNL     1      -9.989   7.787  67.463  1.00  0.00     0.000 HD 
BRANCH  28  30
HETATM   30  C   UNL     1      -9.039   5.123  65.560  1.00  0.00    -0.153 C  
BRANCH  30  31
HETATM   31  C   UNL     1      -7.642   4.744  65.809  1.00  0.00    -0.086 A  
HETATM   32  H2  UNL     1      -4.470   2.271  67.269  1.00  0.00     0.000 HD 
HETATM   33  C   UNL     1      -6.663   4.910  64.843  1.00  0.00    -0.048 A  
HETATM   34  H1  UNL     1      -5.865   2.269  68.349  1.00  0.00     0.000 HD 
HETATM   35  N   UNL     1      -7.258   3.894  66.859  1.00  0.00    -0.063 NA 
HETATM   36  N   UNL     1      -5.409   2.597  67.497  1.00  0.00    -0.016 NA 
HETATM   37  S   UNL     1      -5.265   4.008  65.240  1.00  0.00    -0.009 SA 
HETATM   38  C   UNL     1      -6.033   3.455  66.675  1.00  0.00    -0.024 A  
ENDBRANCH  30  31
BRANCH  30  39
HETATM   39  N   UNL     1      -9.420   4.754  64.382  1.00  0.00    -0.350 NA 
HETATM   40  H   UNL     1      -9.422   5.439  63.626  1.00  0.00     0.000 HD 
BRANCH  39  41
HETATM   41  O   UNL     1      -9.828   3.447  64.112  1.00  0.00    -0.151 OA 
HETATM   42  C   UNL     1     -10.667   3.130  63.019  1.00  0.00    -0.211 C  
ENDBRANCH  39  41
ENDBRANCH  30  39
ENDBRANCH  28  30
ENDBRANCH   6  26
TORSDOF 8
ENDMDL
MODEL      226
REMARK 921   NORMALIZED FREE ENERGY PREDICTED BY IDOCK:   -5.20 KCAL/MOL
REMARK 922        TOTAL FREE ENERGY PREDICTED BY IDOCK:   -8.89 KCAL/MOL
REMARK 923 INTER-LIGAND FREE ENERGY PREDICTED BY IDOCK:   -7.63 KCAL/MOL
REMARK 924 INTRA-LIGAND FREE ENERGY PREDICTED BY IDOCK:   -1.27 KCAL/MOL
REMARK 927      BINDING AFFINITY PREDICTED BY RF-SCORE:    0.00 PKD
ROOT
HETATM    1  C   UNL     1      -8.287   8.203  69.520  1.00  0.00    -0.122 C  
HETATM    2  S   UNL     1      -9.667   8.118  68.412  1.00  0.00    -0.166 SA 
HETATM    3  C   UNL     1      -9.897   9.847  67.854  1.00  0.00    -0.143 C  
HETATM    4  C   UNL     1      -8.932  10.904  68.311  1.00  0.00    -0.150 C  
HETATM    5  CA  UNL     1      -7.887  10.675  69.163  1.00  0.00    -0.142 C  
HETATM    6  CA  UNL     1      -8.131   7.860  71.063  1.00  0.00    -0.098 C  
HETATM    7  C   UNL     1      -7.188   9.102  71.007  1.00  0.00    -0.100 C  
HETATM    8  N   UNL     1      -7.707   9.481  69.809  1.00  0.00    -0.106 N  
HETATM    9  C   UNL     1      -6.896  11.781  69.415  1.00  0.00    -0.067 C  
HETATM   10  O   UNL     1      -6.509   9.665  71.831  1.00  0.00    -0.300 OA 
HETATM   11  O   UNL     1      -6.408  11.914  70.664  1.00  0.00    -0.199 OA 
HETATM   12  OXT UNL     1      -6.518  12.529  68.527  1.00  0.00    -0.064 OA 
ENDROOT
BRANCH   4  13
HETATM   13  C   UNL     1      -9.231  12.350  67.811  1.00  0.00    -0.193 C  
BRANCH  13  14
HETATM   14  S   UNL     1     -10.017  12.626  66.173  1.00  0.00    -0.262 SA 
BRANCH  14  15
HETATM   15  C   UNL     1     -10.282  14.380  66.026  1.00  0.00    -0.315 C  
HETATM   16  N   UNL     1      -9.655  15.097  66.891  1.00  0.00    -0.231 N  
HETATM   17  H   UNL     1      -8.970  14.690  67.528  1.00  0.00     0.000 HD 
HETATM   18  C   UNL     1     -12.063  14.080  64.224  1.00  0.00    -0.445 C  
HETATM   19  C   UNL     1      -9.954  16.444  66.916  1.00  0.00    -0.271 C  
HETATM   20  N   UNL     1     -11.201  14.865  65.090  1.00  0.00    -0.369 NA 
HETATM   21  C   UNL     1     -10.631  17.129  65.730  1.00  0.00    -0.195 C  
HETATM   22  O   UNL     1      -9.804  17.151  67.913  1.00  0.00    -0.267 OA 
HETATM   23  H   UNL     1     -12.152  16.631  64.408  1.00  0.00     0.000 HD 
HETATM   24  N   UNL     1     -11.413  16.265  65.008  1.00  0.00    -0.032 N  
HETATM   25  O   UNL     1     -10.533  18.320  65.482  1.00  0.00    -0.616 OA 
ENDBRANCH  14  15
ENDBRANCH  13  14
ENDBRANCH   4  13
BRANCH   6  26
HETATM   26  N   UNL     1      -9.060   7.912  72.284  1.00  0.00    -0.145 N  
HETATM   27  O   UNL     1     -10.843   7.616  73.670  1.00  0.00    -0.308 OA 
HETATM   28  C   UNL     1     -10.296   7.329  72.607  1.00  0.00    -0.225 C  
HETATM   29  H   UNL     1      -8.697   8.505  73.031  1.00  0.00     0.000 HD 
BRANCH  28  30
HETATM   30  C   UNL     1     -10.899   6.214  71.796  1.00  0.00    -0.255 C  
BRANCH  30  31
HETATM   31  C   UNL     1     -10.242   4.928  71.529  1.00  0.00    -0.194 A  
HETATM   32  H2  UNL     1      -9.695   0.693  71.813  1.00  0.00     0.000 HD 
HETATM   33  C   UNL     1      -9.775   4.600  70.267  1.00  0.00    -0.225 A  
HETATM   34  H1  UNL     1     -10.270   1.392  73.327  1.00  0.00     0.000 HD 
HETATM   35  N   UNL     1     -10.344   3.826  72.395  1.00  0.00    -0.152 NA 
HETATM   36  N   UNL     1      -9.977   1.509  72.357  1.00  0.00    -0.110 NA 
HETATM   37  S   UNL     1      -9.463   2.922  70.156  1.00  0.00    -0.079 SA 
HETATM   38  C   UNL     1      -9.957   2.725  71.791  1.00  0.00    -0.113 A  
ENDBRANCH  30  31
BRANCH  30  39
HETATM   39  N   UNL     1     -11.955   6.359  71.067  1.00  0.00    -0.283 NA 
HETATM   40  H   UNL     1     -12.231   5.603  70.440  1.00  0.00     0.000 HD 
BRANCH  39  41
HETATM   41  O   UNL     1     -12.731   7.517  71.111  1.00  0.00    -0.310 OA 
HETATM   42  C   UNL     1     -14.117   7.488  71.394  1.00  0.00    -0.371 C  
ENDBRANCH  39  41
ENDBRANCH  30  39
ENDBRANCH  28  30
ENDBRANCH   6  26
TORSDOF 8
ENDMDL
MODEL      227
REMARK 921   NORMALIZED FREE ENERGY PREDICTED BY IDOCK:   -5.19 KCAL/MOL
REMARK 922        TOTAL FREE ENERGY PREDICTED BY IDOCK:   -8.87 KCAL/MOL
REMARK 923 INTER-LIGAND FREE ENERGY PREDICTED BY IDOCK:   -7.56 KCAL/MOL
REMARK 924 INTRA-LIGAND FREE ENERGY PREDICTED BY IDOCK:   -1.31 KCAL/MOL
REMARK 927      BINDING AFFINITY PREDICTED BY RF-SCORE:    0.00 PKD
ROOT
HETATM    1  C   UNL     1      -7.477  11.238  67.992  1.00  0.00    -0.095 C  
HETATM    2  S   UNL     1      -8.845  11.269  66.867  1.00  0.00    -0.170 SA 
HETATM    3  C   UNL     1      -9.535  12.956  67.049  1.00  0.00    -0.235 C  
HETATM    4  C   UNL     1      -8.847  13.940  67.952  1.00  0.00    -0.184 C  
HETATM    5  CA  UNL     1      -7.736  13.654  68.697  1.00  0.00    -0.107 C  
HETATM    6  CA  UNL     1      -7.160  10.347  69.268  1.00  0.00    -0.090 C  
HETATM    7  C   UNL     1      -6.568  11.698  69.778  1.00  0.00    -0.071 C  
HETATM    8  N   UNL     1      -7.226  12.388  68.810  1.00  0.00    -0.107 N  
HETATM    9  C   UNL     1      -7.046  14.771  69.435  1.00  0.00    -0.170 C  
HETATM   10  O   UNL     1      -6.012  12.026  70.799  1.00  0.00    -0.324 OA 
HETATM   11  O   UNL     1      -6.545  14.502  70.657  1.00  0.00    -0.109 OA 
HETATM   12  OXT UNL     1      -6.917  15.886  68.953  1.00  0.00    -0.125 OA 
ENDROOT
BRANCH   4  13
HETATM   13  C   UNL     1      -9.528  15.337  68.068  1.00  0.00    -0.198 C  
BRANCH  13  14
HETATM   14  S   UNL     1     -11.359  15.488  68.014  1.00  0.00    -0.301 SA 
BRANCH  14  15
HETATM   15  C   UNL     1     -11.947  15.116  69.653  1.00  0.00    -0.329 C  
HETATM   16  N   UNL     1     -11.986  16.122  70.455  1.00  0.00    -0.452 N  
HETATM   17  H   UNL     1     -11.807  17.072  70.132  1.00  0.00     0.000 HD 
HETATM   18  C   UNL     1     -12.014  12.609  69.189  1.00  0.00    -0.243 C  
HETATM   19  C   UNL     1     -12.283  15.852  71.776  1.00  0.00    -0.481 C  
HETATM   20  N   UNL     1     -12.222  13.791  70.006  1.00  0.00    -0.344 NA 
HETATM   21  C   UNL     1     -12.954  14.543  72.187  1.00  0.00    -0.346 C  
HETATM   22  O   UNL     1     -11.935  16.577  72.708  1.00  0.00    -0.533 OA 
HETATM   23  H   UNL     1     -12.770  12.551  71.633  1.00  0.00     0.000 HD 
HETATM   24  N   UNL     1     -12.665  13.517  71.324  1.00  0.00    -0.358 N  
HETATM   25  O   UNL     1     -13.627  14.408  73.196  1.00  0.00    -0.602 OA 
ENDBRANCH  14  15
ENDBRANCH  13  14
ENDBRANCH   4  13
BRANCH   6  26
HETATM   26  N   UNL     1      -8.008   9.661  70.348  1.00  0.00    -0.177 N  
HETATM   27  O   UNL     1      -9.413   8.220  71.415  1.00  0.00    -0.153 OA 
HETATM   28  C   UNL     1      -8.775   8.485  70.398  1.00  0.00    -0.149 C  
HETATM   29  H   UNL     1      -8.017  10.175  71.229  1.00  0.00     0.000 HD 
BRANCH  28  30
HETATM   30  C   UNL     1      -8.702   7.427  69.330  1.00  0.00    -0.137 C  
BRANCH  30  31
HETATM   31  C   UNL     1      -7.682   6.372  69.270  1.00  0.00    -0.101 A  
HETATM   32  H2  UNL     1      -5.005   3.637  67.356  1.00  0.00     0.000 HD 
HETATM   33  C   UNL     1      -6.595   6.365  70.129  1.00  0.00    -0.045 A  
HETATM   34  H1  UNL     1      -6.520   3.815  66.469  1.00  0.00     0.000 HD 
HETATM   35  N   UNL     1      -7.530   5.520  68.163  1.00  0.00    -0.073 NA 
HETATM   36  N   UNL     1      -5.933   4.051  67.270  1.00  0.00    -0.023 NA 
HETATM   37  S   UNL     1      -5.383   5.301  69.559  1.00  0.00    -0.004 SA 
HETATM   38  C   UNL     1      -6.372   4.902  68.210  1.00  0.00    -0.036 A  
ENDBRANCH  30  31
BRANCH  30  39
HETATM   39  N   UNL     1      -9.392   7.473  68.239  1.00  0.00    -0.141 NA 
HETATM   40  H   UNL     1      -8.986   7.917  67.416  1.00  0.00     0.000 HD 
BRANCH  39  41
HETATM   41  O   UNL     1     -10.675   6.933  68.152  1.00  0.00    -0.206 OA 
HETATM   42  C   UNL     1     -11.326   6.351  69.265  1.00  0.00    -0.338 C  
ENDBRANCH  39  41
ENDBRANCH  30  39
ENDBRANCH  28  30
ENDBRANCH   6  26
TORSDOF 8
ENDMDL
MODEL      228
REMARK 921   NORMALIZED FREE ENERGY PREDICTED BY IDOCK:   -5.18 KCAL/MOL
REMARK 922        TOTAL FREE ENERGY PREDICTED BY IDOCK:   -8.86 KCAL/MOL
REMARK 923 INTER-LIGAND FREE ENERGY PREDICTED BY IDOCK:   -7.67 KCAL/MOL
REMARK 924 INTRA-LIGAND FREE ENERGY PREDICTED BY IDOCK:   -1.19 KCAL/MOL
REMARK 927      BINDING AFFINITY PREDICTED BY RF-SCORE:    0.00 PKD
ROOT
HETATM    1  C   UNL     1      -7.564   9.368  67.755  1.00  0.00    -0.088 C  
HETATM    2  S   UNL     1      -7.287   9.150  69.491  1.00  0.00    -0.072 SA 
HETATM    3  C   UNL     1      -7.277   7.333  69.716  1.00  0.00    -0.082 C  
HETATM    4  C   UNL     1      -7.403   6.440  68.514  1.00  0.00    -0.087 C  
HETATM    5  CA  UNL     1      -7.564   6.893  67.233  1.00  0.00    -0.108 C  
HETATM    6  CA  UNL     1      -8.725  10.081  66.937  1.00  0.00    -0.128 C  
HETATM    7  C   UNL     1      -8.465   8.883  65.971  1.00  0.00    -0.129 C  
HETATM    8  N   UNL     1      -7.782   8.212  66.936  1.00  0.00    -0.095 N  
HETATM    9  C   UNL     1      -7.514   5.904  66.099  1.00  0.00    -0.085 C  
HETATM   10  O   UNL     1      -8.943   8.553  64.913  1.00  0.00    -0.061 OA 
HETATM   11  O   UNL     1      -8.359   6.089  65.065  1.00  0.00    -0.139 OA 
HETATM   12  OXT UNL     1      -6.728   4.969  66.086  1.00  0.00    -0.051 OA 
ENDROOT
BRANCH   4  13
HETATM   13  C   UNL     1      -7.419   4.910  68.811  1.00  0.00    -0.065 C  
BRANCH  13  14
HETATM   14  S   UNL     1      -9.012   4.011  68.983  1.00  0.00    -0.128 SA 
BRANCH  14  15
HETATM   15  C   UNL     1     -10.082   5.054  69.951  1.00  0.00    -0.274 C  
HETATM   16  N   UNL     1     -10.073   4.815  71.215  1.00  0.00    -0.197 N  
HETATM   17  H   UNL     1      -9.411   4.159  71.631  1.00  0.00     0.000 HD 
HETATM   18  C   UNL     1     -11.099   6.138  67.878  1.00  0.00    -0.206 C  
HETATM   19  C   UNL     1     -11.001   5.488  71.982  1.00  0.00    -0.214 C  
HETATM   20  N   UNL     1     -10.924   5.967  69.309  1.00  0.00    -0.357 NA 
HETATM   21  C   UNL     1     -11.691   6.750  71.468  1.00  0.00    -0.317 C  
HETATM   22  O   UNL     1     -11.415   5.069  73.064  1.00  0.00    -0.309 OA 
HETATM   23  H   UNL     1     -12.480   7.364  69.649  1.00  0.00     0.000 HD 
HETATM   24  N   UNL     1     -11.785   6.769  70.100  1.00  0.00    -0.346 N  
HETATM   25  O   UNL     1     -12.154   7.618  72.190  1.00  0.00    -0.297 OA 
ENDBRANCH  14  15
ENDBRANCH  13  14
ENDBRANCH   4  13
BRANCH   6  26
HETATM   26  N   UNL     1     -10.226  10.308  67.161  1.00  0.00    -0.213 N  
HETATM   27  O   UNL     1     -12.207  11.100  67.960  1.00  0.00    -0.584 OA 
HETATM   28  C   UNL     1     -10.982  11.204  67.935  1.00  0.00    -0.253 C  
HETATM   29  H   UNL     1     -10.807   9.661  66.629  1.00  0.00     0.000 HD 
BRANCH  28  30
HETATM   30  C   UNL     1     -10.375  12.417  68.588  1.00  0.00    -0.182 C  
BRANCH  30  31
HETATM   31  C   UNL     1     -11.079  13.687  68.805  1.00  0.00    -0.270 A  
HETATM   32  H2  UNL     1     -13.038  16.720  71.102  1.00  0.00     0.000 HD 
HETATM   33  C   UNL     1     -10.692  14.851  68.159  1.00  0.00    -0.251 A  
HETATM   34  H1  UNL     1     -13.392  15.099  71.702  1.00  0.00     0.000 HD 
HETATM   35  N   UNL     1     -11.934  13.908  69.898  1.00  0.00    -0.321 NA 
HETATM   36  N   UNL     1     -12.928  15.708  71.028  1.00  0.00    -0.491 NA 
HETATM   37  S   UNL     1     -11.389  16.219  68.912  1.00  0.00    -0.272 SA 
HETATM   38  C   UNL     1     -12.173  15.192  70.047  1.00  0.00    -0.338 A  
ENDBRANCH  30  31
BRANCH  30  39
HETATM   39  N   UNL     1      -9.110  12.538  68.820  1.00  0.00    -0.392 NA 
HETATM   40  H   UNL     1      -8.760  12.353  69.759  1.00  0.00     0.000 HD 
BRANCH  39  41
HETATM   41  O   UNL     1      -8.209  12.916  67.824  1.00  0.00    -0.147 OA 
HETATM   42  C   UNL     1      -7.026  13.637  68.112  1.00  0.00    -0.119 C  
ENDBRANCH  39  41
ENDBRANCH  30  39
ENDBRANCH  28  30
ENDBRANCH   6  26
TORSDOF 8
ENDMDL
MODEL      229
REMARK 921   NORMALIZED FREE ENERGY PREDICTED BY IDOCK:   -5.17 KCAL/MOL
REMARK 922        TOTAL FREE ENERGY PREDICTED BY IDOCK:   -8.84 KCAL/MOL
REMARK 923 INTER-LIGAND FREE ENERGY PREDICTED BY IDOCK:   -7.73 KCAL/MOL
REMARK 924 INTRA-LIGAND FREE ENERGY PREDICTED BY IDOCK:   -1.11 KCAL/MOL
REMARK 927      BINDING AFFINITY PREDICTED BY RF-SCORE:    0.00 PKD
ROOT
HETATM    1  C   UNL     1     -10.451  13.554  69.064  1.00  0.00    -0.051 C  
HETATM    2  S   UNL     1     -11.949  12.612  69.149  1.00  0.00    -0.183 SA 
HETATM    3  C   UNL     1     -11.445  10.925  68.643  1.00  0.00    -0.311 C  
HETATM    4  C   UNL     1      -9.996  10.642  68.361  1.00  0.00    -0.176 C  
HETATM    5  CA  UNL     1      -9.004  11.582  68.419  1.00  0.00    -0.173 C  
HETATM    6  CA  UNL     1     -10.030  14.821  68.203  1.00  0.00    -0.221 C  
HETATM    7  C   UNL     1      -8.662  14.070  68.190  1.00  0.00    -0.180 C  
HETATM    8  N   UNL     1      -9.256  12.916  68.594  1.00  0.00    -0.038 N  
HETATM    9  C   UNL     1      -7.572  11.138  68.274  1.00  0.00    -0.111 C  
HETATM   10  O   UNL     1      -7.582  14.324  67.714  1.00  0.00    -0.132 OA 
HETATM   11  O   UNL     1      -6.733  11.937  67.586  1.00  0.00    -0.084 OA 
HETATM   12  OXT UNL     1      -7.159  10.102  68.772  1.00  0.00    -0.071 OA 
ENDROOT
BRANCH   4  13
HETATM   13  C   UNL     1      -9.672   9.188  67.904  1.00  0.00    -0.154 C  
BRANCH  13  14
HETATM   14  S   UNL     1      -9.611   8.764  66.117  1.00  0.00    -0.230 SA 
BRANCH  14  15
HETATM   15  C   UNL     1     -10.065  10.238  65.230  1.00  0.00    -0.289 C  
HETATM   16  N   UNL     1     -11.020  10.918  65.762  1.00  0.00    -0.056 N  
HETATM   17  H   UNL     1     -11.395  10.685  66.681  1.00  0.00     0.000 HD 
HETATM   18  C   UNL     1      -8.523   9.681  63.276  1.00  0.00    -0.190 C  
HETATM   19  C   UNL     1     -11.511  11.979  65.028  1.00  0.00    -0.286 C  
HETATM   20  N   UNL     1      -9.467  10.516  63.997  1.00  0.00    -0.263 NA 
HETATM   21  C   UNL     1     -10.708  12.591  63.882  1.00  0.00    -0.437 C  
HETATM   22  O   UNL     1     -12.651  12.424  65.165  1.00  0.00    -0.622 OA 
HETATM   23  H   UNL     1      -9.517  11.850  62.352  1.00  0.00     0.000 HD 
HETATM   24  N   UNL     1      -9.863  11.684  63.297  1.00  0.00    -0.402 N  
HETATM   25  O   UNL     1     -10.840  13.741  63.493  1.00  0.00     0.448 OA 
ENDBRANCH  14  15
ENDBRANCH  13  14
ENDBRANCH   4  13
BRANCH   6  26
HETATM   26  N   UNL     1     -10.394  15.353  66.810  1.00  0.00    -0.272 N  
HETATM   27  O   UNL     1     -10.809  16.751  65.060  1.00  0.00    -0.653 OA 
HETATM   28  C   UNL     1     -10.392  16.624  66.210  1.00  0.00    -0.317 C  
HETATM   29  H   UNL     1     -10.707  14.619  66.176  1.00  0.00     0.000 HD 
BRANCH  28  30
HETATM   30  C   UNL     1      -9.721  17.814  66.841  1.00  0.00    -0.300 C  
BRANCH  30  31
HETATM   31  C   UNL     1      -8.284  17.903  67.133  1.00  0.00    -0.216 A  
HETATM   32  H2  UNL     1      -4.702  17.175  69.357  1.00  0.00     0.000 HD 
HETATM   33  C   UNL     1      -7.332  17.775  66.135  1.00  0.00    -0.299 A  
HETATM   34  H1  UNL     1      -6.100  17.411  70.407  1.00  0.00     0.000 HD 
HETATM   35  N   UNL     1      -7.761  17.774  68.430  1.00  0.00    -0.269 NA 
HETATM   36  N   UNL     1      -5.697  17.368  69.471  1.00  0.00    -0.204 NA 
HETATM   37  S   UNL     1      -5.786  17.493  66.810  1.00  0.00    -0.191 SA 
HETATM   38  C   UNL     1      -6.464  17.565  68.388  1.00  0.00    -0.183 A  
ENDBRANCH  30  31
BRANCH  30  39
HETATM   39  N   UNL     1     -10.371  18.784  67.392  1.00  0.00    -0.394 NA 
HETATM   40  H   UNL     1     -10.287  18.927  68.398  1.00  0.00     0.000 HD 
BRANCH  39  41
HETATM   41  O   UNL     1     -11.184  19.643  66.652  1.00  0.00    -0.247 OA 
HETATM   42  C   UNL     1     -10.731  20.285  65.476  1.00  0.00     0.029 C  
ENDBRANCH  39  41
ENDBRANCH  30  39
ENDBRANCH  28  30
ENDBRANCH   6  26
TORSDOF 8
ENDMDL
MODEL      230
REMARK 921   NORMALIZED FREE ENERGY PREDICTED BY IDOCK:   -5.16 KCAL/MOL
REMARK 922        TOTAL FREE ENERGY PREDICTED BY IDOCK:   -8.83 KCAL/MOL
REMARK 923 INTER-LIGAND FREE ENERGY PREDICTED BY IDOCK:   -7.06 KCAL/MOL
REMARK 924 INTRA-LIGAND FREE ENERGY PREDICTED BY IDOCK:   -1.77 KCAL/MOL
REMARK 927      BINDING AFFINITY PREDICTED BY RF-SCORE:    0.00 PKD
ROOT
HETATM    1  C   UNL     1      -8.555   8.356  65.011  1.00  0.00    -0.106 C  
HETATM    2  S   UNL     1      -6.935   8.009  64.383  1.00  0.00    -0.074 SA 
HETATM    3  C   UNL     1      -6.563   6.331  65.014  1.00  0.00    -0.039 C  
HETATM    4  C   UNL     1      -7.610   5.587  65.794  1.00  0.00    -0.083 C  
HETATM    5  CA  UNL     1      -8.841   6.094  66.107  1.00  0.00    -0.152 C  
HETATM    6  CA  UNL     1      -9.108   9.487  65.981  1.00  0.00    -0.176 C  
HETATM    7  C   UNL     1      -9.999   8.305  66.474  1.00  0.00    -0.250 C  
HETATM    8  N   UNL     1      -9.186   7.398  65.870  1.00  0.00    -0.042 N  
HETATM    9  C   UNL     1      -9.860   5.190  66.750  1.00  0.00    -0.185 C  
HETATM   10  O   UNL     1     -10.867   8.213  67.309  1.00  0.00    -0.248 OA 
HETATM   11  O   UNL     1     -10.654   5.717  67.703  1.00  0.00    -0.226 OA 
HETATM   12  OXT UNL     1      -9.992   4.022  66.420  1.00  0.00    -0.197 OA 
ENDROOT
BRANCH   4  13
HETATM   13  C   UNL     1      -7.186   4.181  66.318  1.00  0.00    -0.068 C  
BRANCH  13  14
HETATM   14  S   UNL     1      -6.435   3.996  67.984  1.00  0.00    -0.038 SA 
BRANCH  14  15
HETATM   15  C   UNL     1      -7.721   4.348  69.164  1.00  0.00    -0.055 C  
HETATM   16  N   UNL     1      -7.695   5.537  69.655  1.00  0.00    -0.077 N  
HETATM   17  H   UNL     1      -7.057   6.249  69.299  1.00  0.00     0.000 HD 
HETATM   18  C   UNL     1      -8.538   1.932  69.174  1.00  0.00    -0.060 C  
HETATM   19  C   UNL     1      -8.572   5.803  70.687  1.00  0.00    -0.132 C  
HETATM   20  N   UNL     1      -8.591   3.329  69.563  1.00  0.00    -0.062 NA 
HETATM   21  C   UNL     1      -9.791   4.919  70.940  1.00  0.00    -0.207 C  
HETATM   22  O   UNL     1      -8.379   6.683  71.527  1.00  0.00    -0.119 OA 
HETATM   23  H   UNL     1     -10.168   2.878  70.905  1.00  0.00     0.000 HD 
HETATM   24  N   UNL     1      -9.592   3.628  70.523  1.00  0.00    -0.186 N  
HETATM   25  O   UNL     1     -10.807   5.300  71.499  1.00  0.00    -0.194 OA 
ENDBRANCH  14  15
ENDBRANCH  13  14
ENDBRANCH   4  13
BRANCH   6  26
HETATM   26  N   UNL     1      -8.527  10.283  67.158  1.00  0.00    -0.125 N  
HETATM   27  O   UNL     1      -8.322  11.695  68.933  1.00  0.00    -0.087 OA 
HETATM   28  C   UNL     1      -9.070  11.137  68.133  1.00  0.00    -0.159 C  
HETATM   29  H   UNL     1      -7.518  10.166  67.254  1.00  0.00     0.000 HD 
BRANCH  28  30
HETATM   30  C   UNL     1     -10.551  11.252  68.370  1.00  0.00    -0.197 C  
BRANCH  30  31
HETATM   31  C   UNL     1     -11.201  11.095  69.678  1.00  0.00    -0.264 A  
HETATM   32  H2  UNL     1     -13.970  12.047  72.798  1.00  0.00     0.000 HD 
HETATM   33  C   UNL     1     -11.530   9.846  70.179  1.00  0.00    -0.248 A  
HETATM   34  H1  UNL     1     -13.354  13.491  71.993  1.00  0.00     0.000 HD 
HETATM   35  N   UNL     1     -11.840  12.155  70.344  1.00  0.00    -0.269 NA 
HETATM   36  N   UNL     1     -13.370  12.476  72.093  1.00  0.00    -0.510 NA 
HETATM   37  S   UNL     1     -12.634   9.989  71.477  1.00  0.00    -0.458 SA 
HETATM   38  C   UNL     1     -12.608  11.700  71.308  1.00  0.00    -0.320 A  
ENDBRANCH  30  31
BRANCH  30  39
HETATM   39  N   UNL     1     -11.422  11.278  67.416  1.00  0.00    -0.513 NA 
HETATM   40  H   UNL     1     -11.597  10.426  66.883  1.00  0.00     0.000 HD 
BRANCH  39  41
HETATM   41  O   UNL     1     -12.129  12.436  67.092  1.00  0.00    -0.532 OA 
HETATM   42  C   UNL     1     -11.865  13.178  65.917  1.00  0.00    -0.406 C  
ENDBRANCH  39  41
ENDBRANCH  30  39
ENDBRANCH  28  30
ENDBRANCH   6  26
TORSDOF 8
ENDMDL
MODEL      231
REMARK 921   NORMALIZED FREE ENERGY PREDICTED BY IDOCK:   -5.12 KCAL/MOL
REMARK 922        TOTAL FREE ENERGY PREDICTED BY IDOCK:   -8.78 KCAL/MOL
REMARK 923 INTER-LIGAND FREE ENERGY PREDICTED BY IDOCK:   -7.99 KCAL/MOL
REMARK 924 INTRA-LIGAND FREE ENERGY PREDICTED BY IDOCK:   -0.80 KCAL/MOL
REMARK 927      BINDING AFFINITY PREDICTED BY RF-SCORE:    0.00 PKD
ROOT
HETATM    1  C   UNL     1      -8.816  10.930  68.428  1.00  0.00    -0.147 C  
HETATM    2  S   UNL     1      -7.098  11.347  68.544  1.00  0.00    -0.092 SA 
HETATM    3  C   UNL     1      -7.082  13.179  68.522  1.00  0.00    -0.105 C  
HETATM    4  C   UNL     1      -8.384  13.928  68.501  1.00  0.00    -0.132 C  
HETATM    5  CA  UNL     1      -9.614  13.330  68.459  1.00  0.00    -0.127 C  
HETATM    6  CA  UNL     1      -9.648  10.111  67.351  1.00  0.00    -0.154 C  
HETATM    7  C   UNL     1     -10.717  11.196  67.690  1.00  0.00    -0.230 C  
HETATM    8  N   UNL     1      -9.777  11.983  68.278  1.00  0.00    -0.202 N  
HETATM    9  C   UNL     1     -10.845  14.186  68.606  1.00  0.00    -0.255 C  
HETATM   10  O   UNL     1     -11.845  11.397  67.309  1.00  0.00    -0.594 OA 
HETATM   11  O   UNL     1     -11.922  13.871  67.860  1.00  0.00    -0.363 OA 
HETATM   12  OXT UNL     1     -10.893  15.126  69.384  1.00  0.00    -0.239 OA 
ENDROOT
BRANCH   4  13
HETATM   13  C   UNL     1      -8.266  15.481  68.448  1.00  0.00    -0.145 C  
BRANCH  13  14
HETATM   14  S   UNL     1      -8.163  16.353  66.834  1.00  0.00    -0.247 SA 
BRANCH  14  15
HETATM   15  C   UNL     1      -9.561  15.810  65.874  1.00  0.00    -0.347 C  
HETATM   16  N   UNL     1      -9.554  14.561  65.566  1.00  0.00    -0.535 N  
HETATM   17  H   UNL     1      -8.860  13.919  65.950  1.00  0.00     0.000 HD 
HETATM   18  C   UNL     1     -10.444  18.187  65.595  1.00  0.00    -0.095 C  
HETATM   19  C   UNL     1     -10.530  14.130  64.691  1.00  0.00    -0.339 C  
HETATM   20  N   UNL     1     -10.499  16.746  65.427  1.00  0.00    -0.634 NA 
HETATM   21  C   UNL     1     -11.795  14.951  64.448  1.00  0.00    -0.360 C  
HETATM   22  O   UNL     1     -10.406  13.136  63.976  1.00  0.00    -0.396 OA 
HETATM   23  H   UNL     1     -12.225  16.969  64.220  1.00  0.00     0.000 HD 
HETATM   24  N   UNL     1     -11.589  16.293  64.642  1.00  0.00    -0.197 N  
HETATM   25  O   UNL     1     -12.855  14.477  64.070  1.00  0.00    -0.672 OA 
ENDBRANCH  14  15
ENDBRANCH  13  14
ENDBRANCH   4  13
BRANCH   6  26
HETATM   26  N   UNL     1      -9.535   9.886  65.836  1.00  0.00    -0.197 N  
HETATM   27  O   UNL     1      -8.961   9.029  63.806  1.00  0.00    -0.087 OA 
HETATM   28  C   UNL     1      -8.939   8.903  65.029  1.00  0.00    -0.108 C  
HETATM   29  H   UNL     1      -9.997  10.615  65.294  1.00  0.00     0.000 HD 
BRANCH  28  30
HETATM   30  C   UNL     1      -8.440   7.596  65.583  1.00  0.00    -0.142 C  
BRANCH  30  31
HETATM   31  C   UNL     1      -7.484   6.712  64.903  1.00  0.00    -0.093 A  
HETATM   32  H2  UNL     1      -6.276   3.522  62.320  1.00  0.00     0.000 HD 
HETATM   33  C   UNL     1      -6.311   7.201  64.351  1.00  0.00    -0.037 A  
HETATM   34  H1  UNL     1      -7.762   3.145  63.193  1.00  0.00     0.000 HD 
HETATM   35  N   UNL     1      -7.821   5.423  64.459  1.00  0.00    -0.096 NA 
HETATM   36  N   UNL     1      -6.995   3.787  62.994  1.00  0.00    -0.039 NA 
HETATM   37  S   UNL     1      -5.628   6.058  63.278  1.00  0.00    -0.018 SA 
HETATM   38  C   UNL     1      -6.921   4.976  63.612  1.00  0.00    -0.047 A  
ENDBRANCH  30  31
BRANCH  30  39
HETATM   39  N   UNL     1      -8.968   7.013  66.608  1.00  0.00    -0.136 NA 
HETATM   40  H   UNL     1      -8.505   7.088  67.513  1.00  0.00     0.000 HD 
BRANCH  39  41
HETATM   41  O   UNL     1     -10.153   6.283  66.513  1.00  0.00    -0.167 OA 
HETATM   42  C   UNL     1     -10.235   4.923  66.893  1.00  0.00    -0.211 C  
ENDBRANCH  39  41
ENDBRANCH  30  39
ENDBRANCH  28  30
ENDBRANCH   6  26
TORSDOF 8
ENDMDL
MODEL      232
REMARK 921   NORMALIZED FREE ENERGY PREDICTED BY IDOCK:   -5.12 KCAL/MOL
REMARK 922        TOTAL FREE ENERGY PREDICTED BY IDOCK:   -8.78 KCAL/MOL
REMARK 923 INTER-LIGAND FREE ENERGY PREDICTED BY IDOCK:   -8.60 KCAL/MOL
REMARK 924 INTRA-LIGAND FREE ENERGY PREDICTED BY IDOCK:   -0.18 KCAL/MOL
REMARK 927      BINDING AFFINITY PREDICTED BY RF-SCORE:    0.00 PKD
ROOT
HETATM    1  C   UNL     1     -11.356  10.754  67.593  1.00  0.00    -0.252 C  
HETATM    2  S   UNL     1     -10.509  10.063  66.198  1.00  0.00    -0.014 SA 
HETATM    3  C   UNL     1      -9.825   8.486  66.828  1.00  0.00    -0.257 C  
HETATM    4  C   UNL     1     -10.137   8.056  68.233  1.00  0.00    -0.227 C  
HETATM    5  CA  UNL     1     -10.885   8.788  69.114  1.00  0.00    -0.053 C  
HETATM    6  CA  UNL     1     -11.160  12.107  68.402  1.00  0.00    -0.245 C  
HETATM    7  C   UNL     1     -11.536  11.177  69.597  1.00  0.00    -0.326 C  
HETATM    8  N   UNL     1     -11.298  10.067  68.850  1.00  0.00    -0.129 N  
HETATM    9  C   UNL     1     -11.262   8.174  70.436  1.00  0.00    -0.221 C  
HETATM   10  O   UNL     1     -11.674  11.364  70.782  1.00  0.00    -0.241 OA 
HETATM   11  O   UNL     1     -11.266   8.972  71.522  1.00  0.00    -0.294 OA 
HETATM   12  OXT UNL     1     -11.578   6.999  70.540  1.00  0.00    -0.308 OA 
ENDROOT
BRANCH   4  13
HETATM   13  C   UNL     1      -9.481   6.717  68.688  1.00  0.00    -0.132 C  
BRANCH  13  14
HETATM   14  S   UNL     1     -10.349   5.119  68.431  1.00  0.00    -0.010 SA 
BRANCH  14  15
HETATM   15  C   UNL     1      -9.652   4.392  66.963  1.00  0.00    -0.198 C  
HETATM   16  N   UNL     1     -10.425   4.403  65.934  1.00  0.00    -0.465 N  
HETATM   17  H   UNL     1     -11.316   4.900  65.939  1.00  0.00     0.000 HD 
HETATM   18  C   UNL     1      -7.578   3.579  68.205  1.00  0.00    -0.057 C  
HETATM   19  C   UNL     1      -9.990   3.712  64.822  1.00  0.00    -0.160 C  
HETATM   20  N   UNL     1      -8.399   3.775  67.024  1.00  0.00    -0.098 NA 
HETATM   21  C   UNL     1      -8.520   3.336  64.646  1.00  0.00    -0.094 C  
HETATM   22  O   UNL     1     -10.752   3.259  63.967  1.00  0.00    -0.214 OA 
HETATM   23  H   UNL     1      -7.015   2.637  65.893  1.00  0.00     0.000 HD 
HETATM   24  N   UNL     1      -7.876   3.182  65.847  1.00  0.00    -0.084 N  
HETATM   25  O   UNL     1      -7.990   3.140  63.564  1.00  0.00    -0.078 OA 
ENDBRANCH  14  15
ENDBRANCH  13  14
ENDBRANCH   4  13
BRANCH   6  26
HETATM   26  N   UNL     1      -9.960  13.002  68.742  1.00  0.00    -0.420 N  
HETATM   27  O   UNL     1      -8.490  14.742  68.776  1.00  0.00    -0.161 OA 
HETATM   28  C   UNL     1      -9.570  14.303  68.383  1.00  0.00    -0.221 C  
HETATM   29  H   UNL     1      -9.296  12.550  69.369  1.00  0.00     0.000 HD 
BRANCH  28  30
HETATM   30  C   UNL     1     -10.502  15.266  67.697  1.00  0.00    -0.263 C  
BRANCH  30  31
HETATM   31  C   UNL     1     -10.232  16.697  67.509  1.00  0.00    -0.289 A  
HETATM   32  H2  UNL     1     -10.605  20.525  65.634  1.00  0.00     0.000 HD 
HETATM   33  C   UNL     1     -10.154  17.567  68.584  1.00  0.00    -0.361 A  
HETATM   34  H1  UNL     1     -10.643  19.205  64.464  1.00  0.00     0.000 HD 
HETATM   35  N   UNL     1     -10.378  17.344  66.271  1.00  0.00    -0.347 NA 
HETATM   36  N   UNL     1     -10.562  19.526  65.429  1.00  0.00    -0.414 NA 
HETATM   37  S   UNL     1     -10.263  19.190  68.056  1.00  0.00    -0.406 SA 
HETATM   38  C   UNL     1     -10.399  18.648  66.430  1.00  0.00    -0.432 A  
ENDBRANCH  30  31
BRANCH  30  39
HETATM   39  N   UNL     1     -11.726  14.978  67.404  1.00  0.00    -0.314 NA 
HETATM   40  H   UNL     1     -12.478  15.399  67.950  1.00  0.00     0.000 HD 
BRANCH  39  41
HETATM   41  O   UNL     1     -12.053  14.111  66.361  1.00  0.00    -0.422 OA 
HETATM   42  C   UNL     1     -11.702  14.379  65.017  1.00  0.00    -0.389 C  
ENDBRANCH  39  41
ENDBRANCH  30  39
ENDBRANCH  28  30
ENDBRANCH   6  26
TORSDOF 8
ENDMDL
MODEL      233
REMARK 921   NORMALIZED FREE ENERGY PREDICTED BY IDOCK:   -5.12 KCAL/MOL
REMARK 922        TOTAL FREE ENERGY PREDICTED BY IDOCK:   -8.77 KCAL/MOL
REMARK 923 INTER-LIGAND FREE ENERGY PREDICTED BY IDOCK:   -6.63 KCAL/MOL
REMARK 924 INTRA-LIGAND FREE ENERGY PREDICTED BY IDOCK:   -2.14 KCAL/MOL
REMARK 927      BINDING AFFINITY PREDICTED BY RF-SCORE:    0.00 PKD
ROOT
HETATM    1  C   UNL     1     -10.294   7.404  68.186  1.00  0.00    -0.192 C  
HETATM    2  S   UNL     1     -10.906   8.294  69.590  1.00  0.00    -0.087 SA 
HETATM    3  C   UNL     1     -10.840  10.049  69.071  1.00  0.00    -0.222 C  
HETATM    4  C   UNL     1     -10.410  10.387  67.671  1.00  0.00    -0.260 C  
HETATM    5  CA  UNL     1     -10.019   9.463  66.742  1.00  0.00    -0.239 C  
HETATM    6  CA  UNL     1      -9.040   6.449  67.987  1.00  0.00    -0.113 C  
HETATM    7  C   UNL     1      -9.015   7.154  66.595  1.00  0.00    -0.146 C  
HETATM    8  N   UNL     1      -9.835   8.141  67.045  1.00  0.00    -0.208 N  
HETATM    9  C   UNL     1      -9.769   9.914  65.327  1.00  0.00    -0.313 C  
HETATM   10  O   UNL     1      -8.308   7.043  65.622  1.00  0.00    -0.129 OA 
HETATM   11  O   UNL     1      -8.744   9.348  64.659  1.00  0.00    -0.180 OA 
HETATM   12  OXT UNL     1     -10.471  10.748  64.776  1.00  0.00    -0.326 OA 
ENDROOT
BRANCH   4  13
HETATM   13  C   UNL     1     -10.352  11.908  67.335  1.00  0.00    -0.207 C  
BRANCH  13  14
HETATM   14  S   UNL     1      -9.103  12.993  68.135  1.00  0.00    -0.191 SA 
BRANCH  14  15
HETATM   15  C   UNL     1      -9.455  14.654  67.599  1.00  0.00    -0.205 C  
HETATM   16  N   UNL     1      -8.669  15.106  66.686  1.00  0.00    -0.321 N  
HETATM   17  H   UNL     1      -7.981  14.509  66.229  1.00  0.00     0.000 HD 
HETATM   18  C   UNL     1     -11.233  14.984  69.398  1.00  0.00    -0.284 C  
HETATM   19  C   UNL     1      -8.803  16.439  66.356  1.00  0.00    -0.311 C  
HETATM   20  N   UNL     1     -10.452  15.392  68.244  1.00  0.00    -0.237 NA 
HETATM   21  C   UNL     1     -10.069  17.220  66.704  1.00  0.00    -0.302 C  
HETATM   22  O   UNL     1      -7.892  17.110  65.869  1.00  0.00    -0.477 OA 
HETATM   23  H   UNL     1     -11.345  17.311  68.339  1.00  0.00     0.000 HD 
HETATM   24  N   UNL     1     -10.697  16.721  67.817  1.00  0.00    -0.338 N  
HETATM   25  O   UNL     1     -10.451  18.208  66.098  1.00  0.00    -0.410 OA 
ENDBRANCH  14  15
ENDBRANCH  13  14
ENDBRANCH   4  13
BRANCH   6  26
HETATM   26  N   UNL     1      -7.635   6.363  68.600  1.00  0.00    -0.091 N  
HETATM   27  O   UNL     1      -5.558   6.915  69.353  1.00  0.00    -0.014 OA 
HETATM   28  C   UNL     1      -6.639   7.302  68.914  1.00  0.00    -0.048 C  
HETATM   29  H   UNL     1      -7.364   5.408  68.832  1.00  0.00     0.000 HD 
BRANCH  28  30
HETATM   30  C   UNL     1      -6.900   8.784  68.921  1.00  0.00    -0.061 C  
BRANCH  30  31
HETATM   31  C   UNL     1      -6.226   9.754  68.049  1.00  0.00    -0.055 A  
HETATM   32  H2  UNL     1      -5.545  11.935  64.430  1.00  0.00     0.000 HD 
HETATM   33  C   UNL     1      -5.828  10.996  68.517  1.00  0.00    -0.042 A  
HETATM   34  H1  UNL     1      -6.045  10.271  64.120  1.00  0.00     0.000 HD 
HETATM   35  N   UNL     1      -6.243   9.660  66.647  1.00  0.00    -0.064 NA 
HETATM   36  N   UNL     1      -5.815  11.015  64.780  1.00  0.00     0.095 NA 
HETATM   37  S   UNL     1      -5.477  12.047  67.214  1.00  0.00    -0.124 SA 
HETATM   38  C   UNL     1      -5.864  10.794  66.102  1.00  0.00    -0.133 A  
ENDBRANCH  30  31
BRANCH  30  39
HETATM   39  N   UNL     1      -7.577   9.380  69.846  1.00  0.00    -0.093 NA 
HETATM   40  H   UNL     1      -8.301  10.046  69.578  1.00  0.00     0.000 HD 
BRANCH  39  41
HETATM   41  O   UNL     1      -7.349   9.139  71.201  1.00  0.00    -0.160 OA 
HETATM   42  C   UNL     1      -8.338   8.580  72.045  1.00  0.00    -0.145 C  
ENDBRANCH  39  41
ENDBRANCH  30  39
ENDBRANCH  28  30
ENDBRANCH   6  26
TORSDOF 8
ENDMDL
MODEL      234
REMARK 921   NORMALIZED FREE ENERGY PREDICTED BY IDOCK:   -5.11 KCAL/MOL
REMARK 922        TOTAL FREE ENERGY PREDICTED BY IDOCK:   -8.76 KCAL/MOL
REMARK 923 INTER-LIGAND FREE ENERGY PREDICTED BY IDOCK:   -8.26 KCAL/MOL
REMARK 924 INTRA-LIGAND FREE ENERGY PREDICTED BY IDOCK:   -0.51 KCAL/MOL
REMARK 927      BINDING AFFINITY PREDICTED BY RF-SCORE:    0.00 PKD
ROOT
HETATM    1  C   UNL     1     -11.343   8.299  71.251  1.00  0.00    -0.267 C  
HETATM    2  S   UNL     1     -12.373   9.645  71.769  1.00  0.00    -0.377 SA 
HETATM    3  C   UNL     1     -12.238  10.860  70.406  1.00  0.00    -0.365 C  
HETATM    4  C   UNL     1     -11.440  10.510  69.182  1.00  0.00    -0.314 C  
HETATM    5  CA  UNL     1     -10.758   9.335  69.018  1.00  0.00    -0.167 C  
HETATM    6  CA  UNL     1     -10.044   7.638  71.883  1.00  0.00    -0.178 C  
HETATM    7  C   UNL     1      -9.652   7.521  70.378  1.00  0.00    -0.168 C  
HETATM    8  N   UNL     1     -10.609   8.419  70.025  1.00  0.00    -0.232 N  
HETATM    9  C   UNL     1     -10.132   9.036  67.682  1.00  0.00    -0.216 C  
HETATM   10  O   UNL     1      -8.692   7.065  69.804  1.00  0.00    -0.140 OA 
HETATM   11  O   UNL     1      -8.934   8.418  67.673  1.00  0.00    -0.135 OA 
HETATM   12  OXT UNL     1     -10.683   9.317  66.629  1.00  0.00    -0.145 OA 
ENDROOT
BRANCH   4  13
HETATM   13  C   UNL     1     -11.355  11.622  68.093  1.00  0.00    -0.292 C  
BRANCH  13  14
HETATM   14  S   UNL     1     -12.019  13.302  68.424  1.00  0.00    -0.228 SA 
BRANCH  14  15
HETATM   15  C   UNL     1     -11.850  14.223  66.910  1.00  0.00    -0.433 C  
HETATM   16  N   UNL     1     -12.433  13.699  65.889  1.00  0.00    -0.461 N  
HETATM   17  H   UNL     1     -13.042  12.886  65.980  1.00  0.00     0.000 HD 
HETATM   18  C   UNL     1     -10.216  15.877  67.959  1.00  0.00    -0.238 C  
HETATM   19  C   UNL     1     -12.196  14.292  64.666  1.00  0.00    -0.454 C  
HETATM   20  N   UNL     1     -11.037  15.360  66.879  1.00  0.00    -0.296 NA 
HETATM   21  C   UNL     1     -11.654  15.717  64.566  1.00  0.00    -0.247 C  
HETATM   22  O   UNL     1     -12.292  13.692  63.595  1.00  0.00    -0.691 OA 
HETATM   23  H   UNL     1     -10.230  16.831  65.585  1.00  0.00     0.000 HD 
HETATM   24  N   UNL     1     -10.897  16.063  65.655  1.00  0.00    -0.303 N  
HETATM   25  O   UNL     1     -11.828  16.447  63.603  1.00  0.00    -0.871 OA 
ENDBRANCH  14  15
ENDBRANCH  13  14
ENDBRANCH   4  13
BRANCH   6  26
HETATM   26  N   UNL     1      -8.872   8.151  72.732  1.00  0.00    -0.209 N  
HETATM   27  O   UNL     1      -6.865   8.298  73.798  1.00  0.00    -0.121 OA 
HETATM   28  C   UNL     1      -7.576   7.685  73.005  1.00  0.00    -0.098 C  
HETATM   29  H   UNL     1      -9.083   9.029  73.206  1.00  0.00     0.000 HD 
BRANCH  28  30
HETATM   30  C   UNL     1      -6.938   6.570  72.221  1.00  0.00    -0.073 C  
BRANCH  30  31
HETATM   31  C   UNL     1      -7.400   5.176  72.226  1.00  0.00    -0.092 A  
HETATM   32  H2  UNL     1     -10.078   1.949  71.374  1.00  0.00     0.000 HD 
HETATM   33  C   UNL     1      -6.533   4.124  71.976  1.00  0.00    -0.022 A  
HETATM   34  H1  UNL     1     -10.936   3.440  71.765  1.00  0.00     0.000 HD 
HETATM   35  N   UNL     1      -8.756   4.821  72.133  1.00  0.00    -0.122 NA 
HETATM   36  N   UNL     1     -10.059   2.933  71.642  1.00  0.00    -0.080 NA 
HETATM   37  S   UNL     1      -7.404   2.695  71.625  1.00  0.00    -0.040 SA 
HETATM   38  C   UNL     1      -8.882   3.549  71.832  1.00  0.00    -0.095 A  
ENDBRANCH  30  31
BRANCH  30  39
HETATM   39  N   UNL     1      -5.788   6.678  71.641  1.00  0.00    -0.036 NA 
HETATM   40  H   UNL     1      -4.996   6.155  72.013  1.00  0.00     0.000 HD 
BRANCH  39  41
HETATM   41  O   UNL     1      -5.598   7.490  70.523  1.00  0.00    -0.024 OA 
HETATM   42  C   UNL     1      -5.556   8.901  70.613  1.00  0.00    -0.028 C  
ENDBRANCH  39  41
ENDBRANCH  30  39
ENDBRANCH  28  30
ENDBRANCH   6  26
TORSDOF 8
ENDMDL
MODEL      235
REMARK 921   NORMALIZED FREE ENERGY PREDICTED BY IDOCK:   -5.10 KCAL/MOL
REMARK 922        TOTAL FREE ENERGY PREDICTED BY IDOCK:   -8.75 KCAL/MOL
REMARK 923 INTER-LIGAND FREE ENERGY PREDICTED BY IDOCK:   -7.25 KCAL/MOL
REMARK 924 INTRA-LIGAND FREE ENERGY PREDICTED BY IDOCK:   -1.50 KCAL/MOL
REMARK 927      BINDING AFFINITY PREDICTED BY RF-SCORE:    0.00 PKD
ROOT
HETATM    1  C   UNL     1      -9.951   7.436  67.017  1.00  0.00    -0.231 C  
HETATM    2  S   UNL     1     -10.777   8.392  68.259  1.00  0.00     0.056 SA 
HETATM    3  C   UNL     1     -10.702  10.108  67.623  1.00  0.00    -0.285 C  
HETATM    4  C   UNL     1     -10.100  10.368  66.271  1.00  0.00    -0.292 C  
HETATM    5  CA  UNL     1      -9.557   9.399  65.472  1.00  0.00    -0.258 C  
HETATM    6  CA  UNL     1      -8.649   6.525  67.056  1.00  0.00    -0.113 C  
HETATM    7  C   UNL     1      -8.462   7.133  65.631  1.00  0.00    -0.134 C  
HETATM    8  N   UNL     1      -9.369   8.110  65.895  1.00  0.00    -0.114 N  
HETATM    9  C   UNL     1      -9.134   9.762  64.073  1.00  0.00    -0.237 C  
HETATM   10  O   UNL     1      -7.628   6.986  64.770  1.00  0.00    -0.089 OA 
HETATM   11  O   UNL     1      -8.010   9.197  63.590  1.00  0.00    -0.130 OA 
HETATM   12  OXT UNL     1      -9.785  10.524  63.375  1.00  0.00    -0.307 OA 
ENDROOT
BRANCH   4  13
HETATM   13  C   UNL     1     -10.051  11.863  65.833  1.00  0.00    -0.234 C  
BRANCH  13  14
HETATM   14  S   UNL     1     -11.565  12.901  65.892  1.00  0.00    -0.399 SA 
BRANCH  14  15
HETATM   15  C   UNL     1     -11.434  13.910  67.353  1.00  0.00    -0.348 C  
HETATM   16  N   UNL     1     -11.862  13.356  68.433  1.00  0.00    -0.356 N  
HETATM   17  H   UNL     1     -12.140  12.375  68.458  1.00  0.00     0.000 HD 
HETATM   18  C   UNL     1     -10.678  15.950  66.023  1.00  0.00    -0.284 C  
HETATM   19  C   UNL     1     -11.928  14.154  69.557  1.00  0.00    -0.340 C  
HETATM   20  N   UNL     1     -10.994  15.232  67.244  1.00  0.00    -0.323 NA 
HETATM   21  C   UNL     1     -11.141  15.460  69.650  1.00  0.00    -0.276 C  
HETATM   22  O   UNL     1     -12.693  13.936  70.497  1.00  0.00    -0.312 OA 
HETATM   23  H   UNL     1     -10.705  17.017  68.348  1.00  0.00     0.000 HD 
HETATM   24  N   UNL     1     -10.922  16.023  68.419  1.00  0.00    -0.315 N  
HETATM   25  O   UNL     1     -10.794  15.975  70.701  1.00  0.00    -0.291 OA 
ENDBRANCH  14  15
ENDBRANCH  13  14
ENDBRANCH   4  13
BRANCH   6  26
HETATM   26  N   UNL     1      -7.338   6.544  67.853  1.00  0.00    -0.090 N  
HETATM   27  O   UNL     1      -5.820   6.356  69.541  1.00  0.00    -0.016 OA 
HETATM   28  C   UNL     1      -6.969   6.155  69.152  1.00  0.00    -0.068 C  
HETATM   29  H   UNL     1      -6.557   6.925  67.319  1.00  0.00     0.000 HD 
BRANCH  28  30
HETATM   30  C   UNL     1      -7.863   5.322  70.030  1.00  0.00    -0.080 C  
BRANCH  30  31
HETATM   31  C   UNL     1      -8.958   5.856  70.851  1.00  0.00    -0.146 A  
HETATM   32  H2  UNL     1     -11.328   8.909  72.687  1.00  0.00     0.000 HD 
HETATM   33  C   UNL     1     -10.235   5.321  70.794  1.00  0.00    -0.246 A  
HETATM   34  H1  UNL     1      -9.615   9.328  72.653  1.00  0.00     0.000 HD 
HETATM   35  N   UNL     1      -8.904   7.117  71.467  1.00  0.00    -0.127 NA 
HETATM   36  N   UNL     1     -10.366   8.670  72.445  1.00  0.00    -0.301 NA 
HETATM   37  S   UNL     1     -11.368   6.386  71.505  1.00  0.00    -0.302 SA 
HETATM   38  C   UNL     1     -10.101   7.494  71.856  1.00  0.00    -0.172 A  
ENDBRANCH  30  31
BRANCH  30  39
HETATM   39  N   UNL     1      -7.619   4.088  70.324  1.00  0.00    -0.045 NA 
HETATM   40  H   UNL     1      -7.814   3.367  69.630  1.00  0.00     0.000 HD 
BRANCH  39  41
HETATM   41  O   UNL     1      -7.095   3.712  71.561  1.00  0.00    -0.031 OA 
HETATM   42  C   UNL     1      -5.901   2.965  71.679  1.00  0.00    -0.013 C  
ENDBRANCH  39  41
ENDBRANCH  30  39
ENDBRANCH  28  30
ENDBRANCH   6  26
TORSDOF 8
ENDMDL
MODEL      236
REMARK 921   NORMALIZED FREE ENERGY PREDICTED BY IDOCK:   -5.10 KCAL/MOL
REMARK 922        TOTAL FREE ENERGY PREDICTED BY IDOCK:   -8.74 KCAL/MOL
REMARK 923 INTER-LIGAND FREE ENERGY PREDICTED BY IDOCK:   -7.17 KCAL/MOL
REMARK 924 INTRA-LIGAND FREE ENERGY PREDICTED BY IDOCK:   -1.57 KCAL/MOL
REMARK 927      BINDING AFFINITY PREDICTED BY RF-SCORE:    0.00 PKD
ROOT
HETATM    1  C   UNL     1      -8.944  12.786  67.755  1.00  0.00    -0.190 C  
HETATM    2  S   UNL     1      -9.493  11.893  66.326  1.00  0.00    -0.226 SA 
HETATM    3  C   UNL     1      -8.221  10.596  66.096  1.00  0.00    -0.156 C  
HETATM    4  C   UNL     1      -7.106  10.470  67.095  1.00  0.00    -0.091 C  
HETATM    5  CA  UNL     1      -6.944  11.296  68.174  1.00  0.00    -0.069 C  
HETATM    6  CA  UNL     1      -8.528  14.304  67.974  1.00  0.00    -0.164 C  
HETATM    7  C   UNL     1      -7.489  13.639  68.931  1.00  0.00    -0.033 C  
HETATM    8  N   UNL     1      -7.700  12.422  68.365  1.00  0.00    -0.140 N  
HETATM    9  C   UNL     1      -5.882  10.967  69.190  1.00  0.00    -0.041 C  
HETATM   10  O   UNL     1      -6.628  14.080  69.654  1.00  0.00    -0.125 OA 
HETATM   11  O   UNL     1      -5.194  11.989  69.734  1.00  0.00    -0.069 OA 
HETATM   12  OXT UNL     1      -5.650   9.819  69.539  1.00  0.00    -0.034 OA 
ENDROOT
BRANCH   4  13
HETATM   13  C   UNL     1      -6.055   9.359  66.794  1.00  0.00    -0.064 C  
BRANCH  13  14
HETATM   14  S   UNL     1      -6.571   7.602  66.652  1.00  0.00    -0.059 SA 
BRANCH  14  15
HETATM   15  C   UNL     1      -7.705   7.295  67.991  1.00  0.00    -0.117 C  
HETATM   16  N   UNL     1      -7.150   7.097  69.135  1.00  0.00    -0.081 N  
HETATM   17  H   UNL     1      -6.148   7.228  69.274  1.00  0.00     0.000 HD 
HETATM   18  C   UNL     1      -9.718   7.214  66.426  1.00  0.00    -0.072 C  
HETATM   19  C   UNL     1      -7.977   6.700  70.166  1.00  0.00    -0.112 C  
HETATM   20  N   UNL     1      -9.073   7.181  67.726  1.00  0.00    -0.128 NA 
HETATM   21  C   UNL     1      -9.489   6.906  70.095  1.00  0.00    -0.162 C  
HETATM   22  O   UNL     1      -7.581   6.063  71.142  1.00  0.00    -0.095 OA 
HETATM   23  H   UNL     1     -10.938   6.721  68.620  1.00  0.00     0.000 HD 
HETATM   24  N   UNL     1      -9.953   6.912  68.805  1.00  0.00    -0.150 N  
HETATM   25  O   UNL     1     -10.211   7.001  71.074  1.00  0.00    -0.197 OA 
ENDBRANCH  14  15
ENDBRANCH  13  14
ENDBRANCH   4  13
BRANCH   6  26
HETATM   26  N   UNL     1      -7.878  15.386  67.101  1.00  0.00    -0.202 N  
HETATM   27  O   UNL     1      -7.579  17.093  65.623  1.00  0.00    -0.281 OA 
HETATM   28  C   UNL     1      -8.369  16.398  66.260  1.00  0.00    -0.327 C  
HETATM   29  H   UNL     1      -6.859  15.365  67.140  1.00  0.00     0.000 HD 
BRANCH  28  30
HETATM   30  C   UNL     1      -9.817  16.806  66.247  1.00  0.00    -0.309 C  
BRANCH  30  31
HETATM   31  C   UNL     1     -10.931  15.916  65.893  1.00  0.00    -0.151 A  
HETATM   32  H2  UNL     1     -13.067  13.113  63.467  1.00  0.00     0.000 HD 
HETATM   33  C   UNL     1     -11.537  15.102  66.837  1.00  0.00    -0.156 A  
HETATM   34  H1  UNL     1     -12.209  14.312  62.498  1.00  0.00     0.000 HD 
HETATM   35  N   UNL     1     -11.232  15.561  64.568  1.00  0.00    -0.367 NA 
HETATM   36  N   UNL     1     -12.470  13.939  63.411  1.00  0.00    -0.791 NA 
HETATM   37  S   UNL     1     -12.479  13.895  66.076  1.00  0.00    -0.415 SA 
HETATM   38  C   UNL     1     -12.038  14.524  64.538  1.00  0.00    -0.484 A  
ENDBRANCH  30  31
BRANCH  30  39
HETATM   39  N   UNL     1     -10.208  18.034  66.328  1.00  0.00    -0.391 NA 
HETATM   40  H   UNL     1     -10.437  18.538  65.471  1.00  0.00     0.000 HD 
BRANCH  39  41
HETATM   41  O   UNL     1     -10.327  18.693  67.552  1.00  0.00    -0.367 OA 
HETATM   42  C   UNL     1     -10.235  18.012  68.788  1.00  0.00    -0.354 C  
ENDBRANCH  39  41
ENDBRANCH  30  39
ENDBRANCH  28  30
ENDBRANCH   6  26
TORSDOF 8
ENDMDL
MODEL      237
REMARK 921   NORMALIZED FREE ENERGY PREDICTED BY IDOCK:   -5.09 KCAL/MOL
REMARK 922        TOTAL FREE ENERGY PREDICTED BY IDOCK:   -8.74 KCAL/MOL
REMARK 923 INTER-LIGAND FREE ENERGY PREDICTED BY IDOCK:   -7.29 KCAL/MOL
REMARK 924 INTRA-LIGAND FREE ENERGY PREDICTED BY IDOCK:   -1.44 KCAL/MOL
REMARK 927      BINDING AFFINITY PREDICTED BY RF-SCORE:    0.00 PKD
ROOT
HETATM    1  C   UNL     1      -6.515  10.354  68.429  1.00  0.00    -0.055 C  
HETATM    2  S   UNL     1      -7.465  10.290  66.935  1.00  0.00    -0.104 SA 
HETATM    3  C   UNL     1      -8.003  12.021  66.674  1.00  0.00     0.013 C  
HETATM    4  C   UNL     1      -7.528  13.091  67.615  1.00  0.00    -0.156 C  
HETATM    5  CA  UNL     1      -6.731  12.859  68.703  1.00  0.00    -0.095 C  
HETATM    6  CA  UNL     1      -6.693   9.651  69.842  1.00  0.00    -0.069 C  
HETATM    7  C   UNL     1      -6.151  11.028  70.337  1.00  0.00    -0.131 C  
HETATM    8  N   UNL     1      -6.410  11.599  69.131  1.00  0.00    -0.075 N  
HETATM    9  C   UNL     1      -6.190  14.035  69.473  1.00  0.00    -0.117 C  
HETATM   10  O   UNL     1      -5.903  11.476  71.431  1.00  0.00    -0.346 OA 
HETATM   11  O   UNL     1      -6.114  13.927  70.814  1.00  0.00    -0.182 OA 
HETATM   12  OXT UNL     1      -5.808  15.055  68.919  1.00  0.00    -0.088 OA 
ENDROOT
BRANCH   4  13
HETATM   13  C   UNL     1      -8.068  14.525  67.331  1.00  0.00    -0.200 C  
BRANCH  13  14
HETATM   14  S   UNL     1      -9.803  14.966  67.744  1.00  0.00    -0.218 SA 
BRANCH  14  15
HETATM   15  C   UNL     1     -10.834  14.143  66.550  1.00  0.00    -0.298 C  
HETATM   16  N   UNL     1     -11.026  14.796  65.458  1.00  0.00    -0.329 N  
HETATM   17  H   UNL     1     -10.523  15.660  65.256  1.00  0.00     0.000 HD 
HETATM   18  C   UNL     1     -11.407  12.256  68.168  1.00  0.00    -0.295 C  
HETATM   19  C   UNL     1     -11.944  14.270  64.572  1.00  0.00    -0.462 C  
HETATM   20  N   UNL     1     -11.448  12.932  66.884  1.00  0.00    -0.323 NA 
HETATM   21  C   UNL     1     -12.376  12.807  64.651  1.00  0.00    -0.459 C  
HETATM   22  O   UNL     1     -12.552  14.951  63.746  1.00  0.00    -0.791 OA 
HETATM   23  H   UNL     1     -12.824  11.481  66.184  1.00  0.00     0.000 HD 
HETATM   24  N   UNL     1     -12.286  12.307  65.925  1.00  0.00    -0.207 N  
HETATM   25  O   UNL     1     -12.805  12.169  63.703  1.00  0.00    -0.746 OA 
ENDBRANCH  14  15
ENDBRANCH  13  14
ENDBRANCH   4  13
BRANCH   6  26
HETATM   26  N   UNL     1      -7.895   9.185  70.677  1.00  0.00    -0.132 N  
HETATM   27  O   UNL     1      -9.615   7.940  71.499  1.00  0.00    -0.146 OA 
HETATM   28  C   UNL     1      -8.637   7.996  70.756  1.00  0.00    -0.129 C  
HETATM   29  H   UNL     1      -8.230   9.903  71.320  1.00  0.00     0.000 HD 
BRANCH  28  30
HETATM   30  C   UNL     1      -8.178   6.713  70.116  1.00  0.00    -0.133 C  
BRANCH  30  31
HETATM   31  C   UNL     1      -8.471   6.319  68.732  1.00  0.00    -0.119 A  
HETATM   32  H2  UNL     1     -10.969   5.345  65.397  1.00  0.00     0.000 HD 
HETATM   33  C   UNL     1      -7.764   6.848  67.663  1.00  0.00    -0.111 A  
HETATM   34  H1  UNL     1     -11.630   4.750  66.920  1.00  0.00     0.000 HD 
HETATM   35  N   UNL     1      -9.664   5.681  68.357  1.00  0.00    -0.122 NA 
HETATM   36  N   UNL     1     -10.894   5.236  66.409  1.00  0.00    -0.238 NA 
HETATM   37  S   UNL     1      -8.585   6.551  66.193  1.00  0.00    -0.148 SA 
HETATM   38  C   UNL     1      -9.827   5.732  67.054  1.00  0.00    -0.151 A  
ENDBRANCH  30  31
BRANCH  30  39
HETATM   39  N   UNL     1      -7.671   5.730  70.784  1.00  0.00    -0.091 NA 
HETATM   40  H   UNL     1      -8.250   5.249  71.472  1.00  0.00     0.000 HD 
BRANCH  39  41
HETATM   41  O   UNL     1      -6.355   5.307  70.593  1.00  0.00    -0.022 OA 
HETATM   42  C   UNL     1      -6.032   3.966  70.278  1.00  0.00    -0.018 C  
ENDBRANCH  39  41
ENDBRANCH  30  39
ENDBRANCH  28  30
ENDBRANCH   6  26
TORSDOF 8
ENDMDL
MODEL      238
REMARK 921   NORMALIZED FREE ENERGY PREDICTED BY IDOCK:   -5.09 KCAL/MOL
REMARK 922        TOTAL FREE ENERGY PREDICTED BY IDOCK:   -8.73 KCAL/MOL
REMARK 923 INTER-LIGAND FREE ENERGY PREDICTED BY IDOCK:   -6.70 KCAL/MOL
REMARK 924 INTRA-LIGAND FREE ENERGY PREDICTED BY IDOCK:   -2.03 KCAL/MOL
REMARK 927      BINDING AFFINITY PREDICTED BY RF-SCORE:    0.00 PKD
ROOT
HETATM    1  C   UNL     1      -6.526  10.784  68.498  1.00  0.00    -0.054 C  
HETATM    2  S   UNL     1      -7.183  11.957  67.345  1.00  0.00    -0.153 SA 
HETATM    3  C   UNL     1      -8.996  11.726  67.459  1.00  0.00    -0.168 C  
HETATM    4  C   UNL     1      -9.555  10.755  68.460  1.00  0.00    -0.183 C  
HETATM    5  CA  UNL     1      -8.791   9.983  69.291  1.00  0.00    -0.178 C  
HETATM    6  CA  UNL     1      -5.557   9.537  68.323  1.00  0.00    -0.037 C  
HETATM    7  C   UNL     1      -6.495   8.946  69.421  1.00  0.00    -0.044 C  
HETATM    8  N   UNL     1      -7.428   9.907  69.185  1.00  0.00    -0.080 N  
HETATM    9  C   UNL     1      -9.472   9.170  70.361  1.00  0.00    -0.227 C  
HETATM   10  O   UNL     1      -6.521   7.892  70.009  1.00  0.00    -0.033 OA 
HETATM   11  O   UNL     1      -8.980   7.944  70.627  1.00  0.00    -0.145 OA 
HETATM   12  OXT UNL     1     -10.426   9.597  70.992  1.00  0.00    -0.304 OA 
ENDROOT
BRANCH   4  13
HETATM   13  C   UNL     1     -11.106  10.603  68.456  1.00  0.00    -0.263 C  
BRANCH  13  14
HETATM   14  S   UNL     1     -12.153  11.714  69.478  1.00  0.00    -0.230 SA 
BRANCH  14  15
HETATM   15  C   UNL     1     -11.665  13.380  69.082  1.00  0.00    -0.326 C  
HETATM   16  N   UNL     1     -11.344  14.106  70.095  1.00  0.00    -0.470 N  
HETATM   17  H   UNL     1     -11.264  13.711  71.032  1.00  0.00     0.000 HD 
HETATM   18  C   UNL     1     -12.285  13.104  66.623  1.00  0.00    -0.267 C  
HETATM   19  C   UNL     1     -11.114  15.444  69.852  1.00  0.00    -0.293 C  
HETATM   20  N   UNL     1     -11.754  13.831  67.762  1.00  0.00    -0.338 NA 
HETATM   21  C   UNL     1     -10.816  15.956  68.444  1.00  0.00    -0.316 C  
HETATM   22  O   UNL     1     -11.239  16.318  70.711  1.00  0.00    -0.366 OA 
HETATM   23  H   UNL     1     -11.539  15.550  66.541  1.00  0.00     0.000 HD 
HETATM   24  N   UNL     1     -11.383  15.170  67.475  1.00  0.00    -0.333 N  
HETATM   25  O   UNL     1     -10.191  16.977  68.206  1.00  0.00    -0.288 OA 
ENDBRANCH  14  15
ENDBRANCH  13  14
ENDBRANCH   4  13
BRANCH   6  26
HETATM   26  N   UNL     1      -5.290   8.522  67.203  1.00  0.00    -0.036 N  
HETATM   27  O   UNL     1      -5.588   6.956  65.576  1.00  0.00    -0.029 OA 
HETATM   28  C   UNL     1      -6.105   7.752  66.357  1.00  0.00    -0.045 C  
HETATM   29  H   UNL     1      -4.295   8.371  67.036  1.00  0.00     0.000 HD 
BRANCH  28  30
HETATM   30  C   UNL     1      -7.584   7.995  66.222  1.00  0.00    -0.090 C  
BRANCH  30  31
HETATM   31  C   UNL     1      -8.627   7.117  66.768  1.00  0.00    -0.124 A  
HETATM   32  H2  UNL     1     -10.391   4.456  69.617  1.00  0.00     0.000 HD 
HETATM   33  C   UNL     1      -9.968   7.463  66.712  1.00  0.00    -0.230 A  
HETATM   34  H1  UNL     1      -8.652   4.206  69.461  1.00  0.00     0.000 HD 
HETATM   35  N   UNL     1      -8.352   6.074  67.667  1.00  0.00    -0.109 NA 
HETATM   36  N   UNL     1      -9.500   4.699  69.182  1.00  0.00    -0.143 NA 
HETATM   37  S   UNL     1     -10.886   6.492  67.778  1.00  0.00    -0.316 SA 
HETATM   38  C   UNL     1      -9.456   5.661  68.249  1.00  0.00    -0.114 A  
ENDBRANCH  30  31
BRANCH  30  39
HETATM   39  N   UNL     1      -8.087   8.877  65.423  1.00  0.00    -0.112 NA 
HETATM   40  H   UNL     1      -8.839   9.478  65.760  1.00  0.00     0.000 HD 
BRANCH  39  41
HETATM   41  O   UNL     1      -7.633   9.032  64.113  1.00  0.00    -0.109 OA 
HETATM   42  C   UNL     1      -7.985   8.132  63.080  1.00  0.00    -0.151 C  
ENDBRANCH  39  41
ENDBRANCH  30  39
ENDBRANCH  28  30
ENDBRANCH   6  26
TORSDOF 8
ENDMDL
MODEL      239
REMARK 921   NORMALIZED FREE ENERGY PREDICTED BY IDOCK:   -5.09 KCAL/MOL
REMARK 922        TOTAL FREE ENERGY PREDICTED BY IDOCK:   -8.73 KCAL/MOL
REMARK 923 INTER-LIGAND FREE ENERGY PREDICTED BY IDOCK:   -7.37 KCAL/MOL
REMARK 924 INTRA-LIGAND FREE ENERGY PREDICTED BY IDOCK:   -1.36 KCAL/MOL
REMARK 927      BINDING AFFINITY PREDICTED BY RF-SCORE:    0.00 PKD
ROOT
HETATM    1  C   UNL     1     -11.622  15.353  66.375  1.00  0.00     0.105 C  
HETATM    2  S   UNL     1     -11.864  13.943  65.330  1.00  0.00    -0.378 SA 
HETATM    3  C   UNL     1     -11.889  12.526  66.490  1.00  0.00    -0.367 C  
HETATM    4  C   UNL     1     -11.799  12.782  67.968  1.00  0.00    -0.386 C  
HETATM    5  CA  UNL     1     -11.660  14.023  68.527  1.00  0.00    -0.322 C  
HETATM    6  CA  UNL     1     -10.471  16.445  66.450  1.00  0.00    -0.286 C  
HETATM    7  C   UNL     1     -10.764  16.316  67.977  1.00  0.00    -0.331 C  
HETATM    8  N   UNL     1     -11.434  15.149  67.781  1.00  0.00    -0.331 N  
HETATM    9  C   UNL     1     -11.745  14.161  70.024  1.00  0.00    -0.291 C  
HETATM   10  O   UNL     1     -10.313  16.858  68.957  1.00  0.00    -0.297 OA 
HETATM   11  O   UNL     1     -10.920  15.044  70.621  1.00  0.00    -0.238 OA 
HETATM   12  OXT UNL     1     -12.541  13.520  70.692  1.00  0.00    -0.320 OA 
ENDROOT
BRANCH   4  13
HETATM   13  C   UNL     1     -11.794  11.512  68.871  1.00  0.00    -0.341 C  
BRANCH  13  14
HETATM   14  S   UNL     1     -10.208  10.728  69.367  1.00  0.00    -0.104 SA 
BRANCH  14  15
HETATM   15  C   UNL     1      -9.713   9.681  68.015  1.00  0.00    -0.146 C  
HETATM   16  N   UNL     1      -9.646  10.269  66.872  1.00  0.00    -0.168 N  
HETATM   17  H   UNL     1      -9.752  11.279  66.783  1.00  0.00     0.000 HD 
HETATM   18  C   UNL     1      -9.782   7.580  69.460  1.00  0.00    -0.164 C  
HETATM   19  C   UNL     1      -9.423   9.466  65.772  1.00  0.00    -0.259 C  
HETATM   20  N   UNL     1      -9.536   8.311  68.229  1.00  0.00    -0.145 NA 
HETATM   21  C   UNL     1      -8.851   8.057  65.921  1.00  0.00    -0.153 C  
HETATM   22  O   UNL     1      -9.764   9.774  64.630  1.00  0.00    -0.268 OA 
HETATM   23  H   UNL     1      -9.135   6.480  67.242  1.00  0.00     0.000 HD 
HETATM   24  N   UNL     1      -9.167   7.493  67.131  1.00  0.00    -0.132 N  
HETATM   25  O   UNL     1      -8.232   7.475  65.046  1.00  0.00    -0.134 OA 
ENDBRANCH  14  15
ENDBRANCH  13  14
ENDBRANCH   4  13
BRANCH   6  26
HETATM   26  N   UNL     1      -8.962  16.451  66.165  1.00  0.00    -0.334 N  
HETATM   27  O   UNL     1      -6.713  16.159  66.371  1.00  0.00    -0.086 OA 
HETATM   28  C   UNL     1      -7.834  15.935  66.824  1.00  0.00    -0.238 C  
HETATM   29  H   UNL     1      -8.726  16.940  65.302  1.00  0.00     0.000 HD 
BRANCH  28  30
HETATM   30  C   UNL     1      -7.941  14.951  67.957  1.00  0.00    -0.129 C  
BRANCH  30  31
HETATM   31  C   UNL     1      -7.208  15.057  69.226  1.00  0.00    -0.179 A  
HETATM   32  H2  UNL     1      -4.856  13.634  72.504  1.00  0.00     0.000 HD 
HETATM   33  C   UNL     1      -6.390  16.141  69.502  1.00  0.00    -0.191 A  
HETATM   34  H1  UNL     1      -6.030  12.436  71.959  1.00  0.00     0.000 HD 
HETATM   35  N   UNL     1      -6.996  13.961  70.078  1.00  0.00     0.171 NA 
HETATM   36  N   UNL     1      -5.615  13.364  71.878  1.00  0.00    -0.405 NA 
HETATM   37  S   UNL     1      -5.357  15.797  70.820  1.00  0.00    -0.089 SA 
HETATM   38  C   UNL     1      -6.057  14.232  70.957  1.00  0.00    -0.119 A  
ENDBRANCH  30  31
BRANCH  30  39
HETATM   39  N   UNL     1      -8.514  13.799  67.844  1.00  0.00    -0.163 NA 
HETATM   40  H   UNL     1      -9.320  13.588  68.433  1.00  0.00     0.000 HD 
BRANCH  39  41
HETATM   41  O   UNL     1      -8.065  12.835  66.941  1.00  0.00    -0.112 OA 
HETATM   42  C   UNL     1      -6.782  12.247  67.042  1.00  0.00    -0.038 C  
ENDBRANCH  39  41
ENDBRANCH  30  39
ENDBRANCH  28  30
ENDBRANCH   6  26
TORSDOF 8
ENDMDL
MODEL      240
REMARK 921   NORMALIZED FREE ENERGY PREDICTED BY IDOCK:   -5.09 KCAL/MOL
REMARK 922        TOTAL FREE ENERGY PREDICTED BY IDOCK:   -8.73 KCAL/MOL
REMARK 923 INTER-LIGAND FREE ENERGY PREDICTED BY IDOCK:   -7.03 KCAL/MOL
REMARK 924 INTRA-LIGAND FREE ENERGY PREDICTED BY IDOCK:   -1.69 KCAL/MOL
REMARK 927      BINDING AFFINITY PREDICTED BY RF-SCORE:    0.00 PKD
ROOT
HETATM    1  C   UNL     1      -8.087  12.773  67.330  1.00  0.00    -0.185 C  
HETATM    2  S   UNL     1      -7.053  12.788  68.769  1.00  0.00    -0.064 SA 
HETATM    3  C   UNL     1      -6.987  11.034  69.290  1.00  0.00    -0.116 C  
HETATM    4  C   UNL     1      -7.670   9.990  68.452  1.00  0.00    -0.084 C  
HETATM    5  CA  UNL     1      -8.387  10.261  67.319  1.00  0.00    -0.121 C  
HETATM    6  CA  UNL     1      -9.475  13.472  67.001  1.00  0.00    -0.251 C  
HETATM    7  C   UNL     1      -9.714  12.122  66.255  1.00  0.00    -0.238 C  
HETATM    8  N   UNL     1      -8.683  11.536  66.918  1.00  0.00    -0.174 N  
HETATM    9  C   UNL     1      -8.885   9.113  66.480  1.00  0.00    -0.134 C  
HETATM   10  O   UNL     1     -10.631  11.690  65.598  1.00  0.00    -0.260 OA 
HETATM   11  O   UNL     1     -10.103   9.229  65.917  1.00  0.00    -0.293 OA 
HETATM   12  OXT UNL     1      -8.214   8.111  66.287  1.00  0.00    -0.106 OA 
ENDROOT
BRANCH   4  13
HETATM   13  C   UNL     1      -7.586   8.531  68.996  1.00  0.00    -0.094 C  
BRANCH  13  14
HETATM   14  S   UNL     1      -8.981   7.812  69.950  1.00  0.00    -0.146 SA 
BRANCH  14  15
HETATM   15  C   UNL     1      -9.103   6.104  69.463  1.00  0.00    -0.139 C  
HETATM   16  N   UNL     1      -8.693   5.851  68.269  1.00  0.00    -0.113 N  
HETATM   17  H   UNL     1      -8.226   6.559  67.703  1.00  0.00     0.000 HD 
HETATM   18  C   UNL     1     -10.352   5.461  71.592  1.00  0.00    -0.218 C  
HETATM   19  C   UNL     1      -8.916   4.575  67.793  1.00  0.00    -0.116 C  
HETATM   20  N   UNL     1      -9.712   5.181  70.319  1.00  0.00    -0.186 NA 
HETATM   21  C   UNL     1      -9.214   3.414  68.740  1.00  0.00    -0.166 C  
HETATM   22  O   UNL     1      -9.000   4.307  66.594  1.00  0.00    -0.113 OA 
HETATM   23  H   UNL     1     -10.351   3.166  70.459  1.00  0.00     0.000 HD 
HETATM   24  N   UNL     1      -9.819   3.831  69.898  1.00  0.00    -0.122 N  
HETATM   25  O   UNL     1      -8.990   2.244  68.478  1.00  0.00    -0.094 OA 
ENDBRANCH  14  15
ENDBRANCH  13  14
ENDBRANCH   4  13
BRANCH   6  26
HETATM   26  N   UNL     1     -10.702  13.885  67.826  1.00  0.00    -0.244 N  
HETATM   27  O   UNL     1     -12.086  15.002  69.249  1.00  0.00    -0.298 OA 
HETATM   28  C   UNL     1     -11.010  14.976  68.654  1.00  0.00    -0.257 C  
HETATM   29  H   UNL     1     -11.468  13.214  67.756  1.00  0.00     0.000 HD 
BRANCH  28  30
HETATM   30  C   UNL     1     -10.162  16.219  68.700  1.00  0.00    -0.254 C  
BRANCH  30  31
HETATM   31  C   UNL     1     -10.457  17.457  67.968  1.00  0.00    -0.383 A  
HETATM   32  H2  UNL     1      -9.943  21.563  66.876  1.00  0.00     0.000 HD 
HETATM   33  C   UNL     1     -10.747  17.447  66.613  1.00  0.00    -0.084 A  
HETATM   34  H1  UNL     1      -9.658  21.291  68.596  1.00  0.00     0.000 HD 
HETATM   35  N   UNL     1     -10.138  18.732  68.465  1.00  0.00    -0.390 NA 
HETATM   36  N   UNL     1      -9.909  20.930  67.676  1.00  0.00    -0.268 NA 
HETATM   37  S   UNL     1     -10.621  19.021  65.957  1.00  0.00    -0.323 SA 
HETATM   38  C   UNL     1     -10.198  19.630  67.508  1.00  0.00    -0.432 A  
ENDBRANCH  30  31
BRANCH  30  39
HETATM   39  N   UNL     1      -8.975  16.249  69.209  1.00  0.00    -0.218 NA 
HETATM   40  H   UNL     1      -8.872  16.267  70.223  1.00  0.00     0.000 HD 
BRANCH  39  41
HETATM   41  O   UNL     1      -7.830  16.256  68.413  1.00  0.00    -0.155 OA 
HETATM   42  C   UNL     1      -6.686  17.020  68.743  1.00  0.00    -0.193 C  
ENDBRANCH  39  41
ENDBRANCH  30  39
ENDBRANCH  28  30
ENDBRANCH   6  26
TORSDOF 8
ENDMDL
MODEL      241
REMARK 921   NORMALIZED FREE ENERGY PREDICTED BY IDOCK:   -5.08 KCAL/MOL
REMARK 922        TOTAL FREE ENERGY PREDICTED BY IDOCK:   -8.72 KCAL/MOL
REMARK 923 INTER-LIGAND FREE ENERGY PREDICTED BY IDOCK:   -6.24 KCAL/MOL
REMARK 924 INTRA-LIGAND FREE ENERGY PREDICTED BY IDOCK:   -2.48 KCAL/MOL
REMARK 927      BINDING AFFINITY PREDICTED BY RF-SCORE:    0.00 PKD
ROOT
HETATM    1  C   UNL     1     -10.556  11.898  68.536  1.00  0.00    -0.222 C  
HETATM    2  S   UNL     1     -11.527  10.610  69.270  1.00  0.00    -0.279 SA 
HETATM    3  C   UNL     1     -10.285   9.463  69.975  1.00  0.00    -0.229 C  
HETATM    4  C   UNL     1      -8.826   9.817  69.897  1.00  0.00    -0.248 C  
HETATM    5  CA  UNL     1      -8.339  10.942  69.291  1.00  0.00    -0.012 C  
HETATM    6  CA  UNL     1     -10.425  12.422  67.042  1.00  0.00    -0.220 C  
HETATM    7  C   UNL     1      -8.935  12.590  67.477  1.00  0.00    -0.185 C  
HETATM    8  N   UNL     1      -9.127  11.789  68.558  1.00  0.00    -0.176 N  
HETATM    9  C   UNL     1      -6.874  11.264  69.422  1.00  0.00    -0.121 C  
HETATM   10  O   UNL     1      -7.949  13.000  66.914  1.00  0.00    -0.057 OA 
HETATM   11  O   UNL     1      -6.247  11.788  68.351  1.00  0.00    -0.049 OA 
HETATM   12  OXT UNL     1      -6.259  11.083  70.462  1.00  0.00    -0.254 OA 
ENDROOT
BRANCH   4  13
HETATM   13  C   UNL     1      -7.846   8.762  70.493  1.00  0.00    -0.103 C  
BRANCH  13  14
HETATM   14  S   UNL     1      -8.025   8.203  72.234  1.00  0.00    -0.142 SA 
BRANCH  14  15
HETATM   15  C   UNL     1      -8.706   6.560  72.173  1.00  0.00    -0.131 C  
HETATM   16  N   UNL     1      -8.500   5.929  71.070  1.00  0.00    -0.123 N  
HETATM   17  H   UNL     1      -7.891   6.305  70.344  1.00  0.00     0.000 HD 
HETATM   18  C   UNL     1      -9.898   6.841  74.410  1.00  0.00    -0.286 C  
HETATM   19  C   UNL     1      -9.143   4.718  70.917  1.00  0.00    -0.134 C  
HETATM   20  N   UNL     1      -9.489   6.095  73.234  1.00  0.00    -0.142 NA 
HETATM   21  C   UNL     1      -9.697   3.956  72.120  1.00  0.00    -0.159 C  
HETATM   22  O   UNL     1      -9.412   4.229  69.820  1.00  0.00    -0.153 OA 
HETATM   23  H   UNL     1     -10.699   4.474  73.863  1.00  0.00     0.000 HD 
HETATM   24  N   UNL     1     -10.041   4.792  73.151  1.00  0.00    -0.156 N  
HETATM   25  O   UNL     1      -9.866   2.747  72.144  1.00  0.00    -0.149 OA 
ENDBRANCH  14  15
ENDBRANCH  13  14
ENDBRANCH   4  13
BRANCH   6  26
HETATM   26  N   UNL     1     -10.537  11.775  65.654  1.00  0.00    -0.260 N  
HETATM   27  O   UNL     1     -10.091  10.546  63.790  1.00  0.00    -0.315 OA 
HETATM   28  C   UNL     1      -9.778  10.830  64.944  1.00  0.00    -0.276 C  
HETATM   29  H   UNL     1     -11.345  12.107  65.129  1.00  0.00     0.000 HD 
BRANCH  28  30
HETATM   30  C   UNL     1      -8.708   9.998  65.598  1.00  0.00    -0.155 C  
BRANCH  30  31
HETATM   31  C   UNL     1      -8.963   8.814  66.429  1.00  0.00    -0.158 A  
HETATM   32  H2  UNL     1     -11.089   5.329  67.710  1.00  0.00     0.000 HD 
HETATM   33  C   UNL     1      -7.939   7.960  66.806  1.00  0.00    -0.107 A  
HETATM   34  H1  UNL     1     -12.176   6.618  67.192  1.00  0.00     0.000 HD 
HETATM   35  N   UNL     1     -10.245   8.270  66.609  1.00  0.00    -0.296 NA 
HETATM   36  N   UNL     1     -11.229   6.275  67.355  1.00  0.00    -0.268 NA 
HETATM   37  S   UNL     1      -8.572   6.480  67.383  1.00  0.00    -0.118 SA 
HETATM   38  C   UNL     1     -10.167   7.057  67.108  1.00  0.00    -0.248 A  
ENDBRANCH  30  31
BRANCH  30  39
HETATM   39  N   UNL     1      -7.473  10.369  65.679  1.00  0.00    -0.148 NA 
HETATM   40  H   UNL     1      -7.083  10.593  66.594  1.00  0.00     0.000 HD 
BRANCH  39  41
HETATM   41  O   UNL     1      -6.657  10.472  64.553  1.00  0.00    -0.069 OA 
HETATM   42  C   UNL     1      -6.477   9.398  63.650  1.00  0.00    -0.095 C  
ENDBRANCH  39  41
ENDBRANCH  30  39
ENDBRANCH  28  30
ENDBRANCH   6  26
TORSDOF 8
ENDMDL
MODEL      242
REMARK 921   NORMALIZED FREE ENERGY PREDICTED BY IDOCK:   -5.07 KCAL/MOL
REMARK 922        TOTAL FREE ENERGY PREDICTED BY IDOCK:   -8.70 KCAL/MOL
REMARK 923 INTER-LIGAND FREE ENERGY PREDICTED BY IDOCK:   -7.50 KCAL/MOL
REMARK 924 INTRA-LIGAND FREE ENERGY PREDICTED BY IDOCK:   -1.19 KCAL/MOL
REMARK 927      BINDING AFFINITY PREDICTED BY RF-SCORE:    0.00 PKD
ROOT
HETATM    1  C   UNL     1      -8.797   8.815  66.646  1.00  0.00    -0.131 C  
HETATM    2  S   UNL     1      -8.843   9.876  65.228  1.00  0.00    -0.197 SA 
HETATM    3  C   UNL     1     -10.109  11.130  65.650  1.00  0.00    -0.253 C  
HETATM    4  C   UNL     1     -10.754  11.099  67.007  1.00  0.00    -0.316 C  
HETATM    5  CA  UNL     1     -10.487  10.159  67.964  1.00  0.00    -0.209 C  
HETATM    6  CA  UNL     1      -9.092   7.265  66.834  1.00  0.00    -0.141 C  
HETATM    7  C   UNL     1      -9.685   7.777  68.184  1.00  0.00    -0.155 C  
HETATM    8  N   UNL     1      -9.712   9.056  67.723  1.00  0.00    -0.150 N  
HETATM    9  C   UNL     1     -11.076  10.331  69.339  1.00  0.00    -0.252 C  
HETATM   10  O   UNL     1     -10.200   7.225  69.126  1.00  0.00    -0.185 OA 
HETATM   11  O   UNL     1     -11.499   9.227  69.985  1.00  0.00    -0.181 OA 
HETATM   12  OXT UNL     1     -11.160  11.424  69.878  1.00  0.00    -0.193 OA 
ENDROOT
BRANCH   4  13
HETATM   13  C   UNL     1     -11.844  12.185  67.259  1.00  0.00    -0.223 C  
BRANCH  13  14
HETATM   14  S   UNL     1     -12.002  13.625  66.129  1.00  0.00    -0.439 SA 
BRANCH  14  15
HETATM   15  C   UNL     1     -11.222  15.000  66.947  1.00  0.00    -0.323 C  
HETATM   16  N   UNL     1     -11.204  14.927  68.232  1.00  0.00    -0.280 N  
HETATM   17  H   UNL     1     -11.507  14.087  68.724  1.00  0.00     0.000 HD 
HETATM   18  C   UNL     1     -10.952  16.297  64.767  1.00  0.00    -0.272 C  
HETATM   19  C   UNL     1     -10.754  16.041  68.911  1.00  0.00    -0.275 C  
HETATM   20  N   UNL     1     -10.784  16.095  66.195  1.00  0.00    -0.266 NA 
HETATM   21  C   UNL     1      -9.919  17.113  68.214  1.00  0.00    -0.300 C  
HETATM   22  O   UNL     1     -11.079  16.302  70.070  1.00  0.00    -0.341 OA 
HETATM   23  H   UNL     1      -9.958  18.039  66.356  1.00  0.00     0.000 HD 
HETATM   24  N   UNL     1     -10.188  17.189  66.871  1.00  0.00    -0.308 N  
HETATM   25  O   UNL     1      -9.140  17.855  68.790  1.00  0.00    -0.280 OA 
ENDBRANCH  14  15
ENDBRANCH  13  14
ENDBRANCH   4  13
BRANCH   6  26
HETATM   26  N   UNL     1     -10.025   6.250  66.159  1.00  0.00    -0.399 N  
HETATM   27  O   UNL     1     -10.879   4.318  65.306  1.00  0.00    -0.225 OA 
HETATM   28  C   UNL     1      -9.989   4.860  65.958  1.00  0.00    -0.223 C  
HETATM   29  H   UNL     1     -10.861   6.683  65.766  1.00  0.00     0.000 HD 
BRANCH  28  30
HETATM   30  C   UNL     1      -9.009   3.967  66.671  1.00  0.00    -0.130 C  
BRANCH  30  31
HETATM   31  C   UNL     1      -8.702   4.044  68.105  1.00  0.00    -0.101 A  
HETATM   32  H2  UNL     1      -9.152   3.081  72.250  1.00  0.00     0.000 HD 
HETATM   33  C   UNL     1      -7.395   4.078  68.565  1.00  0.00    -0.055 A  
HETATM   34  H1  UNL     1     -10.702   3.137  71.408  1.00  0.00     0.000 HD 
HETATM   35  N   UNL     1      -9.642   3.743  69.104  1.00  0.00    -0.167 NA 
HETATM   36  N   UNL     1      -9.687   3.236  71.395  1.00  0.00    -0.163 NA 
HETATM   37  S   UNL     1      -7.337   3.735  70.240  1.00  0.00    -0.041 SA 
HETATM   38  C   UNL     1      -9.047   3.568  70.263  1.00  0.00    -0.132 A  
ENDBRANCH  30  31
BRANCH  30  39
HETATM   39  N   UNL     1      -8.177   3.195  66.056  1.00  0.00    -0.093 NA 
HETATM   40  H   UNL     1      -8.305   2.184  66.113  1.00  0.00     0.000 HD 
BRANCH  39  41
HETATM   41  O   UNL     1      -7.109   3.699  65.314  1.00  0.00    -0.063 OA 
HETATM   42  C   UNL     1      -6.808   3.236  64.012  1.00  0.00    -0.044 C  
ENDBRANCH  39  41
ENDBRANCH  30  39
ENDBRANCH  28  30
ENDBRANCH   6  26
TORSDOF 8
ENDMDL
MODEL      243
REMARK 921   NORMALIZED FREE ENERGY PREDICTED BY IDOCK:   -5.06 KCAL/MOL
REMARK 922        TOTAL FREE ENERGY PREDICTED BY IDOCK:   -8.69 KCAL/MOL
REMARK 923 INTER-LIGAND FREE ENERGY PREDICTED BY IDOCK:   -7.25 KCAL/MOL
REMARK 924 INTRA-LIGAND FREE ENERGY PREDICTED BY IDOCK:   -1.44 KCAL/MOL
REMARK 927      BINDING AFFINITY PREDICTED BY RF-SCORE:    0.00 PKD
ROOT
HETATM    1  C   UNL     1     -10.289   8.874  68.482  1.00  0.00    -0.198 C  
HETATM    2  S   UNL     1      -9.589   7.250  68.387  1.00  0.00    -0.140 SA 
HETATM    3  C   UNL     1     -10.183   6.418  69.907  1.00  0.00    -0.183 C  
HETATM    4  C   UNL     1     -11.127   7.144  70.824  1.00  0.00    -0.296 C  
HETATM    5  CA  UNL     1     -11.559   8.426  70.624  1.00  0.00    -0.191 C  
HETATM    6  CA  UNL     1      -9.635  10.321  68.549  1.00  0.00    -0.161 C  
HETATM    7  C   UNL     1     -10.843  10.570  69.505  1.00  0.00    -0.256 C  
HETATM    8  N   UNL     1     -11.052   9.234  69.641  1.00  0.00    -0.172 N  
HETATM    9  C   UNL     1     -12.630   8.983  71.525  1.00  0.00    -0.338 C  
HETATM   10  O   UNL     1     -11.230  11.536  70.118  1.00  0.00    -0.145 OA 
HETATM   11  O   UNL     1     -12.534  10.276  71.891  1.00  0.00    -0.374 OA 
HETATM   12  OXT UNL     1     -13.573   8.308  71.908  1.00  0.00    -0.346 OA 
ENDROOT
BRANCH   4  13
HETATM   13  C   UNL     1     -11.548   6.367  72.107  1.00  0.00    -0.313 C  
BRANCH  13  14
HETATM   14  S   UNL     1     -10.485   6.395  73.605  1.00  0.00    -0.287 SA 
BRANCH  14  15
HETATM   15  C   UNL     1      -8.886   5.794  73.105  1.00  0.00    -0.122 C  
HETATM   16  N   UNL     1      -8.676   4.547  73.348  1.00  0.00    -0.100 N  
HETATM   17  H   UNL     1      -9.417   3.937  73.690  1.00  0.00     0.000 HD 
HETATM   18  C   UNL     1      -8.071   8.128  72.478  1.00  0.00    -0.150 C  
HETATM   19  C   UNL     1      -7.398   4.077  73.125  1.00  0.00    -0.069 C  
HETATM   20  N   UNL     1      -7.938   6.687  72.595  1.00  0.00    -0.102 NA 
HETATM   21  C   UNL     1      -6.416   4.839  72.237  1.00  0.00    -0.038 C  
HETATM   22  O   UNL     1      -6.930   3.094  73.699  1.00  0.00    -0.034 OA 
HETATM   23  H   UNL     1      -5.925   6.836  71.953  1.00  0.00     0.000 HD 
HETATM   24  N   UNL     1      -6.663   6.188  72.227  1.00  0.00    -0.067 N  
HETATM   25  O   UNL     1      -5.483   4.319  71.646  1.00  0.00    -0.006 OA 
ENDBRANCH  14  15
ENDBRANCH  13  14
ENDBRANCH   4  13
BRANCH   6  26
HETATM   26  N   UNL     1      -8.333  10.895  69.125  1.00  0.00    -0.317 N  
HETATM   27  O   UNL     1      -6.508  12.213  69.472  1.00  0.00    -0.113 OA 
HETATM   28  C   UNL     1      -7.572  12.049  68.877  1.00  0.00    -0.016 C  
HETATM   29  H   UNL     1      -7.929  10.305  69.852  1.00  0.00     0.000 HD 
BRANCH  28  30
HETATM   30  C   UNL     1      -8.092  13.199  68.056  1.00  0.00    -0.157 C  
BRANCH  30  31
HETATM   31  C   UNL     1      -9.495  13.631  68.021  1.00  0.00    -0.209 A  
HETATM   32  H2  UNL     1     -12.779  16.286  68.713  1.00  0.00     0.000 HD 
HETATM   33  C   UNL     1     -10.290  13.422  66.906  1.00  0.00    -0.257 A  
HETATM   34  H1  UNL     1     -11.602  16.328  70.026  1.00  0.00     0.000 HD 
HETATM   35  N   UNL     1     -10.028  14.564  68.926  1.00  0.00    -0.226 NA 
HETATM   36  N   UNL     1     -11.910  15.952  69.129  1.00  0.00    -0.378 NA 
HETATM   37  S   UNL     1     -11.700  14.387  66.981  1.00  0.00    -0.398 SA 
HETATM   38  C   UNL     1     -11.182  15.022  68.493  1.00  0.00    -0.287 A  
ENDBRANCH  30  31
BRANCH  30  39
HETATM   39  N   UNL     1      -7.402  13.778  67.131  1.00  0.00    -0.331 NA 
HETATM   40  H   UNL     1      -7.640  13.606  66.155  1.00  0.00     0.000 HD 
BRANCH  39  41
HETATM   41  O   UNL     1      -6.339  14.632  67.427  1.00  0.00    -0.323 OA 
HETATM   42  C   UNL     1      -6.536  15.984  67.792  1.00  0.00    -0.154 C  
ENDBRANCH  39  41
ENDBRANCH  30  39
ENDBRANCH  28  30
ENDBRANCH   6  26
TORSDOF 8
ENDMDL
MODEL      244
REMARK 921   NORMALIZED FREE ENERGY PREDICTED BY IDOCK:   -5.06 KCAL/MOL
REMARK 922        TOTAL FREE ENERGY PREDICTED BY IDOCK:   -8.69 KCAL/MOL
REMARK 923 INTER-LIGAND FREE ENERGY PREDICTED BY IDOCK:   -6.12 KCAL/MOL
REMARK 924 INTRA-LIGAND FREE ENERGY PREDICTED BY IDOCK:   -2.56 KCAL/MOL
REMARK 927      BINDING AFFINITY PREDICTED BY RF-SCORE:    0.00 PKD
ROOT
HETATM    1  C   UNL     1      -7.441   7.065  66.956  1.00  0.00    -0.094 C  
HETATM    2  S   UNL     1      -5.724   7.498  67.017  1.00  0.00    -0.032 SA 
HETATM    3  C   UNL     1      -5.689   9.041  68.003  1.00  0.00    -0.038 C  
HETATM    4  C   UNL     1      -6.965   9.567  68.597  1.00  0.00    -0.064 C  
HETATM    5  CA  UNL     1      -8.191   8.985  68.423  1.00  0.00    -0.116 C  
HETATM    6  CA  UNL     1      -8.460   6.894  65.748  1.00  0.00    -0.146 C  
HETATM    7  C   UNL     1      -9.438   7.525  66.788  1.00  0.00    -0.179 C  
HETATM    8  N   UNL     1      -8.400   7.944  67.559  1.00  0.00    -0.123 N  
HETATM    9  C   UNL     1      -9.366   9.514  69.203  1.00  0.00    -0.163 C  
HETATM   10  O   UNL     1     -10.613   7.803  66.757  1.00  0.00    -0.331 OA 
HETATM   11  O   UNL     1     -10.561   9.563  68.582  1.00  0.00    -0.213 OA 
HETATM   12  OXT UNL     1      -9.265   9.872  70.366  1.00  0.00    -0.180 OA 
ENDROOT
BRANCH   4  13
HETATM   13  C   UNL     1      -6.838  10.903  69.389  1.00  0.00    -0.114 C  
BRANCH  13  14
HETATM   14  S   UNL     1      -5.432  12.042  69.075  1.00  0.00    -0.052 SA 
BRANCH  14  15
HETATM   15  C   UNL     1      -6.124  13.676  68.931  1.00  0.00    -0.088 C  
HETATM   16  N   UNL     1      -6.381  14.051  67.727  1.00  0.00    -0.166 N  
HETATM   17  H   UNL     1      -6.303  13.409  66.938  1.00  0.00     0.000 HD 
HETATM   18  C   UNL     1      -5.799  14.163  71.413  1.00  0.00    -0.187 C  
HETATM   19  C   UNL     1      -6.767  15.364  67.554  1.00  0.00    -0.181 C  
HETATM   20  N   UNL     1      -6.247  14.479  70.069  1.00  0.00    -0.148 NA 
HETATM   21  C   UNL     1      -7.290  16.198  68.722  1.00  0.00    -0.184 C  
HETATM   22  O   UNL     1      -6.617  15.979  66.497  1.00  0.00    -0.131 OA 
HETATM   23  H   UNL     1      -6.780  16.423  70.721  1.00  0.00     0.000 HD 
HETATM   24  N   UNL     1      -6.778  15.786  69.925  1.00  0.00    -0.131 N  
HETATM   25  O   UNL     1      -8.035  17.157  68.597  1.00  0.00    -0.248 OA 
ENDBRANCH  14  15
ENDBRANCH  13  14
ENDBRANCH   4  13
BRANCH   6  26
HETATM   26  N   UNL     1      -8.617   7.539  64.364  1.00  0.00    -0.353 N  
HETATM   27  O   UNL     1      -8.853   9.074  62.698  1.00  0.00    -0.212 OA 
HETATM   28  C   UNL     1      -8.644   8.861  63.891  1.00  0.00    -0.091 C  
HETATM   29  H   UNL     1      -8.726   6.851  63.619  1.00  0.00     0.000 HD 
BRANCH  28  30
HETATM   30  C   UNL     1      -8.234  10.032  64.743  1.00  0.00    -0.155 C  
BRANCH  30  31
HETATM   31  C   UNL     1      -9.170  10.919  65.447  1.00  0.00    -0.207 A  
HETATM   32  H2  UNL     1     -10.375  14.456  67.530  1.00  0.00     0.000 HD 
HETATM   33  C   UNL     1     -10.469  11.101  65.003  1.00  0.00    -0.293 A  
HETATM   34  H1  UNL     1      -8.730  13.970  67.943  1.00  0.00     0.000 HD 
HETATM   35  N   UNL     1      -8.751  11.887  66.374  1.00  0.00    -0.161 NA 
HETATM   36  N   UNL     1      -9.594  13.808  67.426  1.00  0.00    -0.223 NA 
HETATM   37  S   UNL     1     -11.170  12.477  65.737  1.00  0.00    -0.336 SA 
HETATM   38  C   UNL     1      -9.714  12.750  66.609  1.00  0.00    -0.252 A  
ENDBRANCH  30  31
BRANCH  30  39
HETATM   39  N   UNL     1      -7.035  10.510  64.761  1.00  0.00    -0.348 NA 
HETATM   40  H   UNL     1      -6.766  11.143  65.514  1.00  0.00     0.000 HD 
BRANCH  39  41
HETATM   41  O   UNL     1      -6.095  10.186  63.782  1.00  0.00    -0.125 OA 
HETATM   42  C   UNL     1      -5.235   9.070  63.901  1.00  0.00    -0.060 C  
ENDBRANCH  39  41
ENDBRANCH  30  39
ENDBRANCH  28  30
ENDBRANCH   6  26
TORSDOF 8
ENDMDL
MODEL      245
REMARK 921   NORMALIZED FREE ENERGY PREDICTED BY IDOCK:   -5.06 KCAL/MOL
REMARK 922        TOTAL FREE ENERGY PREDICTED BY IDOCK:   -8.68 KCAL/MOL
REMARK 923 INTER-LIGAND FREE ENERGY PREDICTED BY IDOCK:   -6.80 KCAL/MOL
REMARK 924 INTRA-LIGAND FREE ENERGY PREDICTED BY IDOCK:   -1.88 KCAL/MOL
REMARK 927      BINDING AFFINITY PREDICTED BY RF-SCORE:    0.00 PKD
ROOT
HETATM    1  C   UNL     1     -10.099  12.033  67.921  1.00  0.00    -0.195 C  
HETATM    2  S   UNL     1     -11.571  11.206  68.458  1.00  0.00    -0.305 SA 
HETATM    3  C   UNL     1     -10.955   9.826  69.493  1.00  0.00    -0.227 C  
HETATM    4  C   UNL     1      -9.481   9.699  69.752  1.00  0.00    -0.242 C  
HETATM    5  CA  UNL     1      -8.534  10.538  69.230  1.00  0.00    -0.129 C  
HETATM    6  CA  UNL     1      -9.488  12.305  66.480  1.00  0.00    -0.236 C  
HETATM    7  C   UNL     1      -8.155  12.056  67.252  1.00  0.00    -0.174 C  
HETATM    8  N   UNL     1      -8.825  11.491  68.291  1.00  0.00    -0.161 N  
HETATM    9  C   UNL     1      -7.107  10.405  69.695  1.00  0.00    -0.135 C  
HETATM   10  O   UNL     1      -6.992  12.071  66.925  1.00  0.00    -0.122 OA 
HETATM   11  O   UNL     1      -6.130  10.575  68.783  1.00  0.00    -0.041 OA 
HETATM   12  OXT UNL     1      -6.823  10.170  70.860  1.00  0.00    -0.338 OA 
ENDROOT
BRANCH   4  13
HETATM   13  C   UNL     1      -9.052   8.474  70.614  1.00  0.00    -0.160 C  
BRANCH  13  14
HETATM   14  S   UNL     1      -9.395   8.439  72.419  1.00  0.00    -0.279 SA 
BRANCH  14  15
HETATM   15  C   UNL     1      -9.882   6.772  72.811  1.00  0.00    -0.166 C  
HETATM   16  N   UNL     1      -8.940   6.027  73.273  1.00  0.00    -0.130 N  
HETATM   17  H   UNL     1      -8.022   6.407  73.505  1.00  0.00     0.000 HD 
HETATM   18  C   UNL     1     -12.210   7.093  71.821  1.00  0.00    -0.344 C  
HETATM   19  C   UNL     1      -9.231   4.689  73.440  1.00  0.00    -0.113 C  
HETATM   20  N   UNL     1     -11.177   6.341  72.510  1.00  0.00    -0.269 NA 
HETATM   21  C   UNL     1     -10.674   4.193  73.507  1.00  0.00    -0.227 C  
HETATM   22  O   UNL     1      -8.373   3.805  73.435  1.00  0.00    -0.086 OA 
HETATM   23  H   UNL     1     -12.436   4.637  72.503  1.00  0.00     0.000 HD 
HETATM   24  N   UNL     1     -11.534   5.001  72.809  1.00  0.00    -0.209 N  
HETATM   25  O   UNL     1     -11.018   3.166  74.070  1.00  0.00    -0.195 OA 
ENDBRANCH  14  15
ENDBRANCH  13  14
ENDBRANCH   4  13
BRANCH   6  26
HETATM   26  N   UNL     1      -9.508  11.561  65.137  1.00  0.00    -0.337 N  
HETATM   27  O   UNL     1      -9.277   9.950  63.544  1.00  0.00    -0.258 OA 
HETATM   28  C   UNL     1      -9.234  10.243  64.738  1.00  0.00    -0.241 C  
HETATM   29  H   UNL     1      -9.782  12.160  64.359  1.00  0.00     0.000 HD 
BRANCH  28  30
HETATM   30  C   UNL     1      -9.078   9.116  65.723  1.00  0.00    -0.213 C  
BRANCH  30  31
HETATM   31  C   UNL     1      -7.828   8.383  65.960  1.00  0.00    -0.098 A  
HETATM   32  H2  UNL     1      -5.213   5.690  68.014  1.00  0.00     0.000 HD 
HETATM   33  C   UNL     1      -7.122   7.799  64.921  1.00  0.00    -0.060 A  
HETATM   34  H1  UNL     1      -6.228   6.608  69.126  1.00  0.00     0.000 HD 
HETATM   35  N   UNL     1      -7.442   7.924  67.231  1.00  0.00    -0.091 NA 
HETATM   36  N   UNL     1      -5.932   6.395  68.173  1.00  0.00    -0.016 NA 
HETATM   37  S   UNL     1      -5.980   6.677  65.523  1.00  0.00    -0.035 SA 
HETATM   38  C   UNL     1      -6.479   7.035  67.129  1.00  0.00    -0.053 A  
ENDBRANCH  30  31
BRANCH  30  39
HETATM   39  N   UNL     1     -10.077   8.534  66.297  1.00  0.00    -0.441 NA 
HETATM   40  H   UNL     1     -10.815   9.106  66.706  1.00  0.00     0.000 HD 
BRANCH  39  41
HETATM   41  O   UNL     1     -10.178   7.144  66.375  1.00  0.00    -0.104 OA 
HETATM   42  C   UNL     1     -10.875   6.496  67.421  1.00  0.00    -0.373 C  
ENDBRANCH  39  41
ENDBRANCH  30  39
ENDBRANCH  28  30
ENDBRANCH   6  26
TORSDOF 8
ENDMDL
MODEL      246
REMARK 921   NORMALIZED FREE ENERGY PREDICTED BY IDOCK:   -5.05 KCAL/MOL
REMARK 922        TOTAL FREE ENERGY PREDICTED BY IDOCK:   -8.68 KCAL/MOL
REMARK 923 INTER-LIGAND FREE ENERGY PREDICTED BY IDOCK:   -7.04 KCAL/MOL
REMARK 924 INTRA-LIGAND FREE ENERGY PREDICTED BY IDOCK:   -1.64 KCAL/MOL
REMARK 927      BINDING AFFINITY PREDICTED BY RF-SCORE:    0.00 PKD
ROOT
HETATM    1  C   UNL     1      -7.564  10.627  68.743  1.00  0.00    -0.109 C  
HETATM    2  S   UNL     1      -7.085   9.873  70.273  1.00  0.00    -0.143 SA 
HETATM    3  C   UNL     1      -7.237   8.077  69.951  1.00  0.00    -0.061 C  
HETATM    4  C   UNL     1      -7.613   7.603  68.575  1.00  0.00    -0.110 C  
HETATM    5  CA  UNL     1      -7.894   8.434  67.525  1.00  0.00    -0.099 C  
HETATM    6  CA  UNL     1      -8.741  11.624  68.362  1.00  0.00    -0.158 C  
HETATM    7  C   UNL     1      -8.739  10.765  67.060  1.00  0.00    -0.136 C  
HETATM    8  N   UNL     1      -8.009   9.792  67.666  1.00  0.00    -0.105 N  
HETATM    9  C   UNL     1      -8.098   7.837  66.158  1.00  0.00    -0.113 C  
HETATM   10  O   UNL     1      -9.384  10.803  66.040  1.00  0.00    -0.174 OA 
HETATM   11  O   UNL     1      -9.047   8.380  65.371  1.00  0.00    -0.119 OA 
HETATM   12  OXT UNL     1      -7.423   6.906  65.748  1.00  0.00    -0.079 OA 
ENDROOT
BRANCH   4  13
HETATM   13  C   UNL     1      -7.751   6.059  68.410  1.00  0.00    -0.099 C  
BRANCH  13  14
HETATM   14  S   UNL     1      -9.409   5.269  68.382  1.00  0.00    -0.124 SA 
BRANCH  14  15
HETATM   15  C   UNL     1      -9.389   4.090  67.048  1.00  0.00    -0.183 C  
HETATM   16  N   UNL     1      -9.604   4.589  65.882  1.00  0.00    -0.172 N  
HETATM   17  H   UNL     1      -9.660   5.596  65.732  1.00  0.00     0.000 HD 
HETATM   18  C   UNL     1      -9.196   2.109  68.643  1.00  0.00    -0.169 C  
HETATM   19  C   UNL     1      -9.755   3.695  64.842  1.00  0.00    -0.172 C  
HETATM   20  N   UNL     1      -9.255   2.728  67.331  1.00  0.00    -0.182 NA 
HETATM   21  C   UNL     1      -9.265   2.252  64.957  1.00  0.00    -0.114 C  
HETATM   22  O   UNL     1     -10.381   3.954  63.813  1.00  0.00    -0.203 OA 
HETATM   23  H   UNL     1      -9.276   0.804  66.444  1.00  0.00     0.000 HD 
HETATM   24  N   UNL     1      -9.266   1.806  66.254  1.00  0.00    -0.022 N  
HETATM   25  O   UNL     1      -8.958   1.557  64.003  1.00  0.00    -0.086 OA 
ENDBRANCH  14  15
ENDBRANCH  13  14
ENDBRANCH   4  13
BRANCH   6  26
HETATM   26  N   UNL     1     -10.168  11.862  68.877  1.00  0.00    -0.391 N  
HETATM   27  O   UNL     1     -12.191  12.818  69.304  1.00  0.00    -0.208 OA 
HETATM   28  C   UNL     1     -11.126  12.873  68.692  1.00  0.00    -0.269 C  
HETATM   29  H   UNL     1     -10.495  11.117  69.492  1.00  0.00     0.000 HD 
BRANCH  28  30
HETATM   30  C   UNL     1     -10.990  13.929  67.628  1.00  0.00    -0.264 C  
BRANCH  30  31
HETATM   31  C   UNL     1     -11.410  13.762  66.230  1.00  0.00    -0.321 A  
HETATM   32  H2  UNL     1     -13.769  12.191  63.025  1.00  0.00     0.000 HD 
HETATM   33  C   UNL     1     -11.504  14.843  65.368  1.00  0.00    -0.320 A  
HETATM   34  H1  UNL     1     -13.464  10.987  64.278  1.00  0.00     0.000 HD 
HETATM   35  N   UNL     1     -12.065  12.611  65.763  1.00  0.00    -0.544 NA 
HETATM   36  N   UNL     1     -13.340  11.932  63.913  1.00  0.00    -0.528 NA 
HETATM   37  S   UNL     1     -12.407  14.428  63.977  1.00  0.00     0.014 SA 
HETATM   38  C   UNL     1     -12.617  12.836  64.591  1.00  0.00    -0.419 A  
ENDBRANCH  30  31
BRANCH  30  39
HETATM   39  N   UNL     1     -10.290  15.003  67.780  1.00  0.00    -0.243 NA 
HETATM   40  H   UNL     1      -9.380  15.069  67.325  1.00  0.00     0.000 HD 
BRANCH  39  41
HETATM   41  O   UNL     1     -10.740  16.076  68.549  1.00  0.00    -0.258 OA 
HETATM   42  C   UNL     1     -10.784  17.398  68.048  1.00  0.00    -0.359 C  
ENDBRANCH  39  41
ENDBRANCH  30  39
ENDBRANCH  28  30
ENDBRANCH   6  26
TORSDOF 8
ENDMDL
MODEL      247
REMARK 921   NORMALIZED FREE ENERGY PREDICTED BY IDOCK:   -5.05 KCAL/MOL
REMARK 922        TOTAL FREE ENERGY PREDICTED BY IDOCK:   -8.68 KCAL/MOL
REMARK 923 INTER-LIGAND FREE ENERGY PREDICTED BY IDOCK:   -7.20 KCAL/MOL
REMARK 924 INTRA-LIGAND FREE ENERGY PREDICTED BY IDOCK:   -1.48 KCAL/MOL
REMARK 927      BINDING AFFINITY PREDICTED BY RF-SCORE:    0.00 PKD
ROOT
HETATM    1  C   UNL     1     -10.691  12.954  69.205  1.00  0.00    -0.016 C  
HETATM    2  S   UNL     1     -10.190  11.264  69.022  1.00  0.00    -0.096 SA 
HETATM    3  C   UNL     1      -8.517  11.373  68.283  1.00  0.00    -0.154 C  
HETATM    4  C   UNL     1      -7.893  12.722  68.066  1.00  0.00    -0.150 C  
HETATM    5  CA  UNL     1      -8.510  13.910  68.352  1.00  0.00    -0.159 C  
HETATM    6  CA  UNL     1     -11.903  13.783  68.599  1.00  0.00    -0.374 C  
HETATM    7  C   UNL     1     -10.818  14.904  68.563  1.00  0.00    -0.247 C  
HETATM    8  N   UNL     1      -9.824  13.990  68.725  1.00  0.00    -0.185 N  
HETATM    9  C   UNL     1      -7.718  15.186  68.242  1.00  0.00    -0.117 C  
HETATM   10  O   UNL     1     -10.832  16.060  68.217  1.00  0.00    -0.290 OA 
HETATM   11  O   UNL     1      -8.347  16.276  67.760  1.00  0.00    -0.159 OA 
HETATM   12  OXT UNL     1      -6.550  15.259  68.591  1.00  0.00    -0.094 OA 
ENDROOT
BRANCH   4  13
HETATM   13  C   UNL     1      -6.484  12.712  67.400  1.00  0.00    -0.149 C  
BRANCH  13  14
HETATM   14  S   UNL     1      -5.430  11.209  67.473  1.00  0.00    -0.048 SA 
BRANCH  14  15
HETATM   15  C   UNL     1      -5.751  10.290  65.983  1.00  0.00    -0.080 C  
HETATM   16  N   UNL     1      -5.650  10.970  64.895  1.00  0.00    -0.321 N  
HETATM   17  H   UNL     1      -5.295  11.927  64.892  1.00  0.00     0.000 HD 
HETATM   18  C   UNL     1      -6.490   8.220  67.276  1.00  0.00    -0.058 C  
HETATM   19  C   UNL     1      -6.044  10.343  63.731  1.00  0.00    -0.088 C  
HETATM   20  N   UNL     1      -6.185   8.964  66.067  1.00  0.00    -0.055 NA 
HETATM   21  C   UNL     1      -6.168   8.822  63.651  1.00  0.00    -0.081 C  
HETATM   22  O   UNL     1      -6.425  10.952  62.731  1.00  0.00    -0.036 OA 
HETATM   23  H   UNL     1      -6.875   7.330  64.908  1.00  0.00     0.000 HD 
HETATM   24  N   UNL     1      -6.459   8.260  64.867  1.00  0.00    -0.056 N  
HETATM   25  O   UNL     1      -6.073   8.183  62.616  1.00  0.00    -0.080 OA 
ENDBRANCH  14  15
ENDBRANCH  13  14
ENDBRANCH   4  13
BRANCH   6  26
HETATM   26  N   UNL     1     -12.704  13.732  67.290  1.00  0.00    -0.148 N  
HETATM   27  O   UNL     1     -13.263  13.805  65.083  1.00  0.00    -0.757 OA 
HETATM   28  C   UNL     1     -12.370  13.816  65.928  1.00  0.00    -0.476 C  
HETATM   29  H   UNL     1     -13.704  13.609  67.444  1.00  0.00     0.000 HD 
BRANCH  28  30
HETATM   30  C   UNL     1     -10.950  13.724  65.438  1.00  0.00    -0.309 C  
BRANCH  30  31
HETATM   31  C   UNL     1     -10.300  12.485  64.991  1.00  0.00    -0.299 A  
HETATM   32  H2  UNL     1      -9.523   8.277  64.963  1.00  0.00     0.000 HD 
HETATM   33  C   UNL     1     -10.067  12.232  63.649  1.00  0.00    -0.344 A  
HETATM   34  H1  UNL     1      -9.830   8.886  66.590  1.00  0.00     0.000 HD 
HETATM   35  N   UNL     1     -10.186  11.347  65.807  1.00  0.00    -0.239 NA 
HETATM   36  N   UNL     1      -9.731   9.055  65.589  1.00  0.00    -0.195 NA 
HETATM   37  S   UNL     1      -9.708  10.578  63.402  1.00  0.00    -0.271 SA 
HETATM   38  C   UNL     1      -9.873  10.292  65.089  1.00  0.00    -0.321 A  
ENDBRANCH  30  31
BRANCH  30  39
HETATM   39  N   UNL     1     -10.092  14.680  65.570  1.00  0.00    -0.358 NA 
HETATM   40  H   UNL     1      -9.342  14.581  66.254  1.00  0.00     0.000 HD 
BRANCH  39  41
HETATM   41  O   UNL     1     -10.158  15.845  64.804  1.00  0.00    -0.332 OA 
HETATM   42  C   UNL     1     -11.279  16.707  64.838  1.00  0.00    -0.061 C  
ENDBRANCH  39  41
ENDBRANCH  30  39
ENDBRANCH  28  30
ENDBRANCH   6  26
TORSDOF 8
ENDMDL
MODEL      248
REMARK 921   NORMALIZED FREE ENERGY PREDICTED BY IDOCK:   -5.02 KCAL/MOL
REMARK 922        TOTAL FREE ENERGY PREDICTED BY IDOCK:   -8.62 KCAL/MOL
REMARK 923 INTER-LIGAND FREE ENERGY PREDICTED BY IDOCK:   -7.01 KCAL/MOL
REMARK 924 INTRA-LIGAND FREE ENERGY PREDICTED BY IDOCK:   -1.61 KCAL/MOL
REMARK 927      BINDING AFFINITY PREDICTED BY RF-SCORE:    0.00 PKD
ROOT
HETATM    1  C   UNL     1     -10.936   6.965  71.629  1.00  0.00    -0.234 C  
HETATM    2  S   UNL     1     -10.886   8.698  71.995  1.00  0.00    -0.356 SA 
HETATM    3  C   UNL     1     -10.537   9.484  70.378  1.00  0.00    -0.276 C  
HETATM    4  C   UNL     1     -10.451   8.630  69.145  1.00  0.00    -0.223 C  
HETATM    5  CA  UNL     1     -10.581   7.268  69.143  1.00  0.00    -0.208 C  
HETATM    6  CA  UNL     1     -10.068   5.736  72.140  1.00  0.00    -0.183 C  
HETATM    7  C   UNL     1     -10.264   5.279  70.661  1.00  0.00    -0.257 C  
HETATM    8  N   UNL     1     -10.652   6.529  70.293  1.00  0.00    -0.215 N  
HETATM    9  C   UNL     1     -10.638   6.544  67.823  1.00  0.00    -0.259 C  
HETATM   10  O   UNL     1      -9.913   4.304  70.041  1.00  0.00    -0.223 OA 
HETATM   11  O   UNL     1     -10.018   5.351  67.734  1.00  0.00    -0.142 OA 
HETATM   12  OXT UNL     1     -11.238   6.996  66.860  1.00  0.00    -0.302 OA 
ENDROOT
BRANCH   4  13
HETATM   13  C   UNL     1     -10.116   9.387  67.824  1.00  0.00    -0.198 C  
BRANCH  13  14
HETATM   14  S   UNL     1      -8.981  10.831  67.840  1.00  0.00    -0.142 SA 
BRANCH  14  15
HETATM   15  C   UNL     1     -10.008  12.284  67.909  1.00  0.00    -0.202 C  
HETATM   16  N   UNL     1     -10.176  12.774  69.087  1.00  0.00    -0.413 N  
HETATM   17  H   UNL     1      -9.658  12.421  69.892  1.00  0.00     0.000 HD 
HETATM   18  C   UNL     1     -10.629  12.107  65.441  1.00  0.00    -0.272 C  
HETATM   19  C   UNL     1     -11.089  13.800  69.209  1.00  0.00    -0.208 C  
HETATM   20  N   UNL     1     -10.643  12.737  66.749  1.00  0.00    -0.250 NA 
HETATM   21  C   UNL     1     -11.543  14.608  67.994  1.00  0.00    -0.340 C  
HETATM   22  O   UNL     1     -11.677  14.061  70.259  1.00  0.00    -0.277 OA 
HETATM   23  H   UNL     1     -12.030  14.166  66.025  1.00  0.00     0.000 HD 
HETATM   24  N   UNL     1     -11.476  13.882  66.833  1.00  0.00    -0.334 N  
HETATM   25  O   UNL     1     -11.968  15.751  68.053  1.00  0.00    -0.110 OA 
ENDBRANCH  14  15
ENDBRANCH  13  14
ENDBRANCH   4  13
BRANCH   6  26
HETATM   26  N   UNL     1      -8.614   5.554  72.598  1.00  0.00    -0.124 N  
HETATM   27  O   UNL     1      -6.355   5.770  72.790  1.00  0.00    -0.057 OA 
HETATM   28  C   UNL     1      -7.400   6.192  72.297  1.00  0.00    -0.093 C  
HETATM   29  H   UNL     1      -8.505   4.798  73.274  1.00  0.00     0.000 HD 
BRANCH  28  30
HETATM   30  C   UNL     1      -7.337   7.496  71.548  1.00  0.00    -0.075 C  
BRANCH  30  31
HETATM   31  C   UNL     1      -6.800   7.653  70.190  1.00  0.00    -0.050 A  
HETATM   32  H2  UNL     1      -6.380   6.742  66.031  1.00  0.00     0.000 HD 
HETATM   33  C   UNL     1      -6.610   8.904  69.626  1.00  0.00    -0.043 A  
HETATM   34  H1  UNL     1      -6.610   5.292  67.009  1.00  0.00     0.000 HD 
HETATM   35  N   UNL     1      -6.770   6.605  69.256  1.00  0.00    -0.054 NA 
HETATM   36  N   UNL     1      -6.513   6.305  66.943  1.00  0.00    -0.044 NA 
HETATM   37  S   UNL     1      -6.395   8.777  67.935  1.00  0.00    -0.057 SA 
HETATM   38  C   UNL     1      -6.558   7.069  68.046  1.00  0.00    -0.056 A  
ENDBRANCH  30  31
BRANCH  30  39
HETATM   39  N   UNL     1      -7.541   8.643  72.106  1.00  0.00    -0.293 NA 
HETATM   40  H   UNL     1      -8.167   9.309  71.653  1.00  0.00     0.000 HD 
BRANCH  39  41
HETATM   41  O   UNL     1      -6.930   9.000  73.308  1.00  0.00    -0.333 OA 
HETATM   42  C   UNL     1      -7.484   8.662  74.565  1.00  0.00    -0.110 C  
ENDBRANCH  39  41
ENDBRANCH  30  39
ENDBRANCH  28  30
ENDBRANCH   6  26
TORSDOF 8
ENDMDL
MODEL      249
REMARK 921   NORMALIZED FREE ENERGY PREDICTED BY IDOCK:   -5.01 KCAL/MOL
REMARK 922        TOTAL FREE ENERGY PREDICTED BY IDOCK:   -8.61 KCAL/MOL
REMARK 923 INTER-LIGAND FREE ENERGY PREDICTED BY IDOCK:   -7.72 KCAL/MOL
REMARK 924 INTRA-LIGAND FREE ENERGY PREDICTED BY IDOCK:   -0.89 KCAL/MOL
REMARK 927      BINDING AFFINITY PREDICTED BY RF-SCORE:    0.00 PKD
ROOT
HETATM    1  C   UNL     1     -10.811  13.188  65.073  1.00  0.00    -0.315 C  
HETATM    2  S   UNL     1     -12.258  14.005  64.457  1.00  0.00    -0.411 SA 
HETATM    3  C   UNL     1     -11.943  15.779  64.786  1.00  0.00     0.125 C  
HETATM    4  C   UNL     1     -10.625  16.197  65.375  1.00  0.00    -0.399 C  
HETATM    5  CA  UNL     1      -9.629  15.327  65.726  1.00  0.00    -0.324 C  
HETATM    6  CA  UNL     1     -10.598  12.099  66.210  1.00  0.00    -0.250 C  
HETATM    7  C   UNL     1      -9.299  12.932  66.444  1.00  0.00    -0.187 C  
HETATM    8  N   UNL     1      -9.795  13.968  65.717  1.00  0.00    -0.287 N  
HETATM    9  C   UNL     1      -8.295  15.882  66.152  1.00  0.00    -0.050 C  
HETATM   10  O   UNL     1      -8.374  12.826  67.212  1.00  0.00    -0.177 OA 
HETATM   11  O   UNL     1      -7.645  15.255  67.152  1.00  0.00    -0.203 OA 
HETATM   12  OXT UNL     1      -7.791  16.853  65.610  1.00  0.00    -0.187 OA 
ENDROOT
BRANCH   4  13
HETATM   13  C   UNL     1     -10.465  17.723  65.650  1.00  0.00    -0.128 C  
BRANCH  13  14
HETATM   14  S   UNL     1     -10.704  18.394  67.344  1.00  0.00    -0.277 SA 
BRANCH  14  15
HETATM   15  C   UNL     1      -9.144  19.095  67.838  1.00  0.00    -0.302 C  
HETATM   16  N   UNL     1      -8.791  20.145  67.183  1.00  0.00    -0.342 N  
HETATM   17  H   UNL     1      -9.420  20.599  66.521  1.00  0.00     0.000 HD 
HETATM   18  C   UNL     1      -8.638  17.157  69.418  1.00  0.00     0.345 C  
HETATM   19  C   UNL     1      -7.521  20.628  67.421  1.00  0.00    -0.337 C  
HETATM   20  N   UNL     1      -8.362  18.438  68.793  1.00  0.00    -0.277 NA 
HETATM   21  C   UNL     1      -6.745  20.237  68.678  1.00  0.00    -0.259 C  
HETATM   22  O   UNL     1      -6.890  21.301  66.606  1.00  0.00    -0.314 OA 
HETATM   23  H   UNL     1      -6.481  18.489  69.766  1.00  0.00     0.000 HD 
HETATM   24  N   UNL     1      -7.112  19.003  69.152  1.00  0.00    -0.317 N  
HETATM   25  O   UNL     1      -5.863  20.917  69.175  1.00  0.00    -0.360 OA 
ENDBRANCH  14  15
ENDBRANCH  13  14
ENDBRANCH   4  13
BRANCH   6  26
HETATM   26  N   UNL     1     -11.299  11.765  67.535  1.00  0.00    -0.296 N  
HETATM   27  O   UNL     1     -12.186  10.622  69.293  1.00  0.00    -0.280 OA 
HETATM   28  C   UNL     1     -11.515  10.584  68.264  1.00  0.00    -0.199 C  
HETATM   29  H   UNL     1     -11.698  12.587  67.988  1.00  0.00     0.000 HD 
BRANCH  28  30
HETATM   30  C   UNL     1     -10.799   9.299  67.949  1.00  0.00    -0.118 C  
BRANCH  30  31
HETATM   31  C   UNL     1     -10.139   8.445  68.946  1.00  0.00    -0.199 A  
HETATM   32  H2  UNL     1      -7.751   7.605  72.395  1.00  0.00     0.000 HD 
HETATM   33  C   UNL     1     -10.776   7.342  69.490  1.00  0.00    -0.232 A  
HETATM   34  H1  UNL     1      -7.133   8.979  71.477  1.00  0.00     0.000 HD 
HETATM   35  N   UNL     1      -9.004   8.852  69.665  1.00  0.00    -0.143 NA 
HETATM   36  N   UNL     1      -7.818   8.232  71.593  1.00  0.00    -0.104 NA 
HETATM   37  S   UNL     1      -9.963   6.810  70.897  1.00  0.00    -0.186 SA 
HETATM   38  C   UNL     1      -8.808   8.068  70.702  1.00  0.00    -0.143 A  
ENDBRANCH  30  31
BRANCH  30  39
HETATM   39  N   UNL     1     -10.500   8.930  66.748  1.00  0.00    -0.240 NA 
HETATM   40  H   UNL     1     -11.009   9.340  65.964  1.00  0.00     0.000 HD 
BRANCH  39  41
HETATM   41  O   UNL     1      -9.503   7.989  66.489  1.00  0.00    -0.190 OA 
HETATM   42  C   UNL     1      -8.422   8.256  65.617  1.00  0.00    -0.158 C  
ENDBRANCH  39  41
ENDBRANCH  30  39
ENDBRANCH  28  30
ENDBRANCH   6  26
TORSDOF 8
ENDMDL
MODEL      250
REMARK 921   NORMALIZED FREE ENERGY PREDICTED BY IDOCK:   -4.99 KCAL/MOL
REMARK 922        TOTAL FREE ENERGY PREDICTED BY IDOCK:   -8.59 KCAL/MOL
REMARK 923 INTER-LIGAND FREE ENERGY PREDICTED BY IDOCK:   -6.25 KCAL/MOL
REMARK 924 INTRA-LIGAND FREE ENERGY PREDICTED BY IDOCK:   -2.34 KCAL/MOL
REMARK 927      BINDING AFFINITY PREDICTED BY RF-SCORE:    0.00 PKD
ROOT
HETATM    1  C   UNL     1     -10.171   7.512  67.287  1.00  0.00    -0.267 C  
HETATM    2  S   UNL     1     -10.597   5.914  66.652  1.00  0.00    -0.220 SA 
HETATM    3  C   UNL     1      -9.071   4.926  66.869  1.00  0.00    -0.118 C  
HETATM    4  C   UNL     1      -7.883   5.544  67.551  1.00  0.00    -0.101 C  
HETATM    5  CA  UNL     1      -7.842   6.835  68.004  1.00  0.00    -0.113 C  
HETATM    6  CA  UNL     1     -10.120   8.952  66.619  1.00  0.00    -0.287 C  
HETATM    7  C   UNL     1      -8.879   9.090  67.554  1.00  0.00    -0.123 C  
HETATM    8  N   UNL     1      -8.831   7.744  67.740  1.00  0.00    -0.126 N  
HETATM    9  C   UNL     1      -6.655   7.284  68.815  1.00  0.00    -0.048 C  
HETATM   10  O   UNL     1      -8.097   9.984  67.767  1.00  0.00    -0.108 OA 
HETATM   11  O   UNL     1      -6.196   8.536  68.617  1.00  0.00    -0.044 OA 
HETATM   12  OXT UNL     1      -6.124   6.563  69.645  1.00  0.00    -0.021 OA 
ENDROOT
BRANCH   4  13
HETATM   13  C   UNL     1      -6.621   4.637  67.658  1.00  0.00    -0.047 C  
BRANCH  13  14
HETATM   14  S   UNL     1      -5.280   4.754  66.407  1.00  0.00    -0.009 SA 
BRANCH  14  15
HETATM   15  C   UNL     1      -5.797   5.979  65.222  1.00  0.00    -0.025 C  
HETATM   16  N   UNL     1      -5.512   7.193  65.539  1.00  0.00    -0.027 N  
HETATM   17  H   UNL     1      -4.930   7.413  66.347  1.00  0.00     0.000 HD 
HETATM   18  C   UNL     1      -7.049   4.260  63.813  1.00  0.00    -0.046 C  
HETATM   19  C   UNL     1      -6.032   8.184  64.732  1.00  0.00    -0.045 C  
HETATM   20  N   UNL     1      -6.550   5.591  64.109  1.00  0.00    -0.040 NA 
HETATM   21  C   UNL     1      -6.530   7.879  63.320  1.00  0.00    -0.068 C  
HETATM   22  O   UNL     1      -6.233   9.336  65.120  1.00  0.00    -0.066 OA 
HETATM   23  H   UNL     1      -7.607   6.342  62.434  1.00  0.00     0.000 HD 
HETATM   24  N   UNL     1      -6.972   6.587  63.193  1.00  0.00    -0.048 N  
HETATM   25  O   UNL     1      -6.581   8.703  62.421  1.00  0.00    -0.095 OA 
ENDBRANCH  14  15
ENDBRANCH  13  14
ENDBRANCH   4  13
BRANCH   6  26
HETATM   26  N   UNL     1      -9.824   9.482  65.208  1.00  0.00    -0.441 N  
HETATM   27  O   UNL     1      -9.550  10.870  63.424  1.00  0.00    -0.265 OA 
HETATM   28  C   UNL     1      -9.754  10.761  64.632  1.00  0.00    -0.289 C  
HETATM   29  H   UNL     1      -9.635   8.736  64.539  1.00  0.00     0.000 HD 
BRANCH  28  30
HETATM   30  C   UNL     1      -9.722  12.018  65.457  1.00  0.00    -0.202 C  
BRANCH  30  31
HETATM   31  C   UNL     1     -10.773  13.045  65.454  1.00  0.00    -0.291 A  
HETATM   32  H2  UNL     1     -13.104  16.237  63.815  1.00  0.00     0.000 HD 
HETATM   33  C   UNL     1     -12.032  12.795  65.975  1.00  0.00    -0.432 A  
HETATM   34  H1  UNL     1     -11.412  16.330  63.325  1.00  0.00     0.000 HD 
HETATM   35  N   UNL     1     -10.716  14.191  64.644  1.00  0.00    -0.415 NA 
HETATM   36  N   UNL     1     -12.155  15.865  63.848  1.00  0.00    -0.750 NA 
HETATM   37  S   UNL     1     -13.146  13.985  65.457  1.00  0.00     0.097 SA 
HETATM   38  C   UNL     1     -11.894  14.769  64.577  1.00  0.00    -0.419 A  
ENDBRANCH  30  31
BRANCH  30  39
HETATM   39  N   UNL     1      -8.669  12.430  66.082  1.00  0.00    -0.408 NA 
HETATM   40  H   UNL     1      -7.783  11.951  65.926  1.00  0.00     0.000 HD 
BRANCH  39  41
HETATM   41  O   UNL     1      -8.707  13.510  66.964  1.00  0.00    -0.216 OA 
HETATM   42  C   UNL     1      -8.705  13.338  68.368  1.00  0.00    -0.126 C  
ENDBRANCH  39  41
ENDBRANCH  30  39
ENDBRANCH  28  30
ENDBRANCH   6  26
TORSDOF 8
ENDMDL
MODEL      251
REMARK 921   NORMALIZED FREE ENERGY PREDICTED BY IDOCK:   -4.98 KCAL/MOL
REMARK 922        TOTAL FREE ENERGY PREDICTED BY IDOCK:   -8.56 KCAL/MOL
REMARK 923 INTER-LIGAND FREE ENERGY PREDICTED BY IDOCK:   -7.68 KCAL/MOL
REMARK 924 INTRA-LIGAND FREE ENERGY PREDICTED BY IDOCK:   -0.88 KCAL/MOL
REMARK 927      BINDING AFFINITY PREDICTED BY RF-SCORE:    0.00 PKD
ROOT
HETATM    1  C   UNL     1      -7.592  10.427  65.567  1.00  0.00    -0.144 C  
HETATM    2  S   UNL     1      -7.678  11.384  67.056  1.00  0.00    -0.159 SA 
HETATM    3  C   UNL     1      -7.976  10.141  68.368  1.00  0.00    -0.102 C  
HETATM    4  C   UNL     1      -8.003   8.682  68.009  1.00  0.00    -0.107 C  
HETATM    5  CA  UNL     1      -7.855   8.200  66.738  1.00  0.00    -0.095 C  
HETATM    6  CA  UNL     1      -8.463  10.432  64.239  1.00  0.00    -0.158 C  
HETATM    7  C   UNL     1      -8.205   8.896  64.339  1.00  0.00    -0.164 C  
HETATM    8  N   UNL     1      -7.819   9.014  65.637  1.00  0.00    -0.100 N  
HETATM    9  C   UNL     1      -7.739   6.713  66.532  1.00  0.00    -0.102 C  
HETATM   10  O   UNL     1      -8.519   7.956  63.649  1.00  0.00     0.025 OA 
HETATM   11  O   UNL     1      -8.340   6.179  65.450  1.00  0.00    -0.143 OA 
HETATM   12  OXT UNL     1      -7.109   5.998  67.296  1.00  0.00    -0.067 OA 
ENDROOT
BRANCH   4  13
HETATM   13  C   UNL     1      -8.298   7.705  69.188  1.00  0.00    -0.131 C  
BRANCH  13  14
HETATM   14  S   UNL     1      -8.415   8.332  70.911  1.00  0.00    -0.143 SA 
BRANCH  14  15
HETATM   15  C   UNL     1      -9.296   7.098  71.842  1.00  0.00    -0.138 C  
HETATM   16  N   UNL     1      -8.550   6.261  72.474  1.00  0.00    -0.121 N  
HETATM   17  H   UNL     1      -7.539   6.380  72.528  1.00  0.00     0.000 HD 
HETATM   18  C   UNL     1     -11.554   7.837  70.912  1.00  0.00    -0.274 C  
HETATM   19  C   UNL     1      -9.185   5.195  73.078  1.00  0.00    -0.123 C  
HETATM   20  N   UNL     1     -10.690   7.031  71.757  1.00  0.00    -0.216 NA 
HETATM   21  C   UNL     1     -10.684   5.225  73.369  1.00  0.00    -0.281 C  
HETATM   22  O   UNL     1      -8.627   4.124  73.317  1.00  0.00    -0.089 OA 
HETATM   23  H   UNL     1     -12.371   5.892  72.360  1.00  0.00     0.000 HD 
HETATM   24  N   UNL     1     -11.368   6.023  72.489  1.00  0.00    -0.293 N  
HETATM   25  O   UNL     1     -11.222   4.572  74.248  1.00  0.00    -0.218 OA 
ENDBRANCH  14  15
ENDBRANCH  13  14
ENDBRANCH   4  13
BRANCH   6  26
HETATM   26  N   UNL     1      -9.930  10.736  63.907  1.00  0.00    -0.321 N  
HETATM   27  O   UNL     1     -12.007  11.672  63.904  1.00  0.00    -0.345 OA 
HETATM   28  C   UNL     1     -10.845  11.726  64.303  1.00  0.00    -0.349 C  
HETATM   29  H   UNL     1     -10.333  10.067  63.251  1.00  0.00     0.000 HD 
BRANCH  28  30
HETATM   30  C   UNL     1     -10.421  12.968  65.041  1.00  0.00    -0.328 C  
BRANCH  30  31
HETATM   31  C   UNL     1     -10.565  13.168  66.488  1.00  0.00    -0.284 A  
HETATM   32  H2  UNL     1     -10.217  15.288  70.189  1.00  0.00     0.000 HD 
HETATM   33  C   UNL     1     -11.714  12.786  67.162  1.00  0.00    -0.380 A  
HETATM   34  H1  UNL     1      -8.838  15.575  69.126  1.00  0.00     0.000 HD 
HETATM   35  N   UNL     1      -9.745  14.041  67.223  1.00  0.00    -0.231 NA 
HETATM   36  N   UNL     1      -9.731  15.116  69.308  1.00  0.00    -0.230 NA 
HETATM   37  S   UNL     1     -11.776  13.515  68.708  1.00  0.00    -0.356 SA 
HETATM   38  C   UNL     1     -10.271  14.288  68.401  1.00  0.00    -0.245 A  
ENDBRANCH  30  31
BRANCH  30  39
HETATM   39  N   UNL     1     -10.095  14.068  64.447  1.00  0.00    -0.708 NA 
HETATM   40  H   UNL     1      -9.346  14.054  63.756  1.00  0.00     0.000 HD 
BRANCH  39  41
HETATM   41  O   UNL     1     -10.737  15.275  64.724  1.00  0.00    -0.410 OA 
HETATM   42  C   UNL     1     -12.031  15.571  64.237  1.00  0.00    -0.153 C  
ENDBRANCH  39  41
ENDBRANCH  30  39
ENDBRANCH  28  30
ENDBRANCH   6  26
TORSDOF 8
ENDMDL
MODEL      252
REMARK 921   NORMALIZED FREE ENERGY PREDICTED BY IDOCK:   -4.97 KCAL/MOL
REMARK 922        TOTAL FREE ENERGY PREDICTED BY IDOCK:   -8.56 KCAL/MOL
REMARK 923 INTER-LIGAND FREE ENERGY PREDICTED BY IDOCK:   -6.69 KCAL/MOL
REMARK 924 INTRA-LIGAND FREE ENERGY PREDICTED BY IDOCK:   -1.87 KCAL/MOL
REMARK 927      BINDING AFFINITY PREDICTED BY RF-SCORE:    0.00 PKD
ROOT
HETATM    1  C   UNL     1      -8.419  11.168  66.978  1.00  0.00    -0.146 C  
HETATM    2  S   UNL     1      -6.746  10.867  66.481  1.00  0.00    -0.135 SA 
HETATM    3  C   UNL     1      -6.247   9.401  67.460  1.00  0.00    -0.058 C  
HETATM    4  C   UNL     1      -7.255   8.730  68.348  1.00  0.00    -0.081 C  
HETATM    5  CA  UNL     1      -8.543   9.161  68.514  1.00  0.00    -0.129 C  
HETATM    6  CA  UNL     1      -9.123  12.410  67.675  1.00  0.00    -0.186 C  
HETATM    7  C   UNL     1      -9.921  11.269  68.379  1.00  0.00    -0.197 C  
HETATM    8  N   UNL     1      -8.998  10.346  68.000  1.00  0.00    -0.128 N  
HETATM    9  C   UNL     1      -9.501   8.309  69.303  1.00  0.00    -0.155 C  
HETATM   10  O   UNL     1     -10.816  11.262  69.190  1.00  0.00    -0.212 OA 
HETATM   11  O   UNL     1     -10.387   8.935  70.103  1.00  0.00    -0.193 OA 
HETATM   12  OXT UNL     1      -9.505   7.090  69.222  1.00  0.00    -0.148 OA 
ENDROOT
BRANCH   4  13
HETATM   13  C   UNL     1      -6.726   7.513  69.166  1.00  0.00    -0.048 C  
BRANCH  13  14
HETATM   14  S   UNL     1      -6.018   6.050  68.308  1.00  0.00    -0.021 SA 
BRANCH  14  15
HETATM   15  C   UNL     1      -7.296   5.419  67.242  1.00  0.00    -0.083 C  
HETATM   16  N   UNL     1      -8.159   4.660  67.821  1.00  0.00    -0.096 N  
HETATM   17  H   UNL     1      -8.168   4.535  68.833  1.00  0.00     0.000 HD 
HETATM   18  C   UNL     1      -6.187   6.372  65.151  1.00  0.00    -0.031 C  
HETATM   19  C   UNL     1      -9.071   4.022  67.006  1.00  0.00    -0.149 C  
HETATM   20  N   UNL     1      -7.241   5.677  65.869  1.00  0.00    -0.071 NA 
HETATM   21  C   UNL     1      -9.343   4.509  65.584  1.00  0.00    -0.164 C  
HETATM   22  O   UNL     1      -9.636   2.972  67.316  1.00  0.00    -0.154 OA 
HETATM   23  H   UNL     1      -8.180   5.230  64.023  1.00  0.00     0.000 HD 
HETATM   24  N   UNL     1      -8.257   5.143  65.036  1.00  0.00    -0.124 N  
HETATM   25  O   UNL     1     -10.385   4.312  64.981  1.00  0.00    -0.232 OA 
ENDBRANCH  14  15
ENDBRANCH  13  14
ENDBRANCH   4  13
BRANCH   6  26
HETATM   26  N   UNL     1      -8.678  13.486  68.675  1.00  0.00    -0.353 N  
HETATM   27  O   UNL     1      -8.341  15.493  69.697  1.00  0.00    -0.234 OA 
HETATM   28  C   UNL     1      -8.897  14.869  68.796  1.00  0.00    -0.183 C  
HETATM   29  H   UNL     1      -8.091  13.113  69.420  1.00  0.00     0.000 HD 
BRANCH  28  30
HETATM   30  C   UNL     1      -9.939  15.595  67.989  1.00  0.00    -0.222 C  
BRANCH  30  31
HETATM   31  C   UNL     1      -9.766  16.937  67.418  1.00  0.00    -0.247 A  
HETATM   32  H2  UNL     1      -9.744  21.216  67.445  1.00  0.00     0.000 HD 
HETATM   33  C   UNL     1      -8.704  17.237  66.580  1.00  0.00    -0.257 A  
HETATM   34  H1  UNL     1     -11.047  20.552  68.431  1.00  0.00     0.000 HD 
HETATM   35  N   UNL     1     -10.420  18.072  67.926  1.00  0.00    -0.395 NA 
HETATM   36  N   UNL     1     -10.250  20.409  67.810  1.00  0.00    -0.319 NA 
HETATM   37  S   UNL     1      -8.518  18.930  66.425  1.00  0.00    -0.266 SA 
HETATM   38  C   UNL     1      -9.862  19.170  67.470  1.00  0.00    -0.329 A  
ENDBRANCH  30  31
BRANCH  30  39
HETATM   39  N   UNL     1     -11.168  15.207  67.905  1.00  0.00    -0.318 NA 
HETATM   40  H   UNL     1     -11.690  15.399  67.050  1.00  0.00     0.000 HD 
BRANCH  39  41
HETATM   41  O   UNL     1     -11.803  14.532  68.948  1.00  0.00    -0.310 OA 
HETATM   42  C   UNL     1     -12.347  15.209  70.064  1.00  0.00    -0.315 C  
ENDBRANCH  39  41
ENDBRANCH  30  39
ENDBRANCH  28  30
ENDBRANCH   6  26
TORSDOF 8
ENDMDL
MODEL      253
REMARK 921   NORMALIZED FREE ENERGY PREDICTED BY IDOCK:   -4.96 KCAL/MOL
REMARK 922        TOTAL FREE ENERGY PREDICTED BY IDOCK:   -8.54 KCAL/MOL
REMARK 923 INTER-LIGAND FREE ENERGY PREDICTED BY IDOCK:   -7.70 KCAL/MOL
REMARK 924 INTRA-LIGAND FREE ENERGY PREDICTED BY IDOCK:   -0.83 KCAL/MOL
REMARK 927      BINDING AFFINITY PREDICTED BY RF-SCORE:    0.00 PKD
ROOT
HETATM    1  C   UNL     1     -10.336  13.018  68.426  1.00  0.00    -0.252 C  
HETATM    2  S   UNL     1     -11.803  12.044  68.235  1.00  0.00    -0.197 SA 
HETATM    3  C   UNL     1     -11.180  10.385  67.773  1.00  0.00    -0.237 C  
HETATM    4  C   UNL     1      -9.698  10.141  67.727  1.00  0.00    -0.176 C  
HETATM    5  CA  UNL     1      -8.752  11.098  67.976  1.00  0.00    -0.141 C  
HETATM    6  CA  UNL     1      -9.811  14.321  67.684  1.00  0.00    -0.224 C  
HETATM    7  C   UNL     1      -8.441  13.599  67.877  1.00  0.00    -0.177 C  
HETATM    8  N   UNL     1      -9.064  12.420  68.144  1.00  0.00    -0.197 N  
HETATM    9  C   UNL     1      -7.305  10.688  68.059  1.00  0.00    -0.088 C  
HETATM   10  O   UNL     1      -7.304  13.890  67.595  1.00  0.00    -0.147 OA 
HETATM   11  O   UNL     1      -6.385  11.526  67.543  1.00  0.00    -0.061 OA 
HETATM   12  OXT UNL     1      -6.954   9.646  68.589  1.00  0.00    -0.062 OA 
ENDROOT
BRANCH   4  13
HETATM   13  C   UNL     1      -9.265   8.708  67.290  1.00  0.00    -0.140 C  
BRANCH  13  14
HETATM   14  S   UNL     1     -10.525   7.404  66.996  1.00  0.00    -0.324 SA 
BRANCH  14  15
HETATM   15  C   UNL     1     -10.237   6.136  68.213  1.00  0.00    -0.175 C  
HETATM   16  N   UNL     1      -9.666   5.074  67.763  1.00  0.00    -0.146 N  
HETATM   17  H   UNL     1      -9.304   5.023  66.811  1.00  0.00     0.000 HD 
HETATM   18  C   UNL     1     -11.528   7.401  70.012  1.00  0.00    -0.065 C  
HETATM   19  C   UNL     1      -9.567   4.006  68.631  1.00  0.00    -0.120 C  
HETATM   20  N   UNL     1     -10.720   6.303  69.514  1.00  0.00    -0.267 NA 
HETATM   21  C   UNL     1      -9.708   4.195  70.141  1.00  0.00    -0.208 C  
HETATM   22  O   UNL     1      -9.474   2.837  68.256  1.00  0.00    -0.202 OA 
HETATM   23  H   UNL     1     -10.933   5.323  71.380  1.00  0.00     0.000 HD 
HETATM   24  N   UNL     1     -10.500   5.268  70.458  1.00  0.00    -0.262 N  
HETATM   25  O   UNL     1      -9.218   3.446  70.971  1.00  0.00    -0.102 OA 
ENDBRANCH  14  15
ENDBRANCH  13  14
ENDBRANCH   4  13
BRANCH   6  26
HETATM   26  N   UNL     1      -9.952  14.890  66.265  1.00  0.00    -0.267 N  
HETATM   27  O   UNL     1     -10.271  16.320  64.521  1.00  0.00     0.008 OA 
HETATM   28  C   UNL     1     -10.122  16.179  65.734  1.00  0.00    -0.363 C  
HETATM   29  H   UNL     1      -9.914  14.169  65.545  1.00  0.00     0.000 HD 
BRANCH  28  30
HETATM   30  C   UNL     1      -9.936  17.424  66.559  1.00  0.00    -0.311 C  
BRANCH  30  31
HETATM   31  C   UNL     1      -8.730  18.262  66.545  1.00  0.00    -0.274 A  
HETATM   32  H2  UNL     1      -6.261  21.567  67.681  1.00  0.00     0.000 HD 
HETATM   33  C   UNL     1      -7.461  17.706  66.535  1.00  0.00    -0.264 A  
HETATM   34  H1  UNL     1      -7.965  22.013  67.584  1.00  0.00     0.000 HD 
HETATM   35  N   UNL     1      -8.745  19.625  66.884  1.00  0.00    -0.309 NA 
HETATM   36  N   UNL     1      -7.230  21.312  67.488  1.00  0.00    -0.461 NA 
HETATM   37  S   UNL     1      -6.287  18.878  66.949  1.00  0.00    -0.183 SA 
HETATM   38  C   UNL     1      -7.526  20.059  67.110  1.00  0.00    -0.271 A  
ENDBRANCH  30  31
BRANCH  30  39
HETATM   39  N   UNL     1     -10.724  17.756  67.527  1.00  0.00    -0.353 NA 
HETATM   40  H   UNL     1     -11.609  18.214  67.309  1.00  0.00     0.000 HD 
BRANCH  39  41
HETATM   41  O   UNL     1     -10.402  17.508  68.862  1.00  0.00    -0.353 OA 
HETATM   42  C   UNL     1     -10.949  16.420  69.581  1.00  0.00    -0.329 C  
ENDBRANCH  39  41
ENDBRANCH  30  39
ENDBRANCH  28  30
ENDBRANCH   6  26
TORSDOF 8
ENDMDL
MODEL      254
REMARK 921   NORMALIZED FREE ENERGY PREDICTED BY IDOCK:   -4.95 KCAL/MOL
REMARK 922        TOTAL FREE ENERGY PREDICTED BY IDOCK:   -8.53 KCAL/MOL
REMARK 923 INTER-LIGAND FREE ENERGY PREDICTED BY IDOCK:   -7.34 KCAL/MOL
REMARK 924 INTRA-LIGAND FREE ENERGY PREDICTED BY IDOCK:   -1.19 KCAL/MOL
REMARK 927      BINDING AFFINITY PREDICTED BY RF-SCORE:    0.00 PKD
ROOT
HETATM    1  C   UNL     1      -9.511  10.911  68.276  1.00  0.00    -0.168 C  
HETATM    2  S   UNL     1      -7.797  10.753  68.698  1.00  0.00    -0.130 SA 
HETATM    3  C   UNL     1      -7.189  12.479  68.746  1.00  0.00    -0.089 C  
HETATM    4  C   UNL     1      -8.156  13.609  68.530  1.00  0.00    -0.118 C  
HETATM    5  CA  UNL     1      -9.486  13.441  68.259  1.00  0.00    -0.209 C  
HETATM    6  CA  UNL     1     -10.364  10.383  67.044  1.00  0.00    -0.240 C  
HETATM    7  C   UNL     1     -11.067  11.763  67.236  1.00  0.00    -0.287 C  
HETATM    8  N   UNL     1     -10.041  12.215  68.003  1.00  0.00    -0.198 N  
HETATM    9  C   UNL     1     -10.381  14.651  68.225  1.00  0.00    -0.230 C  
HETATM   10  O   UNL     1     -11.987  12.309  66.676  1.00  0.00    -0.598 OA 
HETATM   11  O   UNL     1     -11.356  14.686  67.296  1.00  0.00    -0.327 OA 
HETATM   12  OXT UNL     1     -10.258  15.573  69.018  1.00  0.00    -0.207 OA 
ENDROOT
BRANCH   4  13
HETATM   13  C   UNL     1      -7.536  15.039  68.555  1.00  0.00    -0.118 C  
BRANCH  13  14
HETATM   14  S   UNL     1      -7.198  15.935  66.987  1.00  0.00    -0.146 SA 
BRANCH  14  15
HETATM   15  C   UNL     1      -7.996  17.520  67.126  1.00  0.00    -0.209 C  
HETATM   16  N   UNL     1      -9.173  17.581  66.610  1.00  0.00    -0.255 N  
HETATM   17  H   UNL     1      -9.648  16.748  66.261  1.00  0.00     0.000 HD 
HETATM   18  C   UNL     1      -5.905  18.622  68.086  1.00  0.00    -0.195 C  
HETATM   19  C   UNL     1      -9.763  18.827  66.552  1.00  0.00    -0.354 C  
HETATM   20  N   UNL     1      -7.295  18.603  67.665  1.00  0.00    -0.223 NA 
HETATM   21  C   UNL     1      -9.272  19.979  67.427  1.00  0.00    -0.365 C  
HETATM   22  O   UNL     1     -10.632  19.126  65.732  1.00  0.00    -0.478 OA 
HETATM   23  H   UNL     1      -7.417  20.685  68.033  1.00  0.00     0.000 HD 
HETATM   24  N   UNL     1      -7.943  19.862  67.742  1.00  0.00    -0.287 N  
HETATM   25  O   UNL     1      -9.966  20.925  67.763  1.00  0.00    -0.271 OA 
ENDBRANCH  14  15
ENDBRANCH  13  14
ENDBRANCH   4  13
BRANCH   6  26
HETATM   26  N   UNL     1     -10.070  10.102  65.564  1.00  0.00    -0.289 N  
HETATM   27  O   UNL     1      -9.146   9.275  63.653  1.00  0.00    -0.136 OA 
HETATM   28  C   UNL     1      -9.209   9.228  64.880  1.00  0.00    -0.141 C  
HETATM   29  H   UNL     1     -10.625  10.681  64.935  1.00  0.00     0.000 HD 
BRANCH  28  30
HETATM   30  C   UNL     1      -8.495   8.095  65.568  1.00  0.00    -0.159 C  
BRANCH  30  31
HETATM   31  C   UNL     1      -7.619   7.129  64.893  1.00  0.00    -0.103 A  
HETATM   32  H2  UNL     1      -6.620   4.087  62.054  1.00  0.00     0.000 HD 
HETATM   33  C   UNL     1      -6.311   7.443  64.564  1.00  0.00    -0.040 A  
HETATM   34  H1  UNL     1      -8.261   3.904  62.674  1.00  0.00     0.000 HD 
HETATM   35  N   UNL     1      -8.107   5.989  64.233  1.00  0.00    -0.126 NA 
HETATM   36  N   UNL     1      -7.372   4.405  62.665  1.00  0.00    -0.040 NA 
HETATM   37  S   UNL     1      -5.687   6.322  63.433  1.00  0.00    -0.022 SA 
HETATM   38  C   UNL     1      -7.185   5.478  63.449  1.00  0.00    -0.049 A  
ENDBRANCH  30  31
BRANCH  30  39
HETATM   39  N   UNL     1      -8.757   7.723  66.777  1.00  0.00    -0.130 NA 
HETATM   40  H   UNL     1      -8.002   7.703  67.462  1.00  0.00     0.000 HD 
BRANCH  39  41
HETATM   41  O   UNL     1     -10.040   7.348  67.174  1.00  0.00    -0.195 OA 
HETATM   42  C   UNL     1     -10.349   6.030  67.584  1.00  0.00    -0.206 C  
ENDBRANCH  39  41
ENDBRANCH  30  39
ENDBRANCH  28  30
ENDBRANCH   6  26
TORSDOF 8
ENDMDL
MODEL      255
REMARK 921   NORMALIZED FREE ENERGY PREDICTED BY IDOCK:   -4.94 KCAL/MOL
REMARK 922        TOTAL FREE ENERGY PREDICTED BY IDOCK:   -8.51 KCAL/MOL
REMARK 923 INTER-LIGAND FREE ENERGY PREDICTED BY IDOCK:   -7.60 KCAL/MOL
REMARK 924 INTRA-LIGAND FREE ENERGY PREDICTED BY IDOCK:   -0.91 KCAL/MOL
REMARK 927      BINDING AFFINITY PREDICTED BY RF-SCORE:    0.00 PKD
ROOT
HETATM    1  C   UNL     1      -7.072  12.109  68.297  1.00  0.00    -0.084 C  
HETATM    2  S   UNL     1      -8.477  12.376  67.252  1.00  0.00    -0.188 SA 
HETATM    3  C   UNL     1      -9.047  14.060  67.692  1.00  0.00    -0.192 C  
HETATM    4  C   UNL     1      -8.262  14.868  68.687  1.00  0.00    -0.157 C  
HETATM    5  CA  UNL     1      -7.144  14.416  69.334  1.00  0.00    -0.113 C  
HETATM    6  CA  UNL     1      -6.765  11.033  69.425  1.00  0.00    -0.112 C  
HETATM    7  C   UNL     1      -6.067  12.263  70.085  1.00  0.00    -0.111 C  
HETATM    8  N   UNL     1      -6.715  13.118  69.251  1.00  0.00    -0.092 N  
HETATM    9  C   UNL     1      -6.355  15.377  70.183  1.00  0.00    -0.089 C  
HETATM   10  O   UNL     1      -5.452  12.414  71.113  1.00  0.00    -0.283 OA 
HETATM   11  O   UNL     1      -5.826  14.912  71.332  1.00  0.00     0.005 OA 
HETATM   12  OXT UNL     1      -6.171  16.538  69.851  1.00  0.00    -0.212 OA 
ENDROOT
BRANCH   4  13
HETATM   13  C   UNL     1      -8.845  16.274  69.022  1.00  0.00    -0.243 C  
BRANCH  13  14
HETATM   14  S   UNL     1     -10.611  16.655  68.684  1.00  0.00    -0.357 SA 
BRANCH  14  15
HETATM   15  C   UNL     1     -11.550  15.933  70.013  1.00  0.00    -0.344 C  
HETATM   16  N   UNL     1     -11.627  16.655  71.076  1.00  0.00    -0.487 N  
HETATM   17  H   UNL     1     -11.276  17.612  71.099  1.00  0.00     0.000 HD 
HETATM   18  C   UNL     1     -11.821  13.717  68.779  1.00  0.00    -0.363 C  
HETATM   19  C   UNL     1     -12.207  16.071  72.183  1.00  0.00    -0.516 C  
HETATM   20  N   UNL     1     -12.043  14.631  69.885  1.00  0.00    -0.319 NA 
HETATM   21  C   UNL     1     -13.097  14.836  72.055  1.00  0.00    -0.337 C  
HETATM   22  O   UNL     1     -11.966  16.424  73.338  1.00  0.00    -0.467 OA 
HETATM   23  H   UNL     1     -13.044  13.088  70.936  1.00  0.00     0.000 HD 
HETATM   24  N   UNL     1     -12.767  14.069  70.967  1.00  0.00    -0.346 N  
HETATM   25  O   UNL     1     -13.966  14.533  72.857  1.00  0.00    -0.536 OA 
ENDBRANCH  14  15
ENDBRANCH  13  14
ENDBRANCH   4  13
BRANCH   6  26
HETATM   26  N   UNL     1      -7.615  10.256  70.441  1.00  0.00    -0.204 N  
HETATM   27  O   UNL     1      -9.047   8.750  71.372  1.00  0.00    -0.201 OA 
HETATM   28  C   UNL     1      -8.421   9.107  70.376  1.00  0.00    -0.199 C  
HETATM   29  H   UNL     1      -7.589  10.668  71.373  1.00  0.00     0.000 HD 
BRANCH  28  30
HETATM   30  C   UNL     1      -8.405   8.175  69.195  1.00  0.00    -0.131 C  
BRANCH  30  31
HETATM   31  C   UNL     1      -8.276   8.603  67.796  1.00  0.00    -0.118 A  
HETATM   32  H2  UNL     1      -6.395   8.904  63.965  1.00  0.00     0.000 HD 
HETATM   33  C   UNL     1      -9.356   8.580  66.929  1.00  0.00    -0.172 A  
HETATM   34  H1  UNL     1      -5.225   8.942  65.284  1.00  0.00     0.000 HD 
HETATM   35  N   UNL     1      -7.036   8.728  67.148  1.00  0.00    -0.075 NA 
HETATM   36  N   UNL     1      -6.192   8.889  64.964  1.00  0.00    -0.064 NA 
HETATM   37  S   UNL     1      -8.830   8.711  65.307  1.00  0.00    -0.082 SA 
HETATM   38  C   UNL     1      -7.200   8.800  65.846  1.00  0.00    -0.084 A  
ENDBRANCH  30  31
BRANCH  30  39
HETATM   39  N   UNL     1      -8.726   6.926  69.274  1.00  0.00    -0.135 NA 
HETATM   40  H   UNL     1      -9.633   6.673  69.664  1.00  0.00     0.000 HD 
BRANCH  39  41
HETATM   41  O   UNL     1      -7.869   5.914  68.841  1.00  0.00    -0.092 OA 
HETATM   42  C   UNL     1      -8.294   4.890  67.962  1.00  0.00    -0.099 C  
ENDBRANCH  39  41
ENDBRANCH  30  39
ENDBRANCH  28  30
ENDBRANCH   6  26
TORSDOF 8
ENDMDL
MODEL      256
REMARK 921   NORMALIZED FREE ENERGY PREDICTED BY IDOCK:   -4.92 KCAL/MOL
REMARK 922        TOTAL FREE ENERGY PREDICTED BY IDOCK:   -8.49 KCAL/MOL
REMARK 923 INTER-LIGAND FREE ENERGY PREDICTED BY IDOCK:   -7.27 KCAL/MOL
REMARK 924 INTRA-LIGAND FREE ENERGY PREDICTED BY IDOCK:   -1.22 KCAL/MOL
REMARK 927      BINDING AFFINITY PREDICTED BY RF-SCORE:    0.00 PKD
ROOT
HETATM    1  C   UNL     1     -11.358  12.597  65.850  1.00  0.00    -0.334 C  
HETATM    2  S   UNL     1     -11.981  12.080  64.274  1.00  0.00    -0.307 SA 
HETATM    3  C   UNL     1     -10.561  11.227  63.492  1.00  0.00    -0.369 C  
HETATM    4  C   UNL     1      -9.286  11.054  64.268  1.00  0.00    -0.232 C  
HETATM    5  CA  UNL     1      -9.086  11.529  65.535  1.00  0.00    -0.090 C  
HETATM    6  CA  UNL     1     -11.181  14.029  66.515  1.00  0.00    -0.322 C  
HETATM    7  C   UNL     1      -9.893  13.352  67.080  1.00  0.00    -0.250 C  
HETATM    8  N   UNL     1      -9.983  12.348  66.168  1.00  0.00    -0.248 N  
HETATM    9  C   UNL     1      -7.825  11.150  66.265  1.00  0.00    -0.109 C  
HETATM   10  O   UNL     1      -9.010  13.732  67.811  1.00  0.00    -0.175 OA 
HETATM   11  O   UNL     1      -7.242  12.085  67.040  1.00  0.00    -0.143 OA 
HETATM   12  OXT UNL     1      -7.340  10.031  66.186  1.00  0.00    -0.100 OA 
ENDROOT
BRANCH   4  13
HETATM   13  C   UNL     1      -8.126  10.347  63.505  1.00  0.00    -0.116 C  
BRANCH  13  14
HETATM   14  S   UNL     1      -8.389   8.706  62.721  1.00  0.00    -0.140 SA 
BRANCH  14  15
HETATM   15  C   UNL     1      -7.936   7.485  63.934  1.00  0.00    -0.089 C  
HETATM   16  N   UNL     1      -8.733   7.400  64.941  1.00  0.00    -0.350 N  
HETATM   17  H   UNL     1      -9.614   7.912  64.971  1.00  0.00     0.000 HD 
HETATM   18  C   UNL     1      -5.720   6.982  62.775  1.00  0.00    -0.040 C  
HETATM   19  C   UNL     1      -8.337   6.583  65.980  1.00  0.00    -0.133 C  
HETATM   20  N   UNL     1      -6.734   6.785  63.796  1.00  0.00    -0.047 NA 
HETATM   21  C   UNL     1      -7.268   5.509  65.782  1.00  0.00    -0.068 C  
HETATM   22  O   UNL     1      -8.723   6.729  67.140  1.00  0.00    -0.118 OA 
HETATM   23  H   UNL     1      -5.464   5.391  64.762  1.00  0.00     0.000 HD 
HETATM   24  N   UNL     1      -6.382   5.835  64.788  1.00  0.00    -0.036 N  
HETATM   25  O   UNL     1      -7.178   4.501  66.465  1.00  0.00    -0.076 OA 
ENDBRANCH  14  15
ENDBRANCH  13  14
ENDBRANCH   4  13
BRANCH   6  26
HETATM   26  N   UNL     1     -10.889  15.440  65.985  1.00  0.00    -0.321 N  
HETATM   27  O   UNL     1     -10.399  17.662  65.882  1.00  0.00    -0.508 OA 
HETATM   28  C   UNL     1     -10.496  16.652  66.577  1.00  0.00    -0.262 C  
HETATM   29  H   UNL     1     -11.008  15.515  64.975  1.00  0.00     0.000 HD 
BRANCH  28  30
HETATM   30  C   UNL     1      -9.996  16.734  67.994  1.00  0.00    -0.272 C  
BRANCH  30  31
HETATM   31  C   UNL     1      -8.617  17.067  68.375  1.00  0.00    -0.243 A  
HETATM   32  H2  UNL     1      -4.662  16.271  69.799  1.00  0.00     0.000 HD 
HETATM   33  C   UNL     1      -7.845  17.933  67.617  1.00  0.00    -0.218 A  
HETATM   34  H1  UNL     1      -5.877  15.302  70.635  1.00  0.00     0.000 HD 
HETATM   35  N   UNL     1      -7.873  16.303  69.290  1.00  0.00    -0.225 NA 
HETATM   36  N   UNL     1      -5.638  16.010  69.941  1.00  0.00    -0.146 NA 
HETATM   37  S   UNL     1      -6.195  17.797  68.042  1.00  0.00    -0.169 SA 
HETATM   38  C   UNL     1      -6.596  16.603  69.212  1.00  0.00    -0.214 A  
ENDBRANCH  30  31
BRANCH  30  39
HETATM   39  N   UNL     1     -10.670  16.303  69.009  1.00  0.00    -0.278 NA 
HETATM   40  H   UNL     1     -10.277  16.409  69.944  1.00  0.00     0.000 HD 
BRANCH  39  41
HETATM   41  O   UNL     1     -11.918  15.696  68.864  1.00  0.00    -0.367 OA 
HETATM   42  C   UNL     1     -12.777  15.466  69.964  1.00  0.00    -0.154 C  
ENDBRANCH  39  41
ENDBRANCH  30  39
ENDBRANCH  28  30
ENDBRANCH   6  26
TORSDOF 8
ENDMDL
MODEL      257
REMARK 921   NORMALIZED FREE ENERGY PREDICTED BY IDOCK:   -4.92 KCAL/MOL
REMARK 922        TOTAL FREE ENERGY PREDICTED BY IDOCK:   -8.48 KCAL/MOL
REMARK 923 INTER-LIGAND FREE ENERGY PREDICTED BY IDOCK:   -6.35 KCAL/MOL
REMARK 924 INTRA-LIGAND FREE ENERGY PREDICTED BY IDOCK:   -2.13 KCAL/MOL
REMARK 927      BINDING AFFINITY PREDICTED BY RF-SCORE:    0.00 PKD
ROOT
HETATM    1  C   UNL     1      -8.365   6.957  65.250  1.00  0.00    -0.098 C  
HETATM    2  S   UNL     1      -6.861   6.272  64.613  1.00  0.00    -0.048 SA 
HETATM    3  C   UNL     1      -6.506   4.862  65.727  1.00  0.00    -0.040 C  
HETATM    4  C   UNL     1      -7.486   4.515  66.812  1.00  0.00    -0.082 C  
HETATM    5  CA  UNL     1      -8.637   5.212  67.061  1.00  0.00    -0.105 C  
HETATM    6  CA  UNL     1      -8.726   8.388  65.838  1.00  0.00    -0.169 C  
HETATM    7  C   UNL     1      -9.613   7.521  66.785  1.00  0.00    -0.206 C  
HETATM    8  N   UNL     1      -8.935   6.394  66.439  1.00  0.00    -0.150 N  
HETATM    9  C   UNL     1      -9.615   4.667  68.068  1.00  0.00    -0.155 C  
HETATM   10  O   UNL     1     -10.371   7.788  67.685  1.00  0.00    -0.206 OA 
HETATM   11  O   UNL     1     -10.251   5.547  68.866  1.00  0.00    -0.183 OA 
HETATM   12  OXT UNL     1      -9.854   3.473  68.162  1.00  0.00    -0.072 OA 
ENDROOT
BRANCH   4  13
HETATM   13  C   UNL     1      -7.079   3.322  67.729  1.00  0.00    -0.050 C  
BRANCH  13  14
HETATM   14  S   UNL     1      -6.058   3.607  69.230  1.00  0.00    -0.028 SA 
BRANCH  14  15
HETATM   15  C   UNL     1      -7.111   4.415  70.416  1.00  0.00    -0.045 C  
HETATM   16  N   UNL     1      -7.980   3.649  70.979  1.00  0.00    -0.061 N  
HETATM   17  H   UNL     1      -7.974   2.639  70.837  1.00  0.00     0.000 HD 
HETATM   18  C   UNL     1      -6.187   6.722  69.844  1.00  0.00    -0.034 C  
HETATM   19  C   UNL     1      -8.919   4.261  71.783  1.00  0.00    -0.120 C  
HETATM   20  N   UNL     1      -7.023   5.799  70.591  1.00  0.00    -0.056 NA 
HETATM   21  C   UNL     1      -8.695   5.668  72.336  1.00  0.00    -0.128 C  
HETATM   22  O   UNL     1     -10.027   3.777  72.017  1.00  0.00    -0.168 OA 
HETATM   23  H   UNL     1      -7.914   7.440  71.590  1.00  0.00     0.000 HD 
HETATM   24  N   UNL     1      -7.890   6.423  71.523  1.00  0.00    -0.100 N  
HETATM   25  O   UNL     1      -9.216   6.092  73.355  1.00  0.00    -0.132 OA 
ENDBRANCH  14  15
ENDBRANCH  13  14
ENDBRANCH   4  13
BRANCH   6  26
HETATM   26  N   UNL     1      -7.956   9.465  66.617  1.00  0.00    -0.108 N  
HETATM   27  O   UNL     1      -7.431  11.383  67.728  1.00  0.00    -0.092 OA 
HETATM   28  C   UNL     1      -8.305  10.688  67.212  1.00  0.00    -0.120 C  
HETATM   29  H   UNL     1      -6.967   9.241  66.727  1.00  0.00     0.000 HD 
BRANCH  28  30
HETATM   30  C   UNL     1      -9.736  11.105  67.422  1.00  0.00    -0.173 C  
BRANCH  30  31
HETATM   31  C   UNL     1     -10.633  11.575  66.358  1.00  0.00    -0.259 A  
HETATM   32  H2  UNL     1     -13.407  14.242  64.487  1.00  0.00     0.000 HD 
HETATM   33  C   UNL     1     -10.280  11.486  65.021  1.00  0.00    -0.280 A  
HETATM   34  H1  UNL     1     -13.657  14.138  66.230  1.00  0.00     0.000 HD 
HETATM   35  N   UNL     1     -11.714  12.438  66.598  1.00  0.00    -0.489 NA 
HETATM   36  N   UNL     1     -13.149  13.850  65.393  1.00  0.00    -0.740 NA 
HETATM   37  S   UNL     1     -11.292  12.476  64.063  1.00  0.00    -0.444 SA 
HETATM   38  C   UNL     1     -12.148  12.961  65.473  1.00  0.00    -0.458 A  
ENDBRANCH  30  31
BRANCH  30  39
HETATM   39  N   UNL     1     -10.252  11.304  68.589  1.00  0.00    -0.198 NA 
HETATM   40  H   UNL     1     -10.735  12.183  68.773  1.00  0.00     0.000 HD 
BRANCH  39  41
HETATM   41  O   UNL     1     -10.169  10.353  69.606  1.00  0.00    -0.232 OA 
HETATM   42  C   UNL     1     -11.269  10.039  70.439  1.00  0.00    -0.323 C  
ENDBRANCH  39  41
ENDBRANCH  30  39
ENDBRANCH  28  30
ENDBRANCH   6  26
TORSDOF 8
ENDMDL
MODEL      258
REMARK 921   NORMALIZED FREE ENERGY PREDICTED BY IDOCK:   -4.90 KCAL/MOL
REMARK 922        TOTAL FREE ENERGY PREDICTED BY IDOCK:   -8.45 KCAL/MOL
REMARK 923 INTER-LIGAND FREE ENERGY PREDICTED BY IDOCK:   -7.24 KCAL/MOL
REMARK 924 INTRA-LIGAND FREE ENERGY PREDICTED BY IDOCK:   -1.21 KCAL/MOL
REMARK 927      BINDING AFFINITY PREDICTED BY RF-SCORE:    0.00 PKD
ROOT
HETATM    1  C   UNL     1      -7.683  10.396  68.260  1.00  0.00    -0.096 C  
HETATM    2  S   UNL     1      -8.050   9.811  69.892  1.00  0.00    -0.188 SA 
HETATM    3  C   UNL     1      -7.814   7.998  69.778  1.00  0.00    -0.106 C  
HETATM    4  C   UNL     1      -7.321   7.397  68.492  1.00  0.00    -0.100 C  
HETATM    5  CA  UNL     1      -7.062   8.116  67.357  1.00  0.00    -0.083 C  
HETATM    6  CA  UNL     1      -8.552  11.173  67.180  1.00  0.00    -0.139 C  
HETATM    7  C   UNL     1      -7.745  10.255  66.209  1.00  0.00    -0.116 C  
HETATM    8  N   UNL     1      -7.374   9.444  67.235  1.00  0.00    -0.087 N  
HETATM    9  C   UNL     1      -6.418   7.421  66.187  1.00  0.00    -0.045 C  
HETATM   10  O   UNL     1      -7.723  10.136  65.008  1.00  0.00    -0.135 OA 
HETATM   11  O   UNL     1      -6.828   7.764  64.950  1.00  0.00    -0.050 OA 
HETATM   12  OXT UNL     1      -5.538   6.587  66.330  1.00  0.00    -0.013 OA 
ENDROOT
BRANCH   4  13
HETATM   13  C   UNL     1      -7.186   5.844  68.484  1.00  0.00    -0.083 C  
BRANCH  13  14
HETATM   14  S   UNL     1      -8.683   4.779  68.475  1.00  0.00    -0.099 SA 
BRANCH  14  15
HETATM   15  C   UNL     1      -9.367   4.850  70.116  1.00  0.00    -0.154 C  
HETATM   16  N   UNL     1     -10.346   5.674  70.260  1.00  0.00    -0.243 N  
HETATM   17  H   UNL     1     -10.765   6.151  69.462  1.00  0.00     0.000 HD 
HETATM   18  C   UNL     1      -7.553   3.331  71.068  1.00  0.00    -0.040 C  
HETATM   19  C   UNL     1     -10.802   5.880  71.546  1.00  0.00    -0.266 C  
HETATM   20  N   UNL     1      -8.766   4.124  71.149  1.00  0.00    -0.091 NA 
HETATM   21  C   UNL     1     -10.491   4.889  72.666  1.00  0.00    -0.206 C  
HETATM   22  O   UNL     1     -11.382   6.906  71.901  1.00  0.00    -0.245 OA 
HETATM   23  H   UNL     1      -8.832   3.780  73.238  1.00  0.00     0.000 HD 
HETATM   24  N   UNL     1      -9.315   4.217  72.454  1.00  0.00    -0.119 N  
HETATM   25  O   UNL     1     -11.179   4.749  73.665  1.00  0.00    -0.319 OA 
ENDBRANCH  14  15
ENDBRANCH  13  14
ENDBRANCH   4  13
BRANCH   6  26
HETATM   26  N   UNL     1     -10.042  11.210  66.812  1.00  0.00    -0.211 N  
HETATM   27  O   UNL     1     -12.230  11.828  66.677  1.00  0.00    -0.368 OA 
HETATM   28  C   UNL     1     -11.095  12.107  67.058  1.00  0.00    -0.294 C  
HETATM   29  H   UNL     1     -10.334  10.400  66.266  1.00  0.00     0.000 HD 
BRANCH  28  30
HETATM   30  C   UNL     1     -10.866  13.492  67.599  1.00  0.00    -0.260 C  
BRANCH  30  31
HETATM   31  C   UNL     1     -10.314  14.610  66.823  1.00  0.00    -0.268 A  
HETATM   32  H2  UNL     1     -10.447  18.295  64.653  1.00  0.00     0.000 HD 
HETATM   33  C   UNL     1      -9.108  15.202  67.162  1.00  0.00    -0.211 A  
HETATM   34  H1  UNL     1     -11.881  17.307  64.374  1.00  0.00     0.000 HD 
HETATM   35  N   UNL     1     -11.086  15.375  65.934  1.00  0.00    -0.292 NA 
HETATM   36  N   UNL     1     -10.973  17.437  64.820  1.00  0.00    -0.851 NA 
HETATM   37  S   UNL     1      -8.934  16.710  66.376  1.00  0.00    -0.304 SA 
HETATM   38  C   UNL     1     -10.464  16.491  65.623  1.00  0.00    -0.324 A  
ENDBRANCH  30  31
BRANCH  30  39
HETATM   39  N   UNL     1     -10.921  13.779  68.858  1.00  0.00    -0.249 NA 
HETATM   40  H   UNL     1     -10.154  13.491  69.465  1.00  0.00     0.000 HD 
BRANCH  39  41
HETATM   41  O   UNL     1     -11.998  14.471  69.412  1.00  0.00    -0.303 OA 
HETATM   42  C   UNL     1     -12.677  14.012  70.564  1.00  0.00    -0.280 C  
ENDBRANCH  39  41
ENDBRANCH  30  39
ENDBRANCH  28  30
ENDBRANCH   6  26
TORSDOF 8
ENDMDL
MODEL      259
REMARK 921   NORMALIZED FREE ENERGY PREDICTED BY IDOCK:   -4.87 KCAL/MOL
REMARK 922        TOTAL FREE ENERGY PREDICTED BY IDOCK:   -8.41 KCAL/MOL
REMARK 923 INTER-LIGAND FREE ENERGY PREDICTED BY IDOCK:   -7.52 KCAL/MOL
REMARK 924 INTRA-LIGAND FREE ENERGY PREDICTED BY IDOCK:   -0.89 KCAL/MOL
REMARK 927      BINDING AFFINITY PREDICTED BY RF-SCORE:    0.00 PKD
ROOT
HETATM    1  C   UNL     1      -9.104   9.416  66.403  1.00  0.00    -0.161 C  
HETATM    2  S   UNL     1     -10.158  10.521  65.503  1.00  0.00    -0.270 SA 
HETATM    3  C   UNL     1      -9.776  12.170  66.203  1.00  0.00    -0.240 C  
HETATM    4  C   UNL     1      -8.695  12.299  67.238  1.00  0.00    -0.188 C  
HETATM    5  CA  UNL     1      -7.980  11.246  67.739  1.00  0.00    -0.117 C  
HETATM    6  CA  UNL     1      -9.411   8.180  67.353  1.00  0.00    -0.141 C  
HETATM    7  C   UNL     1      -8.182   8.761  68.120  1.00  0.00    -0.114 C  
HETATM    8  N   UNL     1      -8.285   9.942  67.454  1.00  0.00    -0.117 N  
HETATM    9  C   UNL     1      -6.814  11.525  68.651  1.00  0.00    -0.077 C  
HETATM   10  O   UNL     1      -7.587   8.418  69.113  1.00  0.00    -0.084 OA 
HETATM   11  O   UNL     1      -6.614  10.688  69.688  1.00  0.00    -0.075 OA 
HETATM   12  OXT UNL     1      -6.052  12.461  68.464  1.00  0.00    -0.053 OA 
ENDROOT
BRANCH   4  13
HETATM   13  C   UNL     1      -8.468  13.736  67.798  1.00  0.00    -0.181 C  
BRANCH  13  14
HETATM   14  S   UNL     1      -9.874  14.704  68.478  1.00  0.00    -0.232 SA 
BRANCH  14  15
HETATM   15  C   UNL     1     -10.057  16.136  67.436  1.00  0.00    -0.257 C  
HETATM   16  N   UNL     1     -10.770  15.950  66.381  1.00  0.00    -0.291 N  
HETATM   17  H   UNL     1     -11.283  15.082  66.228  1.00  0.00     0.000 HD 
HETATM   18  C   UNL     1      -8.402  17.500  68.817  1.00  0.00    -0.219 C  
HETATM   19  C   UNL     1     -10.807  16.982  65.466  1.00  0.00    -0.069 C  
HETATM   20  N   UNL     1      -9.359  17.308  67.742  1.00  0.00    -0.247 NA 
HETATM   21  C   UNL     1     -10.412  18.405  65.858  1.00  0.00    -0.321 C  
HETATM   22  O   UNL     1     -11.046  16.816  64.270  1.00  0.00    -1.106 OA 
HETATM   23  H   UNL     1      -8.923  19.254  67.028  1.00  0.00     0.000 HD 
HETATM   24  N   UNL     1      -9.501  18.427  66.883  1.00  0.00    -0.281 N  
HETATM   25  O   UNL     1     -10.816  19.407  65.290  1.00  0.00    -0.477 OA 
ENDBRANCH  14  15
ENDBRANCH  13  14
ENDBRANCH   4  13
BRANCH   6  26
HETATM   26  N   UNL     1     -10.549   7.808  68.313  1.00  0.00    -0.363 N  
HETATM   27  O   UNL     1     -12.016   6.614  69.582  1.00  0.00    -0.189 OA 
HETATM   28  C   UNL     1     -11.012   6.606  68.872  1.00  0.00    -0.267 C  
HETATM   29  H   UNL     1     -11.092   8.617  68.613  1.00  0.00     0.000 HD 
BRANCH  28  30
HETATM   30  C   UNL     1     -10.222   5.326  68.804  1.00  0.00    -0.161 C  
BRANCH  30  31
HETATM   31  C   UNL     1      -9.585   4.804  67.588  1.00  0.00    -0.155 A  
HETATM   32  H2  UNL     1      -7.320   2.021  65.257  1.00  0.00     0.000 HD 
HETATM   33  C   UNL     1     -10.220   4.856  66.357  1.00  0.00    -0.278 A  
HETATM   34  H1  UNL     1      -6.695   2.177  66.899  1.00  0.00     0.000 HD 
HETATM   35  N   UNL     1      -8.488   3.927  67.618  1.00  0.00    -0.094 NA 
HETATM   36  N   UNL     1      -7.368   2.447  66.182  1.00  0.00    -0.065 NA 
HETATM   37  S   UNL     1      -9.454   3.814  65.239  1.00  0.00    -0.173 SA 
HETATM   38  C   UNL     1      -8.317   3.358  66.446  1.00  0.00    -0.102 A  
ENDBRANCH  30  31
BRANCH  30  39
HETATM   39  N   UNL     1     -10.212   4.448  69.751  1.00  0.00    -0.031 NA 
HETATM   40  H   UNL     1     -10.289   3.460  69.510  1.00  0.00     0.000 HD 
BRANCH  39  41
HETATM   41  O   UNL     1     -10.100   4.810  71.093  1.00  0.00    -0.197 OA 
HETATM   42  C   UNL     1      -9.075   4.305  71.928  1.00  0.00    -0.122 C  
ENDBRANCH  39  41
ENDBRANCH  30  39
ENDBRANCH  28  30
ENDBRANCH   6  26
TORSDOF 8
ENDMDL
MODEL      260
REMARK 921   NORMALIZED FREE ENERGY PREDICTED BY IDOCK:   -4.87 KCAL/MOL
REMARK 922        TOTAL FREE ENERGY PREDICTED BY IDOCK:   -8.40 KCAL/MOL
REMARK 923 INTER-LIGAND FREE ENERGY PREDICTED BY IDOCK:   -7.07 KCAL/MOL
REMARK 924 INTRA-LIGAND FREE ENERGY PREDICTED BY IDOCK:   -1.33 KCAL/MOL
REMARK 927      BINDING AFFINITY PREDICTED BY RF-SCORE:    0.00 PKD
ROOT
HETATM    1  C   UNL     1      -7.239   8.718  67.435  1.00  0.00    -0.080 C  
HETATM    2  S   UNL     1      -6.690   8.626  69.117  1.00  0.00    -0.048 SA 
HETATM    3  C   UNL     1      -6.783   6.842  69.520  1.00  0.00    -0.050 C  
HETATM    4  C   UNL     1      -7.180   5.864  68.450  1.00  0.00    -0.083 C  
HETATM    5  CA  UNL     1      -7.520   6.217  67.173  1.00  0.00    -0.084 C  
HETATM    6  CA  UNL     1      -8.462   9.462  66.747  1.00  0.00    -0.127 C  
HETATM    7  C   UNL     1      -8.463   8.165  65.878  1.00  0.00    -0.142 C  
HETATM    8  N   UNL     1      -7.681   7.520  66.784  1.00  0.00    -0.100 N  
HETATM    9  C   UNL     1      -7.739   5.133  66.151  1.00  0.00    -0.091 C  
HETATM   10  O   UNL     1      -9.137   7.791  64.949  1.00  0.00     0.344 OA 
HETATM   11  O   UNL     1      -8.730   5.306  65.254  1.00  0.00    -0.147 OA 
HETATM   12  OXT UNL     1      -7.042   4.131  66.107  1.00  0.00    -0.064 OA 
ENDROOT
BRANCH   4  13
HETATM   13  C   UNL     1      -7.264   4.374  68.899  1.00  0.00    -0.052 C  
BRANCH  13  14
HETATM   14  S   UNL     1      -8.868   3.649  69.427  1.00  0.00    -0.105 SA 
BRANCH  14  15
HETATM   15  C   UNL     1      -9.717   4.912  70.350  1.00  0.00    -0.214 C  
HETATM   16  N   UNL     1      -9.624   4.804  71.629  1.00  0.00    -0.151 N  
HETATM   17  H   UNL     1      -9.010   4.115  72.064  1.00  0.00     0.000 HD 
HETATM   18  C   UNL     1     -10.780   5.899  68.251  1.00  0.00    -0.243 C  
HETATM   19  C   UNL     1     -10.395   5.664  72.384  1.00  0.00    -0.203 C  
HETATM   20  N   UNL     1     -10.500   5.855  69.675  1.00  0.00    -0.247 NA 
HETATM   21  C   UNL     1     -10.974   6.944  71.784  1.00  0.00    -0.230 C  
HETATM   22  O   UNL     1     -10.758   5.413  73.533  1.00  0.00    -0.246 OA 
HETATM   23  H   UNL     1     -11.843   7.465  69.973  1.00  0.00     0.000 HD 
HETATM   24  N   UNL     1     -11.187   6.836  70.434  1.00  0.00    -0.304 N  
HETATM   25  O   UNL     1     -11.265   7.933  72.438  1.00  0.00    -0.295 OA 
ENDBRANCH  14  15
ENDBRANCH  13  14
ENDBRANCH   4  13
BRANCH   6  26
HETATM   26  N   UNL     1      -9.882   9.846  67.186  1.00  0.00    -0.178 N  
HETATM   27  O   UNL     1     -11.732  11.057  67.733  1.00  0.00    -0.573 OA 
HETATM   28  C   UNL     1     -10.593  11.055  67.270  1.00  0.00    -0.245 C  
HETATM   29  H   UNL     1     -10.434   9.043  67.486  1.00  0.00     0.000 HD 
BRANCH  28  30
HETATM   30  C   UNL     1     -10.100  12.327  66.636  1.00  0.00    -0.215 C  
BRANCH  30  31
HETATM   31  C   UNL     1     -10.935  13.250  65.856  1.00  0.00    -0.274 A  
HETATM   32  H2  UNL     1     -11.756  16.717  63.488  1.00  0.00     0.000 HD 
HETATM   33  C   UNL     1     -11.889  12.786  64.965  1.00  0.00    -0.382 A  
HETATM   34  H1  UNL     1     -10.568  17.041  64.751  1.00  0.00     0.000 HD 
HETATM   35  N   UNL     1     -10.616  14.607  65.683  1.00  0.00    -0.312 NA 
HETATM   36  N   UNL     1     -11.203  16.395  64.282  1.00  0.00    -0.917 NA 
HETATM   37  S   UNL     1     -12.389  14.036  63.912  1.00  0.00    -0.047 SA 
HETATM   38  C   UNL     1     -11.318  15.125  64.701  1.00  0.00    -0.356 A  
ENDBRANCH  30  31
BRANCH  30  39
HETATM   39  N   UNL     1      -8.848  12.624  66.525  1.00  0.00    -0.408 NA 
HETATM   40  H   UNL     1      -8.485  12.903  65.614  1.00  0.00     0.000 HD 
BRANCH  39  41
HETATM   41  O   UNL     1      -7.976  12.574  67.614  1.00  0.00    -0.145 OA 
HETATM   42  C   UNL     1      -8.078  13.471  68.703  1.00  0.00    -0.055 C  
ENDBRANCH  39  41
ENDBRANCH  30  39
ENDBRANCH  28  30
ENDBRANCH   6  26
TORSDOF 8
ENDMDL
MODEL      261
REMARK 921   NORMALIZED FREE ENERGY PREDICTED BY IDOCK:   -4.85 KCAL/MOL
REMARK 922        TOTAL FREE ENERGY PREDICTED BY IDOCK:   -8.38 KCAL/MOL
REMARK 923 INTER-LIGAND FREE ENERGY PREDICTED BY IDOCK:   -6.71 KCAL/MOL
REMARK 924 INTRA-LIGAND FREE ENERGY PREDICTED BY IDOCK:   -1.67 KCAL/MOL
REMARK 927      BINDING AFFINITY PREDICTED BY RF-SCORE:    0.00 PKD
ROOT
HETATM    1  C   UNL     1     -10.965   7.687  67.669  1.00  0.00     0.011 C  
HETATM    2  S   UNL     1     -10.642   5.988  67.284  1.00  0.00    -0.326 SA 
HETATM    3  C   UNL     1     -10.262   5.227  68.906  1.00  0.00    -0.178 C  
HETATM    4  C   UNL     1     -10.364   6.059  70.153  1.00  0.00    -0.284 C  
HETATM    5  CA  UNL     1     -10.694   7.387  70.166  1.00  0.00    -0.242 C  
HETATM    6  CA  UNL     1     -10.262   9.039  67.221  1.00  0.00    -0.256 C  
HETATM    7  C   UNL     1     -10.597   9.432  68.694  1.00  0.00    -0.200 C  
HETATM    8  N   UNL     1     -10.815   8.131  69.024  1.00  0.00    -0.069 N  
HETATM    9  C   UNL     1     -10.922   8.067  71.491  1.00  0.00    -0.234 C  
HETATM   10  O   UNL     1     -10.425  10.434  69.344  1.00  0.00    -0.211 OA 
HETATM   11  O   UNL     1     -10.490   9.336  71.628  1.00  0.00    -0.344 OA 
HETATM   12  OXT UNL     1     -11.496   7.513  72.415  1.00  0.00    -0.284 OA 
ENDROOT
BRANCH   4  13
HETATM   13  C   UNL     1      -9.988   5.332  71.479  1.00  0.00    -0.182 C  
BRANCH  13  14
HETATM   14  S   UNL     1      -8.250   5.321  72.075  1.00  0.00    -0.119 SA 
BRANCH  14  15
HETATM   15  C   UNL     1      -7.271   4.606  70.771  1.00  0.00    -0.045 C  
HETATM   16  N   UNL     1      -7.054   3.343  70.887  1.00  0.00    -0.033 N  
HETATM   17  H   UNL     1      -7.512   2.785  71.607  1.00  0.00     0.000 HD 
HETATM   18  C   UNL     1      -6.785   6.882  69.726  1.00  0.00    -0.049 C  
HETATM   19  C   UNL     1      -6.170   2.779  69.989  1.00  0.00    -0.024 C  
HETATM   20  N   UNL     1      -6.718   5.433  69.788  1.00  0.00    -0.052 NA 
HETATM   21  C   UNL     1      -5.814   3.480  68.679  1.00  0.00    -0.023 C  
HETATM   22  O   UNL     1      -5.533   1.752  70.223  1.00  0.00    -0.010 OA 
HETATM   23  H   UNL     1      -5.425   5.438  68.110  1.00  0.00     0.000 HD 
HETATM   24  N   UNL     1      -5.921   4.844  68.774  1.00  0.00    -0.024 N  
HETATM   25  O   UNL     1      -5.426   2.900  67.678  1.00  0.00    -0.016 OA 
ENDBRANCH  14  15
ENDBRANCH  13  14
ENDBRANCH   4  13
BRANCH   6  26
HETATM   26  N   UNL     1      -8.830   9.442  66.842  1.00  0.00    -0.127 N  
HETATM   27  O   UNL     1      -7.038  10.613  66.064  1.00  0.00    -0.128 OA 
HETATM   28  C   UNL     1      -8.238  10.610  66.333  1.00  0.00    -0.146 C  
HETATM   29  H   UNL     1      -8.156   8.692  66.994  1.00  0.00     0.000 HD 
BRANCH  28  30
HETATM   30  C   UNL     1      -8.964  11.927  66.283  1.00  0.00    -0.157 C  
BRANCH  30  31
HETATM   31  C   UNL     1     -10.260  12.141  65.627  1.00  0.00    -0.256 A  
HETATM   32  H2  UNL     1     -13.657  14.402  64.339  1.00  0.00     0.000 HD 
HETATM   33  C   UNL     1     -10.555  11.568  64.400  1.00  0.00    -0.334 A  
HETATM   34  H1  UNL     1     -13.080  14.914  65.925  1.00  0.00     0.000 HD 
HETATM   35  N   UNL     1     -11.137  13.177  65.989  1.00  0.00    -0.278 NA 
HETATM   36  N   UNL     1     -13.003  14.299  65.115  1.00  0.00    -0.676 NA 
HETATM   37  S   UNL     1     -11.921  12.318  63.697  1.00  0.00    -0.565 SA 
HETATM   38  C   UNL     1     -12.051  13.355  65.062  1.00  0.00    -0.401 A  
ENDBRANCH  30  31
BRANCH  30  39
HETATM   39  N   UNL     1      -8.418  13.050  66.615  1.00  0.00    -0.425 NA 
HETATM   40  H   UNL     1      -8.332  13.785  65.913  1.00  0.00     0.000 HD 
BRANCH  39  41
HETATM   41  O   UNL     1      -7.942  13.288  67.905  1.00  0.00    -0.130 OA 
HETATM   42  C   UNL     1      -8.737  13.900  68.901  1.00  0.00     0.106 C  
ENDBRANCH  39  41
ENDBRANCH  30  39
ENDBRANCH  28  30
ENDBRANCH   6  26
TORSDOF 8
ENDMDL
MODEL      262
REMARK 921   NORMALIZED FREE ENERGY PREDICTED BY IDOCK:   -4.85 KCAL/MOL
REMARK 922        TOTAL FREE ENERGY PREDICTED BY IDOCK:   -8.38 KCAL/MOL
REMARK 923 INTER-LIGAND FREE ENERGY PREDICTED BY IDOCK:   -6.68 KCAL/MOL
REMARK 924 INTRA-LIGAND FREE ENERGY PREDICTED BY IDOCK:   -1.71 KCAL/MOL
REMARK 927      BINDING AFFINITY PREDICTED BY RF-SCORE:    0.00 PKD
ROOT
HETATM    1  C   UNL     1      -6.807   8.973  71.387  1.00  0.00    -0.066 C  
HETATM    2  S   UNL     1      -6.834  10.124  70.040  1.00  0.00    -0.149 SA 
HETATM    3  C   UNL     1      -8.603  10.228  69.578  1.00  0.00    -0.138 C  
HETATM    4  C   UNL     1      -9.621   9.474  70.385  1.00  0.00    -0.326 C  
HETATM    5  CA  UNL     1      -9.317   8.665  71.445  1.00  0.00    -0.236 C  
HETATM    6  CA  UNL     1      -6.097   7.565  71.579  1.00  0.00    -0.036 C  
HETATM    7  C   UNL     1      -7.424   7.259  72.341  1.00  0.00    -0.083 C  
HETATM    8  N   UNL     1      -8.031   8.340  71.784  1.00  0.00    -0.117 N  
HETATM    9  C   UNL     1     -10.440   8.095  72.272  1.00  0.00    -0.302 C  
HETATM   10  O   UNL     1      -7.838   6.289  72.930  1.00  0.00    -0.103 OA 
HETATM   11  O   UNL     1     -10.306   6.834  72.728  1.00  0.00    -0.192 OA 
HETATM   12  OXT UNL     1     -11.437   8.743  72.549  1.00  0.00    -0.306 OA 
ENDROOT
BRANCH   4  13
HETATM   13  C   UNL     1     -11.095   9.597  69.892  1.00  0.00    -0.235 C  
BRANCH  13  14
HETATM   14  S   UNL     1     -11.557  10.863  68.643  1.00  0.00    -0.266 SA 
BRANCH  14  15
HETATM   15  C   UNL     1     -11.816  12.383  69.532  1.00  0.00    -0.303 C  
HETATM   16  N   UNL     1     -11.231  13.413  69.027  1.00  0.00    -0.268 N  
HETATM   17  H   UNL     1     -10.760  13.371  68.123  1.00  0.00     0.000 HD 
HETATM   18  C   UNL     1     -13.033  11.201  71.437  1.00  0.00    -0.403 C  
HETATM   19  C   UNL     1     -11.272  14.576  69.767  1.00  0.00    -0.234 C  
HETATM   20  N   UNL     1     -12.518  12.367  70.741  1.00  0.00    -0.324 NA 
HETATM   21  C   UNL     1     -12.300  14.774  70.879  1.00  0.00    -0.319 C  
HETATM   22  O   UNL     1     -10.433  15.472  69.665  1.00  0.00    -0.246 OA 
HETATM   23  H   UNL     1     -13.107  13.581  72.374  1.00  0.00     0.000 HD 
HETATM   24  N   UNL     1     -12.690  13.587  71.444  1.00  0.00    -0.350 N  
HETATM   25  O   UNL     1     -12.692  15.865  71.262  1.00  0.00    -0.467 OA 
ENDBRANCH  14  15
ENDBRANCH  13  14
ENDBRANCH   4  13
BRANCH   6  26
HETATM   26  N   UNL     1      -5.707   6.412  70.643  1.00  0.00    -0.022 N  
HETATM   27  O   UNL     1      -5.822   4.660  69.192  1.00  0.00    -0.016 OA 
HETATM   28  C   UNL     1      -6.419   5.557  69.784  1.00  0.00    -0.041 C  
HETATM   29  H   UNL     1      -4.705   6.224  70.645  1.00  0.00     0.000 HD 
BRANCH  28  30
HETATM   30  C   UNL     1      -7.852   5.808  69.401  1.00  0.00    -0.093 C  
BRANCH  30  31
HETATM   31  C   UNL     1      -8.288   6.778  68.388  1.00  0.00    -0.123 A  
HETATM   32  H2  UNL     1      -7.966   9.077  64.794  1.00  0.00     0.000 HD 
HETATM   33  C   UNL     1      -9.598   6.818  67.939  1.00  0.00    -0.120 A  
HETATM   34  H1  UNL     1      -6.411   8.892  65.606  1.00  0.00     0.000 HD 
HETATM   35  N   UNL     1      -7.389   7.477  67.565  1.00  0.00    -0.100 NA 
HETATM   36  N   UNL     1      -7.415   8.717  65.574  1.00  0.00    -0.085 NA 
HETATM   37  S   UNL     1      -9.712   7.723  66.493  1.00  0.00    -0.159 SA 
HETATM   38  C   UNL     1      -8.019   8.018  66.547  1.00  0.00    -0.102 A  
ENDBRANCH  30  31
BRANCH  30  39
HETATM   39  N   UNL     1      -8.855   5.359  70.079  1.00  0.00    -0.124 NA 
HETATM   40  H   UNL     1      -9.525   6.022  70.471  1.00  0.00     0.000 HD 
BRANCH  39  41
HETATM   41  O   UNL     1      -9.052   3.994  70.293  1.00  0.00    -0.091 OA 
HETATM   42  C   UNL     1      -9.098   3.063  69.230  1.00  0.00    -0.133 C  
ENDBRANCH  39  41
ENDBRANCH  30  39
ENDBRANCH  28  30
ENDBRANCH   6  26
TORSDOF 8
ENDMDL
MODEL      263
REMARK 921   NORMALIZED FREE ENERGY PREDICTED BY IDOCK:   -4.84 KCAL/MOL
REMARK 922        TOTAL FREE ENERGY PREDICTED BY IDOCK:   -8.36 KCAL/MOL
REMARK 923 INTER-LIGAND FREE ENERGY PREDICTED BY IDOCK:   -7.64 KCAL/MOL
REMARK 924 INTRA-LIGAND FREE ENERGY PREDICTED BY IDOCK:   -0.73 KCAL/MOL
REMARK 927      BINDING AFFINITY PREDICTED BY RF-SCORE:    0.00 PKD
ROOT
HETATM    1  C   UNL     1      -8.050  11.471  67.757  1.00  0.00    -0.133 C  
HETATM    2  S   UNL     1      -6.829  12.752  67.852  1.00  0.00    -0.132 SA 
HETATM    3  C   UNL     1      -7.740  14.271  67.389  1.00  0.00    -0.173 C  
HETATM    4  C   UNL     1      -9.217  14.194  67.125  1.00  0.00    -0.237 C  
HETATM    5  CA  UNL     1      -9.947  13.038  67.169  1.00  0.00    -0.235 C  
HETATM    6  CA  UNL     1      -8.156  10.157  66.871  1.00  0.00    -0.121 C  
HETATM    7  C   UNL     1      -9.667  10.547  66.885  1.00  0.00    -0.180 C  
HETATM    8  N   UNL     1      -9.371  11.804  67.311  1.00  0.00    -0.169 N  
HETATM    9  C   UNL     1     -11.446  13.117  67.045  1.00  0.00    -0.336 C  
HETATM   10  O   UNL     1     -10.658  10.044  66.412  1.00  0.00    -0.166 OA 
HETATM   11  O   UNL     1     -12.071  12.149  66.346  1.00  0.00    -0.630 OA 
HETATM   12  OXT UNL     1     -12.095  14.009  67.570  1.00  0.00    -0.391 OA 
ENDROOT
BRANCH   4  13
HETATM   13  C   UNL     1      -9.896  15.533  66.704  1.00  0.00    -0.254 C  
BRANCH  13  14
HETATM   14  S   UNL     1     -10.410  16.756  67.974  1.00  0.00    -0.331 SA 
BRANCH  14  15
HETATM   15  C   UNL     1      -9.403  18.203  67.723  1.00  0.00    -0.267 C  
HETATM   16  N   UNL     1      -8.389  18.300  68.510  1.00  0.00    -0.313 N  
HETATM   17  H   UNL     1      -8.127  17.543  69.141  1.00  0.00     0.000 HD 
HETATM   18  C   UNL     1     -11.033  19.190  66.028  1.00  0.00    -0.052 C  
HETATM   19  C   UNL     1      -7.674  19.479  68.460  1.00  0.00    -0.354 C  
HETATM   20  N   UNL     1      -9.804  19.173  66.800  1.00  0.00    -0.321 NA 
HETATM   21  C   UNL     1      -7.782  20.422  67.263  1.00  0.00    -0.333 C  
HETATM   22  O   UNL     1      -7.001  19.902  69.400  1.00  0.00    -0.330 OA 
HETATM   23  H   UNL     1      -9.325  21.095  66.047  1.00  0.00     0.000 HD 
HETATM   24  N   UNL     1      -8.998  20.329  66.635  1.00  0.00    -0.288 N  
HETATM   25  O   UNL     1      -6.910  21.209  66.932  1.00  0.00    -0.327 OA 
ENDBRANCH  14  15
ENDBRANCH  13  14
ENDBRANCH   4  13
BRANCH   6  26
HETATM   26  N   UNL     1      -7.691   9.759  65.463  1.00  0.00    -0.116 N  
HETATM   27  O   UNL     1      -7.076   8.532  63.645  1.00  0.00    -0.087 OA 
HETATM   28  C   UNL     1      -7.546   8.539  64.782  1.00  0.00    -0.100 C  
HETATM   29  H   UNL     1      -7.428  10.563  64.893  1.00  0.00     0.000 HD 
BRANCH  28  30
HETATM   30  C   UNL     1      -8.119   7.249  65.304  1.00  0.00    -0.134 C  
BRANCH  30  31
HETATM   31  C   UNL     1      -7.745   6.627  66.581  1.00  0.00    -0.102 A  
HETATM   32  H2  UNL     1      -8.440   4.623  70.297  1.00  0.00     0.000 HD 
HETATM   33  C   UNL     1      -6.640   5.798  66.687  1.00  0.00    -0.056 A  
HETATM   34  H1  UNL     1      -9.711   5.788  69.922  1.00  0.00     0.000 HD 
HETATM   35  N   UNL     1      -8.628   6.530  67.669  1.00  0.00    -0.117 NA 
HETATM   36  N   UNL     1      -8.831   5.334  69.678  1.00  0.00    -0.106 NA 
HETATM   37  S   UNL     1      -6.699   4.897  68.139  1.00  0.00    -0.056 SA 
HETATM   38  C   UNL     1      -8.182   5.662  68.550  1.00  0.00    -0.106 A  
ENDBRANCH  30  31
BRANCH  30  39
HETATM   39  N   UNL     1      -8.830   6.447  64.584  1.00  0.00    -0.269 NA 
HETATM   40  H   UNL     1      -9.610   6.825  64.046  1.00  0.00     0.000 HD 
BRANCH  39  41
HETATM   41  O   UNL     1      -8.564   5.079  64.519  1.00  0.00    -0.142 OA 
HETATM   42  C   UNL     1      -9.525   4.106  64.878  1.00  0.00    -0.171 C  
ENDBRANCH  39  41
ENDBRANCH  30  39
ENDBRANCH  28  30
ENDBRANCH   6  26
TORSDOF 8
ENDMDL
MODEL      264
REMARK 921   NORMALIZED FREE ENERGY PREDICTED BY IDOCK:   -4.83 KCAL/MOL
REMARK 922        TOTAL FREE ENERGY PREDICTED BY IDOCK:   -8.35 KCAL/MOL
REMARK 923 INTER-LIGAND FREE ENERGY PREDICTED BY IDOCK:   -6.81 KCAL/MOL
REMARK 924 INTRA-LIGAND FREE ENERGY PREDICTED BY IDOCK:   -1.54 KCAL/MOL
REMARK 927      BINDING AFFINITY PREDICTED BY RF-SCORE:    0.00 PKD
ROOT
HETATM    1  C   UNL     1      -9.546   5.293  69.693  1.00  0.00    -0.163 C  
HETATM    2  S   UNL     1     -11.003   6.113  69.108  1.00  0.00    -0.373 SA 
HETATM    3  C   UNL     1     -10.577   7.892  69.189  1.00  0.00    -0.173 C  
HETATM    4  C   UNL     1      -9.192   8.300  69.605  1.00  0.00    -0.158 C  
HETATM    5  CA  UNL     1      -8.209   7.422  69.973  1.00  0.00    -0.131 C  
HETATM    6  CA  UNL     1      -9.280   4.336  70.933  1.00  0.00    -0.137 C  
HETATM    7  C   UNL     1      -7.927   5.114  70.950  1.00  0.00    -0.097 C  
HETATM    8  N   UNL     1      -8.439   6.084  70.147  1.00  0.00    -0.126 N  
HETATM    9  C   UNL     1      -6.817   7.945  70.212  1.00  0.00    -0.038 C  
HETATM   10  O   UNL     1      -6.941   5.047  71.642  1.00  0.00    -0.050 OA 
HETATM   11  O   UNL     1      -6.107   7.405  71.222  1.00  0.00    -0.036 OA 
HETATM   12  OXT UNL     1      -6.321   8.815  69.513  1.00  0.00    -0.042 OA 
ENDROOT
BRANCH   4  13
HETATM   13  C   UNL     1      -8.936   9.836  69.676  1.00  0.00    -0.215 C  
BRANCH  13  14
HETATM   14  S   UNL     1      -9.878  10.988  68.599  1.00  0.00    -0.194 SA 
BRANCH  14  15
HETATM   15  C   UNL     1      -8.808  12.375  68.280  1.00  0.00    -0.174 C  
HETATM   16  N   UNL     1      -7.638  12.289  68.808  1.00  0.00    -0.253 N  
HETATM   17  H   UNL     1      -7.320  11.436  69.268  1.00  0.00     0.000 HD 
HETATM   18  C   UNL     1     -10.668  13.701  67.145  1.00  0.00    -0.277 C  
HETATM   19  C   UNL     1      -6.833  13.406  68.721  1.00  0.00    -0.101 C  
HETATM   20  N   UNL     1      -9.304  13.488  67.595  1.00  0.00    -0.208 NA 
HETATM   21  C   UNL     1      -7.111  14.507  67.699  1.00  0.00    -0.183 C  
HETATM   22  O   UNL     1      -5.923  13.646  69.515  1.00  0.00    -0.096 OA 
HETATM   23  H   UNL     1      -8.810  15.451  66.970  1.00  0.00     0.000 HD 
HETATM   24  N   UNL     1      -8.440  14.591  67.374  1.00  0.00    -0.193 N  
HETATM   25  O   UNL     1      -6.259  15.263  67.261  1.00  0.00    -0.321 OA 
ENDBRANCH  14  15
ENDBRANCH  13  14
ENDBRANCH   4  13
BRANCH   6  26
HETATM   26  N   UNL     1      -9.870   4.202  72.344  1.00  0.00    -0.153 N  
HETATM   27  O   UNL     1     -10.620   4.689  74.439  1.00  0.00    -0.273 OA 
HETATM   28  C   UNL     1     -10.214   5.112  73.358  1.00  0.00    -0.189 C  
HETATM   29  H   UNL     1     -10.052   3.233  72.605  1.00  0.00     0.000 HD 
BRANCH  28  30
HETATM   30  C   UNL     1     -10.296   6.595  73.117  1.00  0.00    -0.234 C  
BRANCH  30  31
HETATM   31  C   UNL     1     -11.532   7.322  72.800  1.00  0.00    -0.230 A  
HETATM   32  H2  UNL     1     -13.872  10.538  71.221  1.00  0.00     0.000 HD 
HETATM   33  C   UNL     1     -12.653   6.668  72.316  1.00  0.00    -0.017 A  
HETATM   34  H1  UNL     1     -12.366  11.104  71.944  1.00  0.00     0.000 HD 
HETATM   35  N   UNL     1     -11.574   8.715  72.625  1.00  0.00    -0.238 NA 
HETATM   36  N   UNL     1     -12.998  10.339  71.710  1.00  0.00    -0.444 NA 
HETATM   37  S   UNL     1     -13.759   7.785  71.643  1.00  0.00    -0.328 SA 
HETATM   38  C   UNL     1     -12.693   9.075  72.038  1.00  0.00    -0.398 A  
ENDBRANCH  30  31
BRANCH  30  39
HETATM   39  N   UNL     1      -9.257   7.343  72.946  1.00  0.00    -0.142 NA 
HETATM   40  H   UNL     1      -8.864   7.436  72.009  1.00  0.00     0.000 HD 
BRANCH  39  41
HETATM   41  O   UNL     1      -8.656   8.027  74.002  1.00  0.00    -0.258 OA 
HETATM   42  C   UNL     1      -7.251   8.110  74.146  1.00  0.00    -0.166 C  
ENDBRANCH  39  41
ENDBRANCH  30  39
ENDBRANCH  28  30
ENDBRANCH   6  26
TORSDOF 8
ENDMDL
MODEL      265
REMARK 921   NORMALIZED FREE ENERGY PREDICTED BY IDOCK:   -4.80 KCAL/MOL
REMARK 922        TOTAL FREE ENERGY PREDICTED BY IDOCK:   -8.31 KCAL/MOL
REMARK 923 INTER-LIGAND FREE ENERGY PREDICTED BY IDOCK:   -7.40 KCAL/MOL
REMARK 924 INTRA-LIGAND FREE ENERGY PREDICTED BY IDOCK:   -0.90 KCAL/MOL
REMARK 927      BINDING AFFINITY PREDICTED BY RF-SCORE:    0.00 PKD
ROOT
HETATM    1  C   UNL     1      -8.830  12.079  68.285  1.00  0.00    -0.182 C  
HETATM    2  S   UNL     1      -7.250  12.881  68.258  1.00  0.00    -0.124 SA 
HETATM    3  C   UNL     1      -7.634  14.604  67.771  1.00  0.00    -0.160 C  
HETATM    4  C   UNL     1      -9.066  15.017  67.586  1.00  0.00    -0.182 C  
HETATM    5  CA  UNL     1     -10.134  14.172  67.722  1.00  0.00    -0.239 C  
HETATM    6  CA  UNL     1      -9.422  10.852  67.469  1.00  0.00    -0.155 C  
HETATM    7  C   UNL     1     -10.714  11.724  67.542  1.00  0.00    -0.221 C  
HETATM    8  N   UNL     1      -9.991  12.821  67.892  1.00  0.00    -0.222 N  
HETATM    9  C   UNL     1     -11.526  14.743  67.671  1.00  0.00    -0.347 C  
HETATM   10  O   UNL     1     -11.843  11.568  67.144  1.00  0.00    -0.595 OA 
HETATM   11  O   UNL     1     -12.480  14.021  67.050  1.00  0.00    -0.326 OA 
HETATM   12  OXT UNL     1     -11.808  15.814  68.185  1.00  0.00    -0.263 OA 
ENDROOT
BRANCH   4  13
HETATM   13  C   UNL     1      -9.289  16.493  67.138  1.00  0.00    -0.233 C  
BRANCH  13  14
HETATM   14  S   UNL     1      -8.840  17.883  68.253  1.00  0.00    -0.278 SA 
BRANCH  14  15
HETATM   15  C   UNL     1      -7.625  18.856  67.388  1.00  0.00    -0.230 C  
HETATM   16  N   UNL     1      -7.687  18.783  66.105  1.00  0.00    -0.269 N  
HETATM   17  H   UNL     1      -8.451  18.300  65.632  1.00  0.00     0.000 HD 
HETATM   18  C   UNL     1      -6.423  19.490  69.547  1.00  0.00    -0.333 C  
HETATM   19  C   UNL     1      -6.669  19.391  65.399  1.00  0.00    -0.269 C  
HETATM   20  N   UNL     1      -6.639  19.533  68.112  1.00  0.00    -0.249 NA 
HETATM   21  C   UNL     1      -5.778  20.451  66.044  1.00  0.00    -0.182 C  
HETATM   22  O   UNL     1      -6.340  19.053  64.261  1.00  0.00    -0.427 OA 
HETATM   23  H   UNL     1      -4.880  20.695  67.900  1.00  0.00     0.000 HD 
HETATM   24  N   UNL     1      -5.667  20.281  67.400  1.00  0.00    -0.176 N  
HETATM   25  O   UNL     1      -5.187  21.318  65.421  1.00  0.00    -0.195 OA 
ENDBRANCH  14  15
ENDBRANCH  13  14
ENDBRANCH   4  13
BRANCH   6  26
HETATM   26  N   UNL     1      -9.205  10.283  66.059  1.00  0.00    -0.158 N  
HETATM   27  O   UNL     1      -8.468   9.007  64.323  1.00  0.00    -0.176 OA 
HETATM   28  C   UNL     1      -8.516   9.175  65.540  1.00  0.00    -0.147 C  
HETATM   29  H   UNL     1      -9.666  10.835  65.336  1.00  0.00     0.000 HD 
BRANCH  28  30
HETATM   30  C   UNL     1      -7.991   8.068  66.414  1.00  0.00    -0.102 C  
BRANCH  30  31
HETATM   31  C   UNL     1      -8.550   6.711  66.466  1.00  0.00    -0.124 A  
HETATM   32  H2  UNL     1      -8.703   2.596  67.630  1.00  0.00     0.000 HD 
HETATM   33  C   UNL     1      -9.909   6.491  66.616  1.00  0.00    -0.148 A  
HETATM   34  H1  UNL     1      -7.052   3.143  67.337  1.00  0.00     0.000 HD 
HETATM   35  N   UNL     1      -7.765   5.572  66.716  1.00  0.00    -0.099 NA 
HETATM   36  N   UNL     1      -8.053   3.334  67.359  1.00  0.00    -0.081 NA 
HETATM   37  S   UNL     1     -10.212   4.871  67.069  1.00  0.00    -0.151 SA 
HETATM   38  C   UNL     1      -8.524   4.548  67.033  1.00  0.00    -0.104 A  
ENDBRANCH  30  31
BRANCH  30  39
HETATM   39  N   UNL     1      -7.143   8.261  67.368  1.00  0.00    -0.078 NA 
HETATM   40  H   UNL     1      -6.271   8.750  67.164  1.00  0.00     0.000 HD 
BRANCH  39  41
HETATM   41  O   UNL     1      -7.381   7.820  68.670  1.00  0.00    -0.083 OA 
HETATM   42  C   UNL     1      -7.835   8.689  69.690  1.00  0.00    -0.094 C  
ENDBRANCH  39  41
ENDBRANCH  30  39
ENDBRANCH  28  30
ENDBRANCH   6  26
TORSDOF 8
ENDMDL
MODEL      266
REMARK 921   NORMALIZED FREE ENERGY PREDICTED BY IDOCK:   -4.78 KCAL/MOL
REMARK 922        TOTAL FREE ENERGY PREDICTED BY IDOCK:   -8.27 KCAL/MOL
REMARK 923 INTER-LIGAND FREE ENERGY PREDICTED BY IDOCK:   -6.46 KCAL/MOL
REMARK 924 INTRA-LIGAND FREE ENERGY PREDICTED BY IDOCK:   -1.81 KCAL/MOL
REMARK 927      BINDING AFFINITY PREDICTED BY RF-SCORE:    0.00 PKD
ROOT
HETATM    1  C   UNL     1      -6.625   8.255  70.287  1.00  0.00    -0.036 C  
HETATM    2  S   UNL     1      -6.558   9.756  69.348  1.00  0.00    -0.053 SA 
HETATM    3  C   UNL     1      -8.279  10.381  69.382  1.00  0.00    -0.151 C  
HETATM    4  C   UNL     1      -9.315   9.644  70.183  1.00  0.00    -0.294 C  
HETATM    5  CA  UNL     1      -9.073   8.491  70.878  1.00  0.00    -0.172 C  
HETATM    6  CA  UNL     1      -6.316   6.742  69.912  1.00  0.00    -0.039 C  
HETATM    7  C   UNL     1      -7.526   6.500  70.868  1.00  0.00    -0.084 C  
HETATM    8  N   UNL     1      -7.891   7.807  70.788  1.00  0.00    -0.097 N  
HETATM    9  C   UNL     1     -10.153   7.940  71.772  1.00  0.00    -0.185 C  
HETATM   10  O   UNL     1      -8.087   5.504  71.258  1.00  0.00    -0.108 OA 
HETATM   11  O   UNL     1     -10.302   6.602  71.825  1.00  0.00    -0.196 OA 
HETATM   12  OXT UNL     1     -10.867   8.662  72.450  1.00  0.00    -0.343 OA 
ENDROOT
BRANCH   4  13
HETATM   13  C   UNL     1     -10.757  10.233  70.121  1.00  0.00    -0.278 C  
BRANCH  13  14
HETATM   14  S   UNL     1     -11.495  10.725  68.511  1.00  0.00    -0.255 SA 
BRANCH  14  15
HETATM   15  C   UNL     1     -11.241  12.479  68.351  1.00  0.00    -0.272 C  
HETATM   16  N   UNL     1     -10.510  12.832  67.352  1.00  0.00    -0.228 N  
HETATM   17  H   UNL     1     -10.208  12.160  66.647  1.00  0.00     0.000 HD 
HETATM   18  C   UNL     1     -12.400  12.971  70.569  1.00  0.00    -0.287 C  
HETATM   19  C   UNL     1     -10.156  14.163  67.279  1.00  0.00    -0.256 C  
HETATM   20  N   UNL     1     -11.733  13.343  69.334  1.00  0.00    -0.307 NA 
HETATM   21  C   UNL     1     -10.924  15.232  68.055  1.00  0.00    -0.299 C  
HETATM   22  O   UNL     1      -9.152  14.565  66.690  1.00  0.00    -0.257 OA 
HETATM   23  H   UNL     1     -11.755  15.369  69.952  1.00  0.00     0.000 HD 
HETATM   24  N   UNL     1     -11.497  14.734  69.197  1.00  0.00    -0.282 N  
HETATM   25  O   UNL     1     -10.978  16.407  67.728  1.00  0.00    -0.325 OA 
ENDBRANCH  14  15
ENDBRANCH  13  14
ENDBRANCH   4  13
BRANCH   6  26
HETATM   26  N   UNL     1      -6.429   5.898  68.635  1.00  0.00    -0.043 N  
HETATM   27  O   UNL     1      -7.200   4.990  66.694  1.00  0.00    -0.077 OA 
HETATM   28  C   UNL     1      -7.344   5.840  67.571  1.00  0.00    -0.077 C  
HETATM   29  H   UNL     1      -5.668   5.227  68.538  1.00  0.00     0.000 HD 
BRANCH  28  30
HETATM   30  C   UNL     1      -8.389   6.899  67.346  1.00  0.00    -0.122 C  
BRANCH  30  31
HETATM   31  C   UNL     1      -8.168   8.144  66.599  1.00  0.00    -0.103 A  
HETATM   32  H2  UNL     1      -6.376  10.644  63.624  1.00  0.00     0.000 HD 
HETATM   33  C   UNL     1      -9.223   8.954  66.212  1.00  0.00    -0.207 A  
HETATM   34  H1  UNL     1      -5.220   9.509  64.323  1.00  0.00     0.000 HD 
HETATM   35  N   UNL     1      -6.965   8.430  65.931  1.00  0.00    -0.067 NA 
HETATM   36  N   UNL     1      -6.164   9.894  64.282  1.00  0.00    -0.116 NA 
HETATM   37  S   UNL     1      -8.720  10.070  65.018  1.00  0.00    -0.188 SA 
HETATM   38  C   UNL     1      -7.129   9.422  65.086  1.00  0.00    -0.100 A  
ENDBRANCH  30  31
BRANCH  30  39
HETATM   39  N   UNL     1      -9.517   6.926  67.975  1.00  0.00    -0.125 NA 
HETATM   40  H   UNL     1      -9.715   7.706  68.602  1.00  0.00     0.000 HD 
BRANCH  39  41
HETATM   41  O   UNL     1     -10.473   5.922  67.822  1.00  0.00    -0.191 OA 
HETATM   42  C   UNL     1     -10.769   5.347  66.564  1.00  0.00    -0.240 C  
ENDBRANCH  39  41
ENDBRANCH  30  39
ENDBRANCH  28  30
ENDBRANCH   6  26
TORSDOF 8
ENDMDL
MODEL      267
REMARK 921   NORMALIZED FREE ENERGY PREDICTED BY IDOCK:   -4.77 KCAL/MOL
REMARK 922        TOTAL FREE ENERGY PREDICTED BY IDOCK:   -8.27 KCAL/MOL
REMARK 923 INTER-LIGAND FREE ENERGY PREDICTED BY IDOCK:   -7.45 KCAL/MOL
REMARK 924 INTRA-LIGAND FREE ENERGY PREDICTED BY IDOCK:   -0.81 KCAL/MOL
REMARK 927      BINDING AFFINITY PREDICTED BY RF-SCORE:    0.00 PKD
ROOT
HETATM    1  C   UNL     1     -11.470  12.343  65.685  1.00  0.00    -0.367 C  
HETATM    2  S   UNL     1     -11.809  11.794  64.035  1.00  0.00    -0.246 SA 
HETATM    3  C   UNL     1     -10.268  10.949  63.521  1.00  0.00    -0.317 C  
HETATM    4  C   UNL     1      -9.142  10.806  64.505  1.00  0.00    -0.220 C  
HETATM    5  CA  UNL     1      -9.166  11.303  65.780  1.00  0.00    -0.219 C  
HETATM    6  CA  UNL     1     -11.425  13.788  66.345  1.00  0.00    -0.336 C  
HETATM    7  C   UNL     1     -10.245  13.137  67.133  1.00  0.00    -0.244 C  
HETATM    8  N   UNL     1     -10.166  12.118  66.237  1.00  0.00    -0.219 N  
HETATM    9  C   UNL     1      -8.043  10.952  66.720  1.00  0.00    -0.142 C  
HETATM   10  O   UNL     1      -9.504  13.540  67.998  1.00  0.00    -0.206 OA 
HETATM   11  O   UNL     1      -7.612  11.906  67.568  1.00  0.00    -0.121 OA 
HETATM   12  OXT UNL     1      -7.540   9.839  66.745  1.00  0.00    -0.094 OA 
ENDROOT
BRANCH   4  13
HETATM   13  C   UNL     1      -7.860  10.103  63.964  1.00  0.00    -0.149 C  
BRANCH  13  14
HETATM   14  S   UNL     1      -7.912   8.342  63.444  1.00  0.00    -0.135 SA 
BRANCH  14  15
HETATM   15  C   UNL     1      -8.307   7.395  64.899  1.00  0.00    -0.022 C  
HETATM   16  N   UNL     1      -9.346   7.798  65.542  1.00  0.00    -0.357 N  
HETATM   17  H   UNL     1      -9.955   8.527  65.171  1.00  0.00     0.000 HD 
HETATM   18  C   UNL     1      -6.171   6.011  64.723  1.00  0.00    -0.030 C  
HETATM   19  C   UNL     1      -9.597   7.196  66.758  1.00  0.00    -0.178 C  
HETATM   20  N   UNL     1      -7.446   6.374  65.314  1.00  0.00    -0.077 NA 
HETATM   21  C   UNL     1      -8.969   5.851  67.123  1.00  0.00    -0.113 C  
HETATM   22  O   UNL     1     -10.237   7.736  67.660  1.00  0.00    -0.187 OA 
HETATM   23  H   UNL     1      -7.105   4.974  66.868  1.00  0.00     0.000 HD 
HETATM   24  N   UNL     1      -7.769   5.650  66.490  1.00  0.00    -0.099 N  
HETATM   25  O   UNL     1      -9.450   5.069  67.926  1.00  0.00    -0.123 OA 
ENDBRANCH  14  15
ENDBRANCH  13  14
ENDBRANCH   4  13
BRANCH   6  26
HETATM   26  N   UNL     1     -11.063  15.195  65.849  1.00  0.00    -0.338 N  
HETATM   27  O   UNL     1     -10.418  17.378  65.795  1.00  0.00    -0.518 OA 
HETATM   28  C   UNL     1     -10.547  16.351  66.458  1.00  0.00    -0.235 C  
HETATM   29  H   UNL     1     -11.237  15.318  64.852  1.00  0.00     0.000 HD 
BRANCH  28  30
HETATM   30  C   UNL     1      -9.958  16.340  67.843  1.00  0.00    -0.241 C  
BRANCH  30  31
HETATM   31  C   UNL     1     -10.743  16.268  69.082  1.00  0.00    -0.305 A  
HETATM   32  H2  UNL     1     -14.024  15.084  71.560  1.00  0.00     0.000 HD 
HETATM   33  C   UNL     1     -10.136  16.080  70.314  1.00  0.00     0.226 A  
HETATM   34  H1  UNL     1     -14.530  15.423  69.905  1.00  0.00     0.000 HD 
HETATM   35  N   UNL     1     -12.128  16.034  69.095  1.00  0.00    -0.199 NA 
HETATM   36  N   UNL     1     -13.794  15.375  70.610  1.00  0.00    -0.249 NA 
HETATM   37  S   UNL     1     -11.288  15.613  71.488  1.00  0.00    -0.332 SA 
HETATM   38  C   UNL     1     -12.528  15.693  70.299  1.00  0.00    -0.334 A  
ENDBRANCH  30  31
BRANCH  30  39
HETATM   39  N   UNL     1      -8.721  16.617  68.089  1.00  0.00    -0.196 NA 
HETATM   40  H   UNL     1      -8.026  15.873  68.033  1.00  0.00     0.000 HD 
BRANCH  39  41
HETATM   41  O   UNL     1      -8.305  17.905  68.429  1.00  0.00    -0.288 OA 
HETATM   42  C   UNL     1      -6.945  18.292  68.396  1.00  0.00    -0.245 C  
ENDBRANCH  39  41
ENDBRANCH  30  39
ENDBRANCH  28  30
ENDBRANCH   6  26
TORSDOF 8
ENDMDL
MODEL      268
REMARK 921   NORMALIZED FREE ENERGY PREDICTED BY IDOCK:   -4.75 KCAL/MOL
REMARK 922        TOTAL FREE ENERGY PREDICTED BY IDOCK:   -8.24 KCAL/MOL
REMARK 923 INTER-LIGAND FREE ENERGY PREDICTED BY IDOCK:   -6.64 KCAL/MOL
REMARK 924 INTRA-LIGAND FREE ENERGY PREDICTED BY IDOCK:   -1.59 KCAL/MOL
REMARK 927      BINDING AFFINITY PREDICTED BY RF-SCORE:    0.00 PKD
ROOT
HETATM    1  C   UNL     1      -9.818   6.987  70.652  1.00  0.00    -0.182 C  
HETATM    2  S   UNL     1      -9.604   8.724  70.374  1.00  0.00    -0.194 SA 
HETATM    3  C   UNL     1      -9.492   8.872  68.552  1.00  0.00    -0.147 C  
HETATM    4  C   UNL     1      -9.670   7.647  67.700  1.00  0.00    -0.189 C  
HETATM    5  CA  UNL     1      -9.879   6.390  68.195  1.00  0.00    -0.127 C  
HETATM    6  CA  UNL     1      -8.949   5.913  71.436  1.00  0.00    -0.140 C  
HETATM    7  C   UNL     1      -9.423   5.008  70.256  1.00  0.00    -0.172 C  
HETATM    8  N   UNL     1      -9.794   6.096  69.530  1.00  0.00    -0.155 N  
HETATM    9  C   UNL     1     -10.205   5.274  67.237  1.00  0.00    -0.206 C  
HETATM   10  O   UNL     1      -9.242   3.848  69.976  1.00  0.00    -0.116 OA 
HETATM   11  O   UNL     1      -9.681   4.058  67.487  1.00  0.00    -0.184 OA 
HETATM   12  OXT UNL     1     -10.933   5.439  66.271  1.00  0.00    -0.221 OA 
ENDROOT
BRANCH   4  13
HETATM   13  C   UNL     1      -9.523   7.870  66.164  1.00  0.00    -0.088 C  
BRANCH  13  14
HETATM   14  S   UNL     1      -8.507   9.256  65.516  1.00  0.00    -0.149 SA 
BRANCH  14  15
HETATM   15  C   UNL     1      -9.647  10.500  64.948  1.00  0.00    -0.277 C  
HETATM   16  N   UNL     1     -10.299  11.102  65.880  1.00  0.00    -0.253 N  
HETATM   17  H   UNL     1     -10.083  10.955  66.865  1.00  0.00     0.000 HD 
HETATM   18  C   UNL     1      -9.274   9.894  62.498  1.00  0.00    -0.283 C  
HETATM   19  C   UNL     1     -11.306  11.958  65.481  1.00  0.00    -0.277 C  
HETATM   20  N   UNL     1      -9.850  10.678  63.576  1.00  0.00    -0.328 NA 
HETATM   21  C   UNL     1     -11.363  12.507  64.056  1.00  0.00    -0.405 C  
HETATM   22  O   UNL     1     -12.269  12.246  66.191  1.00  0.00    -0.647 OA 
HETATM   23  H   UNL     1     -11.022  11.732  62.161  1.00  0.00     0.000 HD 
HETATM   24  N   UNL     1     -10.782  11.658  63.149  1.00  0.00    -0.294 N  
HETATM   25  O   UNL     1     -11.909  13.554  63.749  1.00  0.00    -0.427 OA 
ENDBRANCH  14  15
ENDBRANCH  13  14
ENDBRANCH   4  13
BRANCH   6  26
HETATM   26  N   UNL     1      -7.451   5.729  71.719  1.00  0.00    -0.093 N  
HETATM   27  O   UNL     1      -5.233   6.145  72.023  1.00  0.00    -0.021 OA 
HETATM   28  C   UNL     1      -6.360   6.604  71.853  1.00  0.00    -0.046 C  
HETATM   29  H   UNL     1      -7.189   4.751  71.836  1.00  0.00     0.000 HD 
BRANCH  28  30
HETATM   30  C   UNL     1      -6.531   8.093  71.993  1.00  0.00    -0.060 C  
BRANCH  30  31
HETATM   31  C   UNL     1      -5.918   9.090  71.107  1.00  0.00    -0.055 A  
HETATM   32  H2  UNL     1      -5.353  11.239  67.451  1.00  0.00     0.000 HD 
HETATM   33  C   UNL     1      -5.615  10.367  71.553  1.00  0.00     0.089 A  
HETATM   34  H1  UNL     1      -5.730   9.539  67.171  1.00  0.00     0.000 HD 
HETATM   35  N   UNL     1      -5.913   8.966  69.708  1.00  0.00    -0.031 NA 
HETATM   36  N   UNL     1      -5.561  10.310  67.817  1.00  0.00    -0.041 NA 
HETATM   37  S   UNL     1      -5.324  11.413  70.232  1.00  0.00    -0.118 SA 
HETATM   38  C   UNL     1      -5.609  10.113  69.143  1.00  0.00    -0.038 A  
ENDBRANCH  30  31
BRANCH  30  39
HETATM   39  N   UNL     1      -7.050   8.651  73.036  1.00  0.00    -0.327 NA 
HETATM   40  H   UNL     1      -6.484   9.298  73.585  1.00  0.00     0.000 HD 
BRANCH  39  41
HETATM   41  O   UNL     1      -8.362   8.396  73.436  1.00  0.00    -0.315 OA 
HETATM   42  C   UNL     1      -8.667   7.589  74.557  1.00  0.00    -0.129 C  
ENDBRANCH  39  41
ENDBRANCH  30  39
ENDBRANCH  28  30
ENDBRANCH   6  26
TORSDOF 8
ENDMDL
MODEL      269
REMARK 921   NORMALIZED FREE ENERGY PREDICTED BY IDOCK:   -4.72 KCAL/MOL
REMARK 922        TOTAL FREE ENERGY PREDICTED BY IDOCK:   -8.18 KCAL/MOL
REMARK 923 INTER-LIGAND FREE ENERGY PREDICTED BY IDOCK:   -7.36 KCAL/MOL
REMARK 924 INTRA-LIGAND FREE ENERGY PREDICTED BY IDOCK:   -0.82 KCAL/MOL
REMARK 927      BINDING AFFINITY PREDICTED BY RF-SCORE:    0.00 PKD
ROOT
HETATM    1  C   UNL     1     -12.212   8.946  71.524  1.00  0.00    -0.327 C  
HETATM    2  S   UNL     1     -13.381   7.615  71.499  1.00  0.00    -0.295 SA 
HETATM    3  C   UNL     1     -12.348   6.112  71.665  1.00  0.00     0.134 C  
HETATM    4  C   UNL     1     -10.865   6.254  71.860  1.00  0.00    -0.286 C  
HETATM    5  CA  UNL     1     -10.204   7.451  71.888  1.00  0.00    -0.187 C  
HETATM    6  CA  UNL     1     -11.847  10.071  70.463  1.00  0.00    -0.303 C  
HETATM    7  C   UNL     1     -10.414   9.812  71.025  1.00  0.00    -0.160 C  
HETATM    8  N   UNL     1     -10.813   8.640  71.587  1.00  0.00    -0.278 N  
HETATM    9  C   UNL     1      -8.743   7.468  72.253  1.00  0.00    -0.119 C  
HETATM   10  O   UNL     1      -9.332  10.291  70.788  1.00  0.00     0.451 OA 
HETATM   11  O   UNL     1      -7.942   8.330  71.598  1.00  0.00    -0.106 OA 
HETATM   12  OXT UNL     1      -8.283   6.747  73.125  1.00  0.00    -0.111 OA 
ENDROOT
BRANCH   4  13
HETATM   13  C   UNL     1     -10.069   4.917  71.955  1.00  0.00    -0.196 C  
BRANCH  13  14
HETATM   14  S   UNL     1      -8.757   4.525  70.730  1.00  0.00    -0.095 SA 
BRANCH  14  15
HETATM   15  C   UNL     1      -9.004   5.624  69.352  1.00  0.00    -0.114 C  
HETATM   16  N   UNL     1     -10.182   5.589  68.835  1.00  0.00    -0.201 N  
HETATM   17  H   UNL     1     -10.939   5.059  69.265  1.00  0.00     0.000 HD 
HETATM   18  C   UNL     1      -6.541   6.287  69.287  1.00  0.00    -0.044 C  
HETATM   19  C   UNL     1     -10.371   6.304  67.670  1.00  0.00    -0.195 C  
HETATM   20  N   UNL     1      -7.924   6.359  68.851  1.00  0.00    -0.109 NA 
HETATM   21  C   UNL     1      -9.407   7.413  67.254  1.00  0.00    -0.133 C  
HETATM   22  O   UNL     1     -11.243   6.031  66.844  1.00  0.00    -0.240 OA 
HETATM   23  H   UNL     1      -7.347   7.672  67.292  1.00  0.00     0.000 HD 
HETATM   24  N   UNL     1      -8.140   7.209  67.737  1.00  0.00    -0.114 N  
HETATM   25  O   UNL     1      -9.712   8.347  66.530  1.00  0.00    -0.224 OA 
ENDBRANCH  14  15
ENDBRANCH  13  14
ENDBRANCH   4  13
BRANCH   6  26
HETATM   26  N   UNL     1     -11.844  10.155  68.930  1.00  0.00    -0.487 N  
HETATM   27  O   UNL     1     -11.755  10.955  66.800  1.00  0.00    -0.174 OA 
HETATM   28  C   UNL     1     -11.625  11.185  68.001  1.00  0.00    -0.263 C  
HETATM   29  H   UNL     1     -12.048   9.260  68.486  1.00  0.00     0.000 HD 
BRANCH  28  30
HETATM   30  C   UNL     1     -11.044  12.517  68.393  1.00  0.00    -0.258 C  
BRANCH  30  31
HETATM   31  C   UNL     1     -10.328  13.416  67.480  1.00  0.00    -0.226 A  
HETATM   32  H2  UNL     1      -9.930  16.625  64.678  1.00  0.00     0.000 HD 
HETATM   33  C   UNL     1      -9.094  13.953  67.812  1.00  0.00    -0.191 A  
HETATM   34  H1  UNL     1     -11.434  15.731  64.456  1.00  0.00     0.000 HD 
HETATM   35  N   UNL     1     -10.953  14.065  66.403  1.00  0.00    -0.305 NA 
HETATM   36  N   UNL     1     -10.551  15.863  64.949  1.00  0.00    -0.580 NA 
HETATM   37  S   UNL     1      -8.712  15.266  66.784  1.00  0.00    -0.277 SA 
HETATM   38  C   UNL     1     -10.200  15.044  65.952  1.00  0.00    -0.315 A  
ENDBRANCH  30  31
BRANCH  30  39
HETATM   39  N   UNL     1     -10.922  12.902  69.620  1.00  0.00    -0.443 NA 
HETATM   40  H   UNL     1     -10.050  12.711  70.114  1.00  0.00     0.000 HD 
BRANCH  39  41
HETATM   41  O   UNL     1     -11.945  13.572  70.291  1.00  0.00    -0.327 OA 
HETATM   42  C   UNL     1     -11.688  14.604  71.222  1.00  0.00    -0.264 C  
ENDBRANCH  39  41
ENDBRANCH  30  39
ENDBRANCH  28  30
ENDBRANCH   6  26
TORSDOF 8
ENDMDL
MODEL      270
REMARK 921   NORMALIZED FREE ENERGY PREDICTED BY IDOCK:   -4.68 KCAL/MOL
REMARK 922        TOTAL FREE ENERGY PREDICTED BY IDOCK:   -8.13 KCAL/MOL
REMARK 923 INTER-LIGAND FREE ENERGY PREDICTED BY IDOCK:   -7.04 KCAL/MOL
REMARK 924 INTRA-LIGAND FREE ENERGY PREDICTED BY IDOCK:   -1.09 KCAL/MOL
REMARK 927      BINDING AFFINITY PREDICTED BY RF-SCORE:    0.00 PKD
ROOT
HETATM    1  C   UNL     1     -10.734  12.820  69.004  1.00  0.00    -0.095 C  
HETATM    2  S   UNL     1     -10.663  11.061  68.803  1.00  0.00    -0.218 SA 
HETATM    3  C   UNL     1      -9.138  10.785  67.827  1.00  0.00    -0.151 C  
HETATM    4  C   UNL     1      -8.263  11.956  67.480  1.00  0.00    -0.155 C  
HETATM    5  CA  UNL     1      -8.544  13.252  67.815  1.00  0.00    -0.184 C  
HETATM    6  CA  UNL     1     -11.803  13.906  68.554  1.00  0.00    -0.366 C  
HETATM    7  C   UNL     1     -10.509  14.749  68.327  1.00  0.00    -0.241 C  
HETATM    8  N   UNL     1      -9.736  13.631  68.372  1.00  0.00    -0.227 N  
HETATM    9  C   UNL     1      -7.508  14.314  67.551  1.00  0.00    -0.182 C  
HETATM   10  O   UNL     1     -10.310  15.879  67.951  1.00  0.00    -0.256 OA 
HETATM   11  O   UNL     1      -7.937  15.520  67.132  1.00  0.00    -0.183 OA 
HETATM   12  OXT UNL     1      -6.315  14.115  67.725  1.00  0.00    -0.156 OA 
ENDROOT
BRANCH   4  13
HETATM   13  C   UNL     1      -7.007  11.625  66.618  1.00  0.00    -0.026 C  
BRANCH  13  14
HETATM   14  S   UNL     1      -6.182   9.990  66.763  1.00  0.00    -0.070 SA 
BRANCH  14  15
HETATM   15  C   UNL     1      -6.780   8.997  65.411  1.00  0.00    -0.072 C  
HETATM   16  N   UNL     1      -7.497   7.986  65.758  1.00  0.00    -0.079 N  
HETATM   17  H   UNL     1      -7.792   7.845  66.724  1.00  0.00     0.000 HD 
HETATM   18  C   UNL     1      -5.419  10.302  63.694  1.00  0.00    -0.140 C  
HETATM   19  C   UNL     1      -7.848   7.101  64.759  1.00  0.00    -0.126 C  
HETATM   20  N   UNL     1      -6.372   9.287  64.106  1.00  0.00    -0.084 NA 
HETATM   21  C   UNL     1      -7.787   7.502  63.286  1.00  0.00    -0.126 C  
HETATM   22  O   UNL     1      -8.121   5.919  64.969  1.00  0.00    -0.120 OA 
HETATM   23  H   UNL     1      -6.475   8.595  62.106  1.00  0.00     0.000 HD 
HETATM   24  N   UNL     1      -6.842   8.467  63.049  1.00  0.00    -0.089 N  
HETATM   25  O   UNL     1      -8.462   6.987  62.410  1.00  0.00    -0.057 OA 
ENDBRANCH  14  15
ENDBRANCH  13  14
ENDBRANCH   4  13
BRANCH   6  26
HETATM   26  N   UNL     1     -12.778  14.044  67.377  1.00  0.00    -0.221 N  
HETATM   27  O   UNL     1     -13.629  14.359  65.288  1.00  0.00    -0.322 OA 
HETATM   28  C   UNL     1     -12.630  14.214  65.990  1.00  0.00    -0.375 C  
HETATM   29  H   UNL     1     -13.755  14.003  67.667  1.00  0.00     0.000 HD 
BRANCH  28  30
HETATM   30  C   UNL     1     -11.310  14.032  65.291  1.00  0.00    -0.321 C  
BRANCH  30  31
HETATM   31  C   UNL     1     -10.869  12.784  64.653  1.00  0.00    -0.335 A  
HETATM   32  H2  UNL     1      -8.310  10.307  62.282  1.00  0.00     0.000 HD 
HETATM   33  C   UNL     1     -10.924  11.571  65.320  1.00  0.00    -0.228 A  
HETATM   34  H1  UNL     1      -8.447  11.939  61.628  1.00  0.00     0.000 HD 
HETATM   35  N   UNL     1     -10.060  12.759  63.505  1.00  0.00    -0.230 NA 
HETATM   36  N   UNL     1      -8.700  11.248  62.334  1.00  0.00    -0.276 NA 
HETATM   37  S   UNL     1      -9.970  10.399  64.519  1.00  0.00    -0.281 SA 
HETATM   38  C   UNL     1      -9.543  11.564  63.329  1.00  0.00    -0.346 A  
ENDBRANCH  30  31
BRANCH  30  39
HETATM   39  N   UNL     1     -10.341  14.882  65.374  1.00  0.00    -0.359 NA 
HETATM   40  H   UNL     1      -9.542  14.664  65.968  1.00  0.00     0.000 HD 
BRANCH  39  41
HETATM   41  O   UNL     1     -10.355  16.090  64.675  1.00  0.00    -0.414 OA 
HETATM   42  C   UNL     1     -10.515  17.336  65.326  1.00  0.00     0.070 C  
ENDBRANCH  39  41
ENDBRANCH  30  39
ENDBRANCH  28  30
ENDBRANCH   6  26
TORSDOF 8
ENDMDL
MODEL      271
REMARK 921   NORMALIZED FREE ENERGY PREDICTED BY IDOCK:   -4.67 KCAL/MOL
REMARK 922        TOTAL FREE ENERGY PREDICTED BY IDOCK:   -8.12 KCAL/MOL
REMARK 923 INTER-LIGAND FREE ENERGY PREDICTED BY IDOCK:   -6.52 KCAL/MOL
REMARK 924 INTRA-LIGAND FREE ENERGY PREDICTED BY IDOCK:   -1.60 KCAL/MOL
REMARK 927      BINDING AFFINITY PREDICTED BY RF-SCORE:    0.00 PKD
ROOT
HETATM    1  C   UNL     1      -8.887  12.406  68.332  1.00  0.00    -0.129 C  
HETATM    2  S   UNL     1      -8.039  12.955  66.877  1.00  0.00     0.137 SA 
HETATM    3  C   UNL     1      -9.081  14.321  66.243  1.00  0.00    -0.068 C  
HETATM    4  C   UNL     1     -10.290  14.750  67.024  1.00  0.00    -0.255 C  
HETATM    5  CA  UNL     1     -10.704  14.160  68.186  1.00  0.00    -0.245 C  
HETATM    6  CA  UNL     1      -9.532  11.010  68.734  1.00  0.00    -0.183 C  
HETATM    7  C   UNL     1     -10.587  11.950  69.396  1.00  0.00     0.118 C  
HETATM    8  N   UNL     1     -10.140  13.012  68.675  1.00  0.00    -0.186 N  
HETATM    9  C   UNL     1     -11.835  14.786  68.959  1.00  0.00    -0.302 C  
HETATM   10  O   UNL     1     -11.588  11.748  70.041  1.00  0.00    -0.293 OA 
HETATM   11  O   UNL     1     -12.722  13.963  69.553  1.00  0.00    -0.090 OA 
HETATM   12  OXT UNL     1     -11.953  15.996  69.073  1.00  0.00    -0.342 OA 
ENDROOT
BRANCH   4  13
HETATM   13  C   UNL     1     -11.131  15.897  66.385  1.00  0.00    -0.015 C  
BRANCH  13  14
HETATM   14  S   UNL     1     -10.301  17.323  65.579  1.00  0.00     0.045 SA 
BRANCH  14  15
HETATM   15  C   UNL     1      -9.425  18.193  66.862  1.00  0.00    -0.286 C  
HETATM   16  N   UNL     1     -10.150  18.558  67.860  1.00  0.00    -0.350 N  
HETATM   17  H   UNL     1     -11.121  18.261  67.954  1.00  0.00     0.000 HD 
HETATM   18  C   UNL     1      -7.275  18.289  65.493  1.00  0.00     0.029 C  
HETATM   19  C   UNL     1      -9.550  19.371  68.800  1.00  0.00    -0.432 C  
HETATM   20  N   UNL     1      -8.078  18.519  66.681  1.00  0.00    -0.255 NA 
HETATM   21  C   UNL     1      -8.029  19.474  68.905  1.00  0.00    -0.294 C  
HETATM   22  O   UNL     1     -10.178  20.139  69.529  1.00  0.00    -0.210 OA 
HETATM   23  H   UNL     1      -6.459  19.572  67.551  1.00  0.00     0.000 HD 
HETATM   24  N   UNL     1      -7.408  19.234  67.706  1.00  0.00    -0.249 N  
HETATM   25  O   UNL     1      -7.434  19.787  69.924  1.00  0.00    -0.052 OA 
ENDBRANCH  14  15
ENDBRANCH  13  14
ENDBRANCH   4  13
BRANCH   6  26
HETATM   26  N   UNL     1     -10.202   9.865  67.963  1.00  0.00    -0.172 N  
HETATM   27  O   UNL     1     -10.826   7.786  67.270  1.00  0.00    -0.284 OA 
HETATM   28  C   UNL     1     -10.235   8.468  68.106  1.00  0.00    -0.208 C  
HETATM   29  H   UNL     1     -10.748  10.192  67.166  1.00  0.00     0.000 HD 
BRANCH  28  30
HETATM   30  C   UNL     1      -9.743   7.772  69.346  1.00  0.00    -0.169 C  
BRANCH  30  31
HETATM   31  C   UNL     1     -10.554   7.534  70.547  1.00  0.00    -0.225 A  
HETATM   32  H2  UNL     1     -11.250   6.844  74.713  1.00  0.00     0.000 HD 
HETATM   33  C   UNL     1     -11.734   8.225  70.773  1.00  0.00    -0.202 A  
HETATM   34  H1  UNL     1      -9.791   6.034  74.139  1.00  0.00     0.000 HD 
HETATM   35  N   UNL     1     -10.055   6.885  71.688  1.00  0.00    -0.190 NA 
HETATM   36  N   UNL     1     -10.608   6.617  73.953  1.00  0.00    -0.308 NA 
HETATM   37  S   UNL     1     -12.222   8.067  72.404  1.00  0.00    -0.240 SA 
HETATM   38  C   UNL     1     -10.846   7.085  72.718  1.00  0.00    -0.288 A  
ENDBRANCH  30  31
BRANCH  30  39
HETATM   39  N   UNL     1      -8.497   7.512  69.565  1.00  0.00    -0.132 NA 
HETATM   40  H   UNL     1      -7.991   8.062  70.259  1.00  0.00     0.000 HD 
BRANCH  39  41
HETATM   41  O   UNL     1      -7.821   6.500  68.882  1.00  0.00    -0.106 OA 
HETATM   42  C   UNL     1      -8.315   5.177  68.810  1.00  0.00    -0.088 C  
ENDBRANCH  39  41
ENDBRANCH  30  39
ENDBRANCH  28  30
ENDBRANCH   6  26
TORSDOF 8
ENDMDL
MODEL      272
REMARK 921   NORMALIZED FREE ENERGY PREDICTED BY IDOCK:   -4.67 KCAL/MOL
REMARK 922        TOTAL FREE ENERGY PREDICTED BY IDOCK:   -8.12 KCAL/MOL
REMARK 923 INTER-LIGAND FREE ENERGY PREDICTED BY IDOCK:   -6.71 KCAL/MOL
REMARK 924 INTRA-LIGAND FREE ENERGY PREDICTED BY IDOCK:   -1.41 KCAL/MOL
REMARK 927      BINDING AFFINITY PREDICTED BY RF-SCORE:    0.00 PKD
ROOT
HETATM    1  C   UNL     1     -10.465   9.449  67.563  1.00  0.00    -0.280 C  
HETATM    2  S   UNL     1      -9.786   9.670  65.942  1.00  0.00    -0.275 SA 
HETATM    3  C   UNL     1      -8.106   8.952  66.060  1.00  0.00    -0.111 C  
HETATM    4  C   UNL     1      -7.673   8.294  67.340  1.00  0.00    -0.102 C  
HETATM    5  CA  UNL     1      -8.446   8.220  68.466  1.00  0.00    -0.126 C  
HETATM    6  CA  UNL     1     -10.988  10.478  68.655  1.00  0.00    -0.248 C  
HETATM    7  C   UNL     1     -10.333   9.437  69.616  1.00  0.00    -0.216 C  
HETATM    8  N   UNL     1      -9.641   8.877  68.588  1.00  0.00    -0.152 N  
HETATM    9  C   UNL     1      -7.963   7.393  69.629  1.00  0.00    -0.126 C  
HETATM   10  O   UNL     1     -10.236   9.365  70.817  1.00  0.00    -0.259 OA 
HETATM   11  O   UNL     1      -8.194   7.860  70.871  1.00  0.00    -0.099 OA 
HETATM   12  OXT UNL     1      -7.396   6.323  69.473  1.00  0.00    -0.079 OA 
ENDROOT
BRANCH   4  13
HETATM   13  C   UNL     1      -6.215   7.744  67.354  1.00  0.00    -0.054 C  
BRANCH  13  14
HETATM   14  S   UNL     1      -5.722   6.382  66.224  1.00  0.00    -0.014 SA 
BRANCH  14  15
HETATM   15  C   UNL     1      -7.220   5.544  65.754  1.00  0.00    -0.068 C  
HETATM   16  N   UNL     1      -7.848   4.973  66.722  1.00  0.00    -0.099 N  
HETATM   17  H   UNL     1      -7.564   5.101  67.693  1.00  0.00     0.000 HD 
HETATM   18  C   UNL     1      -6.795   5.925  63.268  1.00  0.00    -0.037 C  
HETATM   19  C   UNL     1      -8.925   4.180  66.382  1.00  0.00    -0.124 C  
HETATM   20  N   UNL     1      -7.570   5.456  64.403  1.00  0.00    -0.071 NA 
HETATM   21  C   UNL     1      -9.611   4.312  65.024  1.00  0.00    -0.177 C  
HETATM   22  O   UNL     1      -9.331   3.255  67.086  1.00  0.00    -0.187 OA 
HETATM   23  H   UNL     1      -8.973   4.597  63.069  1.00  0.00     0.000 HD 
HETATM   24  N   UNL     1      -8.755   4.762  64.051  1.00  0.00    -0.144 N  
HETATM   25  O   UNL     1     -10.772   4.002  64.812  1.00  0.00    -0.241 OA 
ENDBRANCH  14  15
ENDBRANCH  13  14
ENDBRANCH   4  13
BRANCH   6  26
HETATM   26  N   UNL     1     -10.625  11.916  69.050  1.00  0.00    -0.373 N  
HETATM   27  O   UNL     1     -10.735  14.031  69.889  1.00  0.00     0.076 OA 
HETATM   28  C   UNL     1     -11.262  12.924  69.793  1.00  0.00     0.069 C  
HETATM   29  H   UNL     1      -9.715  12.206  68.692  1.00  0.00     0.000 HD 
BRANCH  28  30
HETATM   30  C   UNL     1     -12.474  12.656  70.644  1.00  0.00    -0.239 C  
BRANCH  30  31
HETATM   31  C   UNL     1     -13.017  13.589  71.640  1.00  0.00    -0.359 A  
HETATM   32  H2  UNL     1     -12.840  16.363  74.892  1.00  0.00     0.000 HD 
HETATM   33  C   UNL     1     -14.013  14.495  71.316  1.00  0.00    -0.286 A  
HETATM   34  H1  UNL     1     -11.670  15.056  75.070  1.00  0.00     0.000 HD 
HETATM   35  N   UNL     1     -12.364  13.879  72.849  1.00  0.00     0.164 NA 
HETATM   36  N   UNL     1     -12.423  15.500  74.544  1.00  0.00    -0.619 NA 
HETATM   37  S   UNL     1     -14.137  15.709  72.514  1.00  0.00    -0.318 SA 
HETATM   38  C   UNL     1     -12.868  14.960  73.400  1.00  0.00    -0.515 A  
ENDBRANCH  30  31
BRANCH  30  39
HETATM   39  N   UNL     1     -13.025  11.492  70.746  1.00  0.00    -0.113 NA 
HETATM   40  H   UNL     1     -13.549  11.122  69.953  1.00  0.00     0.000 HD 
BRANCH  39  41
HETATM   41  O   UNL     1     -12.924  10.724  71.907  1.00  0.00    -0.462 OA 
HETATM   42  C   UNL     1     -13.528   9.451  72.024  1.00  0.00    -0.449 C  
ENDBRANCH  39  41
ENDBRANCH  30  39
ENDBRANCH  28  30
ENDBRANCH   6  26
TORSDOF 8
ENDMDL
MODEL      273
REMARK 921   NORMALIZED FREE ENERGY PREDICTED BY IDOCK:   -4.64 KCAL/MOL
REMARK 922        TOTAL FREE ENERGY PREDICTED BY IDOCK:   -8.08 KCAL/MOL
REMARK 923 INTER-LIGAND FREE ENERGY PREDICTED BY IDOCK:   -6.84 KCAL/MOL
REMARK 924 INTRA-LIGAND FREE ENERGY PREDICTED BY IDOCK:   -1.24 KCAL/MOL
REMARK 927      BINDING AFFINITY PREDICTED BY RF-SCORE:    0.00 PKD
ROOT
HETATM    1  C   UNL     1      -8.320   8.776  71.620  1.00  0.00    -0.125 C  
HETATM    2  S   UNL     1      -8.818   8.115  73.186  1.00  0.00    -0.242 SA 
HETATM    3  C   UNL     1      -8.567   6.310  73.009  1.00  0.00    -0.121 C  
HETATM    4  C   UNL     1      -7.966   5.769  71.743  1.00  0.00    -0.114 C  
HETATM    5  CA  UNL     1      -7.616   6.540  70.668  1.00  0.00    -0.102 C  
HETATM    6  CA  UNL     1      -9.099   9.601  70.508  1.00  0.00    -0.139 C  
HETATM    7  C   UNL     1      -8.210   8.730  69.567  1.00  0.00    -0.111 C  
HETATM    8  N   UNL     1      -7.922   7.872  70.581  1.00  0.00    -0.095 N  
HETATM    9  C   UNL     1      -6.874   5.900  69.524  1.00  0.00    -0.062 C  
HETATM   10  O   UNL     1      -8.088   8.667  68.367  1.00  0.00    -0.115 OA 
HETATM   11  O   UNL     1      -7.181   6.300  68.274  1.00  0.00    -0.080 OA 
HETATM   12  OXT UNL     1      -6.005   5.060  69.702  1.00  0.00    -0.019 OA 
ENDROOT
BRANCH   4  13
HETATM   13  C   UNL     1      -7.824   4.219  71.674  1.00  0.00    -0.078 C  
BRANCH  13  14
HETATM   14  S   UNL     1      -9.043   3.212  70.737  1.00  0.00    -0.129 SA 
BRANCH  14  15
HETATM   15  C   UNL     1      -9.775   4.296  69.529  1.00  0.00    -0.201 C  
HETATM   16  N   UNL     1     -10.398   5.311  70.019  1.00  0.00    -0.289 N  
HETATM   17  H   UNL     1     -10.364   5.530  71.014  1.00  0.00     0.000 HD 
HETATM   18  C   UNL     1      -9.207   2.727  67.600  1.00  0.00    -0.198 C  
HETATM   19  C   UNL     1     -11.114   6.088  69.132  1.00  0.00    -0.335 C  
HETATM   20  N   UNL     1      -9.735   3.951  68.175  1.00  0.00    -0.111 NA 
HETATM   21  C   UNL     1     -10.841   6.035  67.630  1.00  0.00    -0.295 C  
HETATM   22  O   UNL     1     -12.077   6.779  69.464  1.00  0.00     0.045 OA 
HETATM   23  H   UNL     1     -10.421   4.535  66.257  1.00  0.00     0.000 HD 
HETATM   24  N   UNL     1     -10.348   4.818  67.234  1.00  0.00    -0.109 N  
HETATM   25  O   UNL     1     -11.084   6.949  66.859  1.00  0.00    -0.379 OA 
ENDBRANCH  14  15
ENDBRANCH  13  14
ENDBRANCH   4  13
BRANCH   6  26
HETATM   26  N   UNL     1     -10.553   9.655  70.020  1.00  0.00    -0.240 N  
HETATM   27  O   UNL     1     -12.533  10.398  69.174  1.00  0.00    -0.117 OA 
HETATM   28  C   UNL     1     -11.346  10.632  69.394  1.00  0.00    -0.284 C  
HETATM   29  H   UNL     1     -11.058   8.785  70.187  1.00  0.00     0.000 HD 
BRANCH  28  30
HETATM   30  C   UNL     1     -10.764  11.887  68.802  1.00  0.00    -0.224 C  
BRANCH  30  31
HETATM   31  C   UNL     1     -11.345  13.227  68.951  1.00  0.00    -0.288 A  
HETATM   32  H2  UNL     1     -12.951  16.568  71.088  1.00  0.00     0.000 HD 
HETATM   33  C   UNL     1     -10.878  14.305  68.218  1.00  0.00    -0.246 A  
HETATM   34  H1  UNL     1     -13.427  15.029  71.806  1.00  0.00     0.000 HD 
HETATM   35  N   UNL     1     -12.140  13.595  70.049  1.00  0.00    -0.338 NA 
HETATM   36  N   UNL     1     -12.933  15.548  71.081  1.00  0.00    -0.480 NA 
HETATM   37  S   UNL     1     -11.426  15.777  68.893  1.00  0.00    -0.389 SA 
HETATM   38  C   UNL     1     -12.260  14.902  70.116  1.00  0.00    -0.336 A  
ENDBRANCH  30  31
BRANCH  30  39
HETATM   39  N   UNL     1      -9.821  11.882  67.919  1.00  0.00    -0.185 NA 
HETATM   40  H   UNL     1     -10.061  11.724  66.940  1.00  0.00     0.000 HD 
BRANCH  39  41
HETATM   41  O   UNL     1      -8.485  12.087  68.262  1.00  0.00    -0.159 OA 
HETATM   42  C   UNL     1      -7.478  12.286  67.290  1.00  0.00    -0.147 C  
ENDBRANCH  39  41
ENDBRANCH  30  39
ENDBRANCH  28  30
ENDBRANCH   6  26
TORSDOF 8
ENDMDL
MODEL      274
REMARK 921   NORMALIZED FREE ENERGY PREDICTED BY IDOCK:   -4.62 KCAL/MOL
REMARK 922        TOTAL FREE ENERGY PREDICTED BY IDOCK:   -8.04 KCAL/MOL
REMARK 923 INTER-LIGAND FREE ENERGY PREDICTED BY IDOCK:   -6.85 KCAL/MOL
REMARK 924 INTRA-LIGAND FREE ENERGY PREDICTED BY IDOCK:   -1.18 KCAL/MOL
REMARK 927      BINDING AFFINITY PREDICTED BY RF-SCORE:    0.00 PKD
ROOT
HETATM    1  C   UNL     1      -7.930   8.111  66.651  1.00  0.00    -0.102 C  
HETATM    2  S   UNL     1      -9.638   8.408  66.285  1.00  0.00    -0.182 SA 
HETATM    3  C   UNL     1      -9.902  10.153  66.775  1.00  0.00    -0.196 C  
HETATM    4  C   UNL     1      -8.737  10.966  67.264  1.00  0.00    -0.131 C  
HETATM    5  CA  UNL     1      -7.466  10.479  67.410  1.00  0.00    -0.094 C  
HETATM    6  CA  UNL     1      -7.207   7.091  67.631  1.00  0.00    -0.091 C  
HETATM    7  C   UNL     1      -6.248   8.308  67.818  1.00  0.00    -0.052 C  
HETATM    8  N   UNL     1      -7.161   9.152  67.267  1.00  0.00    -0.082 N  
HETATM    9  C   UNL     1      -6.355  11.436  67.753  1.00  0.00    -0.057 C  
HETATM   10  O   UNL     1      -5.246   8.482  68.468  1.00  0.00    -0.032 OA 
HETATM   11  O   UNL     1      -5.400  11.010  68.603  1.00  0.00    -0.041 OA 
HETATM   12  OXT UNL     1      -6.291  12.556  67.272  1.00  0.00    -0.156 OA 
ENDROOT
BRANCH   4  13
HETATM   13  C   UNL     1      -9.068  12.428  67.690  1.00  0.00    -0.186 C  
BRANCH  13  14
HETATM   14  S   UNL     1     -10.749  13.118  67.421  1.00  0.00    -0.256 SA 
BRANCH  14  15
HETATM   15  C   UNL     1     -10.680  14.829  67.909  1.00  0.00    -0.259 C  
HETATM   16  N   UNL     1     -10.747  15.033  69.178  1.00  0.00    -0.240 N  
HETATM   17  H   UNL     1     -10.719  14.262  69.846  1.00  0.00     0.000 HD 
HETATM   18  C   UNL     1     -10.780  15.646  65.495  1.00  0.00    -0.389 C  
HETATM   19  C   UNL     1     -10.857  16.344  69.592  1.00  0.00    -0.346 C  
HETATM   20  N   UNL     1     -10.669  15.828  66.931  1.00  0.00    -0.315 NA 
HETATM   21  C   UNL     1     -10.481  17.502  68.670  1.00  0.00    -0.338 C  
HETATM   22  O   UNL     1     -11.361  16.674  70.667  1.00  0.00    -0.222 OA 
HETATM   23  H   UNL     1     -10.736  17.927  66.654  1.00  0.00     0.000 HD 
HETATM   24  N   UNL     1     -10.639  17.184  67.345  1.00  0.00    -0.326 N  
HETATM   25  O   UNL     1     -10.132  18.604  69.063  1.00  0.00    -0.394 OA 
ENDBRANCH  14  15
ENDBRANCH  13  14
ENDBRANCH   4  13
BRANCH   6  26
HETATM   26  N   UNL     1      -7.563   6.443  68.976  1.00  0.00    -0.098 N  
HETATM   27  O   UNL     1      -8.722   5.461  70.673  1.00  0.00    -0.123 OA 
HETATM   28  C   UNL     1      -8.719   5.846  69.506  1.00  0.00    -0.116 C  
HETATM   29  H   UNL     1      -6.785   6.448  69.635  1.00  0.00     0.000 HD 
BRANCH  28  30
HETATM   30  C   UNL     1      -9.901   5.476  68.651  1.00  0.00    -0.148 C  
BRANCH  30  31
HETATM   31  C   UNL     1      -9.857   4.523  67.534  1.00  0.00    -0.140 A  
HETATM   32  H2  UNL     1      -9.983   3.308  63.433  1.00  0.00     0.000 HD 
HETATM   33  C   UNL     1      -8.933   3.491  67.498  1.00  0.00    -0.145 A  
HETATM   34  H1  UNL     1     -11.112   4.620  63.773  1.00  0.00     0.000 HD 
HETATM   35  N   UNL     1     -10.474   4.769  66.297  1.00  0.00    -0.298 NA 
HETATM   36  N   UNL     1     -10.405   3.960  64.095  1.00  0.00    -0.233 NA 
HETATM   37  S   UNL     1      -8.831   2.828  65.925  1.00  0.00    -0.136 SA 
HETATM   38  C   UNL     1     -10.024   3.941  65.382  1.00  0.00    -0.137 A  
ENDBRANCH  30  31
BRANCH  30  39
HETATM   39  N   UNL     1     -11.018   6.124  68.668  1.00  0.00    -0.333 NA 
HETATM   40  H   UNL     1     -11.627   6.082  67.851  1.00  0.00     0.000 HD 
BRANCH  39  41
HETATM   41  O   UNL     1     -11.418   6.879  69.771  1.00  0.00    -0.259 OA 
HETATM   42  C   UNL     1     -10.945   8.193  69.997  1.00  0.00    -0.199 C  
ENDBRANCH  39  41
ENDBRANCH  30  39
ENDBRANCH  28  30
ENDBRANCH   6  26
TORSDOF 8
ENDMDL
MODEL      275
REMARK 921   NORMALIZED FREE ENERGY PREDICTED BY IDOCK:   -4.60 KCAL/MOL
REMARK 922        TOTAL FREE ENERGY PREDICTED BY IDOCK:   -8.02 KCAL/MOL
REMARK 923 INTER-LIGAND FREE ENERGY PREDICTED BY IDOCK:   -6.78 KCAL/MOL
REMARK 924 INTRA-LIGAND FREE ENERGY PREDICTED BY IDOCK:   -1.24 KCAL/MOL
REMARK 927      BINDING AFFINITY PREDICTED BY RF-SCORE:    0.00 PKD
ROOT
HETATM    1  C   UNL     1     -11.030   9.154  68.152  1.00  0.00     0.040 C  
HETATM    2  S   UNL     1     -10.153   7.942  67.203  1.00  0.00    -0.287 SA 
HETATM    3  C   UNL     1      -9.898   6.558  68.374  1.00  0.00    -0.137 C  
HETATM    4  C   UNL     1     -10.485   6.642  69.754  1.00  0.00    -0.248 C  
HETATM    5  CA  UNL     1     -11.185   7.717  70.228  1.00  0.00    -0.206 C  
HETATM    6  CA  UNL     1     -10.680  10.647  68.568  1.00  0.00    -0.217 C  
HETATM    7  C   UNL     1     -11.401  10.206  69.880  1.00  0.00    -0.275 C  
HETATM    8  N   UNL     1     -11.289   8.895  69.538  1.00  0.00     0.111 N  
HETATM    9  C   UNL     1     -11.861   7.612  71.570  1.00  0.00    -0.295 C  
HETATM   10  O   UNL     1     -11.663  10.774  70.913  1.00  0.00    -0.320 OA 
HETATM   11  O   UNL     1     -11.856   8.702  72.363  1.00  0.00    -0.372 OA 
HETATM   12  OXT UNL     1     -12.420   6.590  71.938  1.00  0.00    -0.347 OA 
ENDROOT
BRANCH   4  13
HETATM   13  C   UNL     1     -10.184   5.431  70.688  1.00  0.00    -0.253 C  
BRANCH  13  14
HETATM   14  S   UNL     1      -8.455   5.023  71.156  1.00  0.00    -0.122 SA 
BRANCH  14  15
HETATM   15  C   UNL     1      -7.636   4.495  69.666  1.00  0.00    -0.054 C  
HETATM   16  N   UNL     1      -8.166   3.475  69.089  1.00  0.00    -0.060 N  
HETATM   17  H   UNL     1      -9.054   3.084  69.403  1.00  0.00     0.000 HD 
HETATM   18  C   UNL     1      -5.719   6.146  69.993  1.00  0.00    -0.014 C  
HETATM   19  C   UNL     1      -7.475   2.935  68.023  1.00  0.00    -0.053 C  
HETATM   20  N   UNL     1      -6.447   5.118  69.272  1.00  0.00    -0.034 NA 
HETATM   21  C   UNL     1      -6.401   3.733  67.287  1.00  0.00    -0.037 C  
HETATM   22  O   UNL     1      -7.591   1.761  67.668  1.00  0.00    -0.057 OA 
HETATM   23  H   UNL     1      -4.882   5.032  67.848  1.00  0.00     0.000 HD 
HETATM   24  N   UNL     1      -5.800   4.664  68.095  1.00  0.00    -0.021 N  
HETATM   25  O   UNL     1      -6.075   3.533  66.128  1.00  0.00    -0.023 OA 
ENDBRANCH  14  15
ENDBRANCH  13  14
ENDBRANCH   4  13
BRANCH   6  26
HETATM   26  N   UNL     1      -9.383  11.413  68.869  1.00  0.00    -0.380 N  
HETATM   27  O   UNL     1      -7.496  12.664  68.628  1.00  0.00    -0.116 OA 
HETATM   28  C   UNL     1      -8.524  12.228  68.114  1.00  0.00    -0.176 C  
HETATM   29  H   UNL     1      -9.076  11.304  69.835  1.00  0.00     0.000 HD 
BRANCH  28  30
HETATM   30  C   UNL     1      -8.899  12.756  66.755  1.00  0.00    -0.159 C  
BRANCH  30  31
HETATM   31  C   UNL     1      -9.709  13.959  66.523  1.00  0.00    -0.294 A  
HETATM   32  H2  UNL     1     -10.613  18.140  66.647  1.00  0.00     0.000 HD 
HETATM   33  C   UNL     1     -10.392  14.154  65.333  1.00  0.00    -0.365 A  
HETATM   34  H1  UNL     1      -9.751  17.603  68.090  1.00  0.00     0.000 HD 
HETATM   35  N   UNL     1      -9.585  15.124  67.298  1.00  0.00    -0.208 NA 
HETATM   36  N   UNL     1     -10.175  17.392  67.186  1.00  0.00    -0.314 NA 
HETATM   37  S   UNL     1     -10.877  15.787  65.177  1.00  0.00    -0.397 SA 
HETATM   38  C   UNL     1     -10.163  16.141  66.700  1.00  0.00    -0.287 A  
ENDBRANCH  30  31
BRANCH  30  39
HETATM   39  N   UNL     1      -8.736  12.085  65.664  1.00  0.00    -0.334 NA 
HETATM   40  H   UNL     1      -8.150  12.475  64.926  1.00  0.00     0.000 HD 
BRANCH  39  41
HETATM   41  O   UNL     1      -9.338  10.842  65.464  1.00  0.00    -0.188 OA 
HETATM   42  C   UNL     1     -10.350  10.640  64.497  1.00  0.00    -0.282 C  
ENDBRANCH  39  41
ENDBRANCH  30  39
ENDBRANCH  28  30
ENDBRANCH   6  26
TORSDOF 8
ENDMDL
MODEL      276
REMARK 921   NORMALIZED FREE ENERGY PREDICTED BY IDOCK:   -4.59 KCAL/MOL
REMARK 922        TOTAL FREE ENERGY PREDICTED BY IDOCK:   -8.00 KCAL/MOL
REMARK 923 INTER-LIGAND FREE ENERGY PREDICTED BY IDOCK:   -8.03 KCAL/MOL
REMARK 924 INTRA-LIGAND FREE ENERGY PREDICTED BY IDOCK:    0.03 KCAL/MOL
REMARK 927      BINDING AFFINITY PREDICTED BY RF-SCORE:    0.00 PKD
ROOT
HETATM    1  C   UNL     1     -11.677  15.285  68.528  1.00  0.00    -0.332 C  
HETATM    2  S   UNL     1     -11.402  15.879  70.174  1.00  0.00    -0.382 SA 
HETATM    3  C   UNL     1     -10.516  17.464  69.934  1.00  0.00     0.404 C  
HETATM    4  C   UNL     1     -10.281  17.973  68.540  1.00  0.00    -0.392 C  
HETATM    5  CA  UNL     1     -10.656  17.308  67.405  1.00  0.00    -0.303 C  
HETATM    6  CA  UNL     1     -11.209  13.968  67.771  1.00  0.00    -0.281 C  
HETATM    7  C   UNL     1     -11.105  14.968  66.578  1.00  0.00    -0.329 C  
HETATM    8  N   UNL     1     -11.150  16.032  67.424  1.00  0.00    -0.230 N  
HETATM    9  C   UNL     1     -10.510  17.999  66.074  1.00  0.00    -0.313 C  
HETATM   10  O   UNL     1     -10.795  14.845  65.417  1.00  0.00    -0.323 OA 
HETATM   11  O   UNL     1     -10.118  17.256  65.020  1.00  0.00    -0.090 OA 
HETATM   12  OXT UNL     1     -10.752  19.187  65.929  1.00  0.00    -0.454 OA 
ENDROOT
BRANCH   4  13
HETATM   13  C   UNL     1      -9.489  19.312  68.438  1.00  0.00    -0.376 C  
BRANCH  13  14
HETATM   14  S   UNL     1      -7.746  19.409  69.010  1.00  0.00    -0.238 SA 
BRANCH  14  15
HETATM   15  C   UNL     1      -7.002  17.834  68.642  1.00  0.00    -0.247 C  
HETATM   16  N   UNL     1      -7.552  17.188  67.675  1.00  0.00    -0.165 N  
HETATM   17  H   UNL     1      -8.278  17.609  67.095  1.00  0.00     0.000 HD 
HETATM   18  C   UNL     1      -5.451  17.960  70.663  1.00  0.00    -0.216 C  
HETATM   19  C   UNL     1      -7.112  15.898  67.459  1.00  0.00    -0.179 C  
HETATM   20  N   UNL     1      -5.973  17.348  69.455  1.00  0.00    -0.223 NA 
HETATM   21  C   UNL     1      -5.775  15.412  68.015  1.00  0.00    -0.135 C  
HETATM   22  O   UNL     1      -7.798  15.032  66.914  1.00  0.00    -0.179 OA 
HETATM   23  H   UNL     1      -4.738  15.661  69.796  1.00  0.00     0.000 HD 
HETATM   24  N   UNL     1      -5.414  16.080  69.157  1.00  0.00    -0.110 N  
HETATM   25  O   UNL     1      -5.127  14.498  67.533  1.00  0.00    -0.326 OA 
ENDBRANCH  14  15
ENDBRANCH  13  14
ENDBRANCH   4  13
BRANCH   6  26
HETATM   26  N   UNL     1      -9.977  13.055  67.849  1.00  0.00    -0.223 N  
HETATM   27  O   UNL     1      -8.517  11.344  67.490  1.00  0.00    -0.131 OA 
HETATM   28  C   UNL     1      -9.554  11.912  67.150  1.00  0.00    -0.186 C  
HETATM   29  H   UNL     1      -9.317  13.343  68.571  1.00  0.00     0.000 HD 
BRANCH  28  30
HETATM   30  C   UNL     1     -10.209  11.457  65.874  1.00  0.00    -0.246 C  
BRANCH  30  31
HETATM   31  C   UNL     1      -9.484  11.000  64.681  1.00  0.00    -0.234 A  
HETATM   32  H2  UNL     1      -6.619   8.686  62.504  1.00  0.00     0.000 HD 
HETATM   33  C   UNL     1     -10.137  10.764  63.482  1.00  0.00    -0.302 A  
HETATM   34  H1  UNL     1      -6.020   9.160  64.094  1.00  0.00     0.000 HD 
HETATM   35  N   UNL     1      -8.194  10.446  64.738  1.00  0.00    -0.161 NA 
HETATM   36  N   UNL     1      -6.757   9.174  63.389  1.00  0.00    -0.090 NA 
HETATM   37  S   UNL     1      -9.149   9.853  62.426  1.00  0.00    -0.286 SA 
HETATM   38  C   UNL     1      -7.906   9.829  63.615  1.00  0.00    -0.142 A  
ENDBRANCH  30  31
BRANCH  30  39
HETATM   39  N   UNL     1     -11.463  11.633  65.620  1.00  0.00    -0.207 NA 
HETATM   40  H   UNL     1     -12.155  11.130  66.175  1.00  0.00     0.000 HD 
BRANCH  39  41
HETATM   41  O   UNL     1     -11.900  12.490  64.609  1.00  0.00    -0.343 OA 
HETATM   42  C   UNL     1     -13.146  12.321  63.963  1.00  0.00    -0.058 C  
ENDBRANCH  39  41
ENDBRANCH  30  39
ENDBRANCH  28  30
ENDBRANCH   6  26
TORSDOF 8
ENDMDL
MODEL      277
REMARK 921   NORMALIZED FREE ENERGY PREDICTED BY IDOCK:   -4.59 KCAL/MOL
REMARK 922        TOTAL FREE ENERGY PREDICTED BY IDOCK:   -7.99 KCAL/MOL
REMARK 923 INTER-LIGAND FREE ENERGY PREDICTED BY IDOCK:   -7.46 KCAL/MOL
REMARK 924 INTRA-LIGAND FREE ENERGY PREDICTED BY IDOCK:   -0.53 KCAL/MOL
REMARK 927      BINDING AFFINITY PREDICTED BY RF-SCORE:    0.00 PKD
ROOT
HETATM    1  C   UNL     1     -10.205  16.657  67.279  1.00  0.00    -0.290 C  
HETATM    2  S   UNL     1      -9.256  15.895  65.991  1.00  0.00    -0.302 SA 
HETATM    3  C   UNL     1      -9.289  14.112  66.409  1.00  0.00    -0.230 C  
HETATM    4  C   UNL     1     -10.097  13.646  67.587  1.00  0.00    -0.242 C  
HETATM    5  CA  UNL     1     -10.799  14.477  68.415  1.00  0.00    -0.243 C  
HETATM    6  CA  UNL     1      -9.840  17.744  68.379  1.00  0.00    -0.347 C  
HETATM    7  C   UNL     1     -10.800  16.862  69.237  1.00  0.00    -0.214 C  
HETATM    8  N   UNL     1     -10.712  15.841  68.343  1.00  0.00    -0.269 N  
HETATM    9  C   UNL     1     -11.699  13.873  69.461  1.00  0.00    -0.313 C  
HETATM   10  O   UNL     1     -11.198  16.935  70.374  1.00  0.00    -0.020 OA 
HETATM   11  O   UNL     1     -11.762  14.479  70.663  1.00  0.00    -0.286 OA 
HETATM   12  OXT UNL     1     -12.374  12.878  69.242  1.00  0.00    -0.132 OA 
ENDROOT
BRANCH   4  13
HETATM   13  C   UNL     1     -10.034  12.116  67.882  1.00  0.00    -0.200 C  
BRANCH  13  14
HETATM   14  S   UNL     1     -11.024  10.933  66.885  1.00  0.00    -0.165 SA 
BRANCH  14  15
HETATM   15  C   UNL     1      -9.959  10.349  65.584  1.00  0.00    -0.272 C  
HETATM   16  N   UNL     1      -9.829  11.153  64.588  1.00  0.00    -0.261 N  
HETATM   17  H   UNL     1     -10.213  12.098  64.609  1.00  0.00     0.000 HD 
HETATM   18  C   UNL     1      -9.698   8.054  66.666  1.00  0.00    -0.243 C  
HETATM   19  C   UNL     1      -9.143  10.677  63.489  1.00  0.00    -0.238 C  
HETATM   20  N   UNL     1      -9.427   9.058  65.653  1.00  0.00    -0.234 NA 
HETATM   21  C   UNL     1      -8.219   9.465  63.595  1.00  0.00    -0.169 C  
HETATM   22  O   UNL     1      -9.308  11.111  62.349  1.00  0.00    -0.282 OA 
HETATM   23  H   UNL     1      -8.289   7.635  64.572  1.00  0.00     0.000 HD 
HETATM   24  N   UNL     1      -8.601   8.605  64.593  1.00  0.00    -0.137 N  
HETATM   25  O   UNL     1      -7.280   9.255  62.844  1.00  0.00    -0.101 OA 
ENDBRANCH  14  15
ENDBRANCH  13  14
ENDBRANCH   4  13
BRANCH   6  26
HETATM   26  N   UNL     1      -8.569  18.114  69.156  1.00  0.00     0.023 N  
HETATM   27  O   UNL     1      -6.389  18.316  69.781  1.00  0.00    -0.222 OA 
HETATM   28  C   UNL     1      -7.192  17.968  68.919  1.00  0.00    -0.259 C  
HETATM   29  H   UNL     1      -8.770  18.568  70.047  1.00  0.00     0.000 HD 
BRANCH  28  30
HETATM   30  C   UNL     1      -6.642  17.582  67.572  1.00  0.00    -0.154 C  
BRANCH  30  31
HETATM   31  C   UNL     1      -6.352  18.528  66.487  1.00  0.00    -0.184 A  
HETATM   32  H2  UNL     1      -5.714  19.742  62.434  1.00  0.00     0.000 HD 
HETATM   33  C   UNL     1      -6.913  19.795  66.461  1.00  0.00    -0.220 A  
HETATM   34  H1  UNL     1      -5.055  18.138  62.759  1.00  0.00     0.000 HD 
HETATM   35  N   UNL     1      -5.797  18.133  65.259  1.00  0.00    -0.167 NA 
HETATM   36  N   UNL     1      -5.537  18.977  63.085  1.00  0.00    -0.315 NA 
HETATM   37  S   UNL     1      -6.751  20.494  64.909  1.00  0.00    -0.132 SA 
HETATM   38  C   UNL     1      -5.939  19.082  64.361  1.00  0.00    -0.192 A  
ENDBRANCH  30  31
BRANCH  30  39
HETATM   39  N   UNL     1      -6.579  16.361  67.156  1.00  0.00    -0.186 NA 
HETATM   40  H   UNL     1      -6.373  16.183  66.173  1.00  0.00     0.000 HD 
BRANCH  39  41
HETATM   41  O   UNL     1      -6.784  15.277  68.010  1.00  0.00    -0.118 OA 
HETATM   42  C   UNL     1      -6.194  14.013  67.780  1.00  0.00    -0.140 C  
ENDBRANCH  39  41
ENDBRANCH  30  39
ENDBRANCH  28  30
ENDBRANCH   6  26
TORSDOF 8
ENDMDL
MODEL      278
REMARK 921   NORMALIZED FREE ENERGY PREDICTED BY IDOCK:   -4.57 KCAL/MOL
REMARK 922        TOTAL FREE ENERGY PREDICTED BY IDOCK:   -7.97 KCAL/MOL
REMARK 923 INTER-LIGAND FREE ENERGY PREDICTED BY IDOCK:   -6.65 KCAL/MOL
REMARK 924 INTRA-LIGAND FREE ENERGY PREDICTED BY IDOCK:   -1.31 KCAL/MOL
REMARK 927      BINDING AFFINITY PREDICTED BY RF-SCORE:    0.00 PKD
ROOT
HETATM    1  C   UNL     1      -8.840  11.131  66.681  1.00  0.00    -0.166 C  
HETATM    2  S   UNL     1      -7.201  10.642  66.218  1.00  0.00    -0.138 SA 
HETATM    3  C   UNL     1      -6.893   9.129  67.204  1.00  0.00    -0.080 C  
HETATM    4  C   UNL     1      -7.989   8.577  68.070  1.00  0.00    -0.111 C  
HETATM    5  CA  UNL     1      -9.222   9.152  68.210  1.00  0.00    -0.132 C  
HETATM    6  CA  UNL     1      -9.412  12.446  67.366  1.00  0.00    -0.186 C  
HETATM    7  C   UNL     1     -10.349  11.403  68.051  1.00  0.00    -0.184 C  
HETATM    8  N   UNL     1      -9.529  10.381  67.690  1.00  0.00    -0.148 N  
HETATM    9  C   UNL     1     -10.288   8.415  68.978  1.00  0.00    -0.218 C  
HETATM   10  O   UNL     1     -11.256  11.498  68.844  1.00  0.00    -0.206 OA 
HETATM   11  O   UNL     1     -11.113   9.138  69.760  1.00  0.00    -0.215 OA 
HETATM   12  OXT UNL     1     -10.429   7.205  68.893  1.00  0.00    -0.197 OA 
ENDROOT
BRANCH   4  13
HETATM   13  C   UNL     1      -7.619   7.308  68.896  1.00  0.00    -0.103 C  
BRANCH  13  14
HETATM   14  S   UNL     1      -6.961   5.810  68.059  1.00  0.00    -0.067 SA 
BRANCH  14  15
HETATM   15  C   UNL     1      -7.758   4.412  68.819  1.00  0.00    -0.066 C  
HETATM   16  N   UNL     1      -7.209   4.002  69.909  1.00  0.00    -0.042 N  
HETATM   17  H   UNL     1      -6.452   4.520  70.354  1.00  0.00     0.000 HD 
HETATM   18  C   UNL     1      -9.356   4.103  66.855  1.00  0.00    -0.174 C  
HETATM   19  C   UNL     1      -7.695   2.827  70.446  1.00  0.00    -0.043 C  
HETATM   20  N   UNL     1      -8.827   3.787  68.169  1.00  0.00    -0.104 NA 
HETATM   21  C   UNL     1      -9.065   2.280  70.049  1.00  0.00    -0.109 C  
HETATM   22  O   UNL     1      -7.031   2.094  71.179  1.00  0.00    -0.031 OA 
HETATM   23  H   UNL     1     -10.138   2.127  68.279  1.00  0.00     0.000 HD 
HETATM   24  N   UNL     1      -9.430   2.659  68.783  1.00  0.00    -0.165 N  
HETATM   25  O   UNL     1      -9.737   1.545  70.755  1.00  0.00    -0.113 OA 
ENDBRANCH  14  15
ENDBRANCH  13  14
ENDBRANCH   4  13
BRANCH   6  26
HETATM   26  N   UNL     1      -8.868  13.465  68.377  1.00  0.00    -0.274 N  
HETATM   27  O   UNL     1      -8.340  15.420  69.419  1.00  0.00    -0.238 OA 
HETATM   28  C   UNL     1      -8.951  14.861  68.510  1.00  0.00    -0.179 C  
HETATM   29  H   UNL     1      -8.323  13.030  69.121  1.00  0.00     0.000 HD 
BRANCH  28  30
HETATM   30  C   UNL     1      -9.914  15.692  67.706  1.00  0.00    -0.223 C  
BRANCH  30  31
HETATM   31  C   UNL     1      -9.576  16.966  67.058  1.00  0.00    -0.248 A  
HETATM   32  H2  UNL     1      -9.389  21.224  66.682  1.00  0.00     0.000 HD 
HETATM   33  C   UNL     1      -8.356  17.159  66.431  1.00  0.00    -0.280 A  
HETATM   34  H1  UNL     1     -10.890  20.689  67.439  1.00  0.00     0.000 HD 
HETATM   35  N   UNL     1     -10.274  18.159  67.311  1.00  0.00    -0.350 NA 
HETATM   36  N   UNL     1      -9.991  20.469  67.011  1.00  0.00    -0.429 NA 
HETATM   37  S   UNL     1      -8.075  18.823  66.157  1.00  0.00    -0.127 SA 
HETATM   38  C   UNL     1      -9.591  19.195  66.877  1.00  0.00    -0.325 A  
ENDBRANCH  30  31
BRANCH  30  39
HETATM   39  N   UNL     1     -11.189  15.484  67.691  1.00  0.00    -0.316 NA 
HETATM   40  H   UNL     1     -11.736  15.823  66.900  1.00  0.00     0.000 HD 
BRANCH  39  41
HETATM   41  O   UNL     1     -11.840  14.811  68.725  1.00  0.00    -0.308 OA 
HETATM   42  C   UNL     1     -11.961  15.357  70.024  1.00  0.00    -0.356 C  
ENDBRANCH  39  41
ENDBRANCH  30  39
ENDBRANCH  28  30
ENDBRANCH   6  26
TORSDOF 8
ENDMDL
MODEL      279
REMARK 921   NORMALIZED FREE ENERGY PREDICTED BY IDOCK:   -4.56 KCAL/MOL
REMARK 922        TOTAL FREE ENERGY PREDICTED BY IDOCK:   -7.95 KCAL/MOL
REMARK 923 INTER-LIGAND FREE ENERGY PREDICTED BY IDOCK:   -6.92 KCAL/MOL
REMARK 924 INTRA-LIGAND FREE ENERGY PREDICTED BY IDOCK:   -1.03 KCAL/MOL
REMARK 927      BINDING AFFINITY PREDICTED BY RF-SCORE:    0.00 PKD
ROOT
HETATM    1  C   UNL     1      -7.769  11.475  69.194  1.00  0.00     0.032 C  
HETATM    2  S   UNL     1      -6.632  12.708  68.625  1.00  0.00    -0.090 SA 
HETATM    3  C   UNL     1      -7.618  13.719  67.459  1.00  0.00    -0.173 C  
HETATM    4  C   UNL     1      -9.078  13.417  67.274  1.00  0.00    -0.222 C  
HETATM    5  CA  UNL     1      -9.738  12.395  67.899  1.00  0.00    -0.204 C  
HETATM    6  CA  UNL     1      -7.767   9.889  69.095  1.00  0.00    -0.098 C  
HETATM    7  C   UNL     1      -9.299  10.128  68.915  1.00  0.00    -0.179 C  
HETATM    8  N   UNL     1      -9.093  11.445  68.645  1.00  0.00    -0.165 N  
HETATM    9  C   UNL     1     -11.234  12.298  67.756  1.00  0.00    -0.276 C  
HETATM   10  O   UNL     1     -10.241   9.389  68.764  1.00  0.00    -0.190 OA 
HETATM   11  O   UNL     1     -11.776  11.070  67.645  1.00  0.00    -0.576 OA 
HETATM   12  OXT UNL     1     -11.952  13.286  67.759  1.00  0.00    -0.349 OA 
ENDROOT
BRANCH   4  13
HETATM   13  C   UNL     1      -9.823  14.310  66.235  1.00  0.00    -0.307 C  
BRANCH  13  14
HETATM   14  S   UNL     1     -10.481  15.955  66.722  1.00  0.00    -0.303 SA 
BRANCH  14  15
HETATM   15  C   UNL     1      -9.076  17.036  66.885  1.00  0.00    -0.236 C  
HETATM   16  N   UNL     1      -8.014  16.639  66.276  1.00  0.00    -0.325 N  
HETATM   17  H   UNL     1      -8.024  15.831  65.653  1.00  0.00     0.000 HD 
HETATM   18  C   UNL     1     -10.273  18.534  68.566  1.00  0.00    -0.351 C  
HETATM   19  C   UNL     1      -6.860  17.360  66.505  1.00  0.00    -0.254 C  
HETATM   20  N   UNL     1      -9.157  18.155  67.719  1.00  0.00    -0.260 NA 
HETATM   21  C   UNL     1      -6.909  18.778  67.072  1.00  0.00    -0.201 C  
HETATM   22  O   UNL     1      -5.730  16.886  66.380  1.00  0.00    -0.330 OA 
HETATM   23  H   UNL     1      -8.020  19.746  68.533  1.00  0.00     0.000 HD 
HETATM   24  N   UNL     1      -8.016  18.987  67.852  1.00  0.00    -0.271 N  
HETATM   25  O   UNL     1      -6.037  19.614  66.897  1.00  0.00    -0.177 OA 
ENDBRANCH  14  15
ENDBRANCH  13  14
ENDBRANCH   4  13
BRANCH   6  26
HETATM   26  N   UNL     1      -7.234   8.867  68.081  1.00  0.00    -0.079 N  
HETATM   27  O   UNL     1      -6.717   6.909  67.040  1.00  0.00    -0.052 OA 
HETATM   28  C   UNL     1      -7.318   7.471  67.953  1.00  0.00    -0.099 C  
HETATM   29  H   UNL     1      -6.696   9.300  67.331  1.00  0.00     0.000 HD 
BRANCH  28  30
HETATM   30  C   UNL     1      -8.273   6.642  68.769  1.00  0.00    -0.120 C  
BRANCH  30  31
HETATM   31  C   UNL     1      -7.907   5.905  69.986  1.00  0.00    -0.100 A  
HETATM   32  H2  UNL     1      -8.281   4.687  74.070  1.00  0.00     0.000 HD 
HETATM   33  C   UNL     1      -7.521   4.575  69.939  1.00  0.00    -0.050 A  
HETATM   34  H1  UNL     1      -8.693   6.387  73.843  1.00  0.00     0.000 HD 
HETATM   35  N   UNL     1      -8.243   6.349  71.275  1.00  0.00    -0.121 NA 
HETATM   36  N   UNL     1      -8.381   5.496  73.457  1.00  0.00    -0.113 NA 
HETATM   37  S   UNL     1      -7.575   3.877  71.499  1.00  0.00    -0.061 SA 
HETATM   38  C   UNL     1      -8.101   5.378  72.150  1.00  0.00    -0.111 A  
ENDBRANCH  30  31
BRANCH  30  39
HETATM   39  N   UNL     1      -9.453   6.312  68.360  1.00  0.00    -0.119 NA 
HETATM   40  H   UNL     1     -10.190   6.162  69.048  1.00  0.00     0.000 HD 
BRANCH  39  41
HETATM   41  O   UNL     1      -9.750   6.156  67.006  1.00  0.00    -0.130 OA 
HETATM   42  C   UNL     1     -10.635   5.157  66.537  1.00  0.00    -0.260 C  
ENDBRANCH  39  41
ENDBRANCH  30  39
ENDBRANCH  28  30
ENDBRANCH   6  26
TORSDOF 8
ENDMDL
MODEL      280
REMARK 921   NORMALIZED FREE ENERGY PREDICTED BY IDOCK:   -4.54 KCAL/MOL
REMARK 922        TOTAL FREE ENERGY PREDICTED BY IDOCK:   -7.92 KCAL/MOL
REMARK 923 INTER-LIGAND FREE ENERGY PREDICTED BY IDOCK:   -6.70 KCAL/MOL
REMARK 924 INTRA-LIGAND FREE ENERGY PREDICTED BY IDOCK:   -1.22 KCAL/MOL
REMARK 927      BINDING AFFINITY PREDICTED BY RF-SCORE:    0.00 PKD
ROOT
HETATM    1  C   UNL     1     -10.632   7.437  70.079  1.00  0.00    -0.232 C  
HETATM    2  S   UNL     1     -11.579   8.599  71.023  1.00  0.00    -0.275 SA 
HETATM    3  C   UNL     1     -11.504  10.141  70.037  1.00  0.00    -0.277 C  
HETATM    4  C   UNL     1     -10.806  10.131  68.706  1.00  0.00    -0.259 C  
HETATM    5  CA  UNL     1     -10.175   9.039  68.176  1.00  0.00    -0.204 C  
HETATM    6  CA  UNL     1      -9.313   6.614  70.405  1.00  0.00    -0.159 C  
HETATM    7  C   UNL     1      -9.032   6.910  68.899  1.00  0.00    -0.131 C  
HETATM    8  N   UNL     1      -9.984   7.881  68.880  1.00  0.00    -0.185 N  
HETATM    9  C   UNL     1      -9.655   9.112  66.764  1.00  0.00    -0.195 C  
HETATM   10  O   UNL     1      -8.130   6.619  68.151  1.00  0.00    -0.109 OA 
HETATM   11  O   UNL     1      -8.481   8.508  66.495  1.00  0.00    -0.109 OA 
HETATM   12  OXT UNL     1     -10.270   9.678  65.874  1.00  0.00    -0.259 OA 
ENDROOT
BRANCH   4  13
HETATM   13  C   UNL     1     -10.765  11.499  67.959  1.00  0.00    -0.202 C  
BRANCH  13  14
HETATM   14  S   UNL     1      -9.237  12.518  67.965  1.00  0.00    -0.207 SA 
BRANCH  14  15
HETATM   15  C   UNL     1      -9.760  14.217  68.064  1.00  0.00    -0.223 C  
HETATM   16  N   UNL     1      -9.930  14.663  69.259  1.00  0.00    -0.391 N  
HETATM   17  H   UNL     1      -9.666  14.114  70.077  1.00  0.00     0.000 HD 
HETATM   18  C   UNL     1     -10.052  14.398  65.536  1.00  0.00    -0.356 C  
HETATM   19  C   UNL     1     -10.487  15.920  69.380  1.00  0.00    -0.265 C  
HETATM   20  N   UNL     1     -10.053  14.920  66.891  1.00  0.00    -0.239 NA 
HETATM   21  C   UNL     1     -10.491  16.902  68.210  1.00  0.00    -0.352 C  
HETATM   22  O   UNL     1     -11.105  16.292  70.378  1.00  0.00    -0.359 OA 
HETATM   23  H   UNL     1     -10.810  16.760  66.164  1.00  0.00     0.000 HD 
HETATM   24  N   UNL     1     -10.492  16.264  66.996  1.00  0.00    -0.310 N  
HETATM   25  O   UNL     1     -10.543  18.115  68.337  1.00  0.00    -0.324 OA 
ENDBRANCH  14  15
ENDBRANCH  13  14
ENDBRANCH   4  13
BRANCH   6  26
HETATM   26  N   UNL     1      -8.068   6.861  71.269  1.00  0.00    -0.109 N  
HETATM   27  O   UNL     1      -6.362   6.576  72.751  1.00  0.00    -0.054 OA 
HETATM   28  C   UNL     1      -7.293   6.067  72.130  1.00  0.00    -0.094 C  
HETATM   29  H   UNL     1      -7.726   7.820  71.203  1.00  0.00     0.000 HD 
BRANCH  28  30
HETATM   30  C   UNL     1      -7.426   4.568  72.184  1.00  0.00    -0.080 C  
BRANCH  30  31
HETATM   31  C   UNL     1      -8.339   3.843  73.077  1.00  0.00    -0.092 A  
HETATM   32  H2  UNL     1     -11.921   1.757  74.138  1.00  0.00     0.000 HD 
HETATM   33  C   UNL     1      -7.876   2.884  73.962  1.00  0.00    -0.064 A  
HETATM   34  H1  UNL     1     -12.231   3.083  73.017  1.00  0.00     0.000 HD 
HETATM   35  N   UNL     1      -9.728   3.799  72.874  1.00  0.00    -0.126 NA 
HETATM   36  N   UNL     1     -11.578   2.539  73.580  1.00  0.00    -0.175 NA 
HETATM   37  S   UNL     1      -9.169   1.926  74.543  1.00  0.00    -0.069 SA 
HETATM   38  C   UNL     1     -10.271   2.843  73.594  1.00  0.00    -0.120 A  
ENDBRANCH  30  31
BRANCH  30  39
HETATM   39  N   UNL     1      -6.594   3.763  71.612  1.00  0.00    -0.018 NA 
HETATM   40  H   UNL     1      -5.615   3.778  71.898  1.00  0.00     0.000 HD 
BRANCH  39  41
HETATM   41  O   UNL     1      -6.993   2.871  70.616  1.00  0.00    -0.033 OA 
HETATM   42  C   UNL     1      -7.329   3.300  69.310  1.00  0.00    -0.048 C  
ENDBRANCH  39  41
ENDBRANCH  30  39
ENDBRANCH  28  30
ENDBRANCH   6  26
TORSDOF 8
ENDMDL
MODEL      281
REMARK 921   NORMALIZED FREE ENERGY PREDICTED BY IDOCK:   -4.50 KCAL/MOL
REMARK 922        TOTAL FREE ENERGY PREDICTED BY IDOCK:   -7.87 KCAL/MOL
REMARK 923 INTER-LIGAND FREE ENERGY PREDICTED BY IDOCK:   -6.86 KCAL/MOL
REMARK 924 INTRA-LIGAND FREE ENERGY PREDICTED BY IDOCK:   -1.01 KCAL/MOL
REMARK 927      BINDING AFFINITY PREDICTED BY RF-SCORE:    0.00 PKD
ROOT
HETATM    1  C   UNL     1      -7.704  11.150  69.007  1.00  0.00    -0.114 C  
HETATM    2  S   UNL     1      -6.834  12.659  68.679  1.00  0.00    -0.096 SA 
HETATM    3  C   UNL     1      -7.950  13.581  67.556  1.00  0.00    -0.181 C  
HETATM    4  C   UNL     1      -9.295  13.005  67.216  1.00  0.00    -0.220 C  
HETATM    5  CA  UNL     1      -9.749  11.795  67.664  1.00  0.00    -0.182 C  
HETATM    6  CA  UNL     1      -7.348   9.627  68.729  1.00  0.00    -0.074 C  
HETATM    7  C   UNL     1      -8.882   9.560  68.449  1.00  0.00    -0.124 C  
HETATM    8  N   UNL     1      -8.955  10.913  68.348  1.00  0.00    -0.147 N  
HETATM    9  C   UNL     1     -11.176  11.403  67.386  1.00  0.00    -0.305 C  
HETATM   10  O   UNL     1      -9.629   8.664  68.137  1.00  0.00    -0.143 OA 
HETATM   11  O   UNL     1     -11.428  10.113  67.091  1.00  0.00    -0.103 OA 
HETATM   12  OXT UNL     1     -12.093  12.208  67.441  1.00  0.00    -0.553 OA 
ENDROOT
BRANCH   4  13
HETATM   13  C   UNL     1     -10.157  13.847  66.227  1.00  0.00    -0.300 C  
BRANCH  13  14
HETATM   14  S   UNL     1     -11.261  15.176  66.852  1.00  0.00    -0.246 SA 
BRANCH  14  15
HETATM   15  C   UNL     1     -10.233  16.602  67.129  1.00  0.00    -0.290 C  
HETATM   16  N   UNL     1      -9.518  16.958  66.120  1.00  0.00    -0.267 N  
HETATM   17  H   UNL     1      -9.631  16.524  65.204  1.00  0.00     0.000 HD 
HETATM   18  C   UNL     1     -10.818  16.692  69.610  1.00  0.00    -0.282 C  
HETATM   19  C   UNL     1      -8.591  17.957  66.336  1.00  0.00    -0.227 C  
HETATM   20  N   UNL     1     -10.171  17.175  68.403  1.00  0.00    -0.317 NA 
HETATM   21  C   UNL     1      -8.695  18.889  67.542  1.00  0.00    -0.275 C  
HETATM   22  O   UNL     1      -7.575  18.095  65.654  1.00  0.00    -0.538 OA 
HETATM   23  H   UNL     1      -9.187  18.662  69.546  1.00  0.00     0.000 HD 
HETATM   24  N   UNL     1      -9.326  18.295  68.605  1.00  0.00    -0.317 N  
HETATM   25  O   UNL     1      -8.224  20.014  67.579  1.00  0.00    -0.310 OA 
ENDBRANCH  14  15
ENDBRANCH  13  14
ENDBRANCH   4  13
BRANCH   6  26
HETATM   26  N   UNL     1      -6.546   8.881  67.654  1.00  0.00    -0.061 N  
HETATM   27  O   UNL     1      -5.570   7.225  66.432  1.00  0.00    -0.023 OA 
HETATM   28  C   UNL     1      -6.339   7.527  67.342  1.00  0.00    -0.053 C  
HETATM   29  H   UNL     1      -6.051   9.511  67.023  1.00  0.00     0.000 HD 
BRANCH  28  30
HETATM   30  C   UNL     1      -7.166   6.424  67.946  1.00  0.00    -0.087 C  
BRANCH  30  31
HETATM   31  C   UNL     1      -7.966   5.463  67.174  1.00  0.00    -0.101 A  
HETATM   32  H2  UNL     1      -9.925   1.735  66.418  1.00  0.00     0.000 HD 
HETATM   33  C   UNL     1      -9.100   5.855  66.481  1.00  0.00    -0.143 A  
HETATM   34  H1  UNL     1      -8.402   1.523  67.282  1.00  0.00     0.000 HD 
HETATM   35  N   UNL     1      -7.866   4.073  67.351  1.00  0.00    -0.090 NA 
HETATM   36  N   UNL     1      -9.085   2.135  66.837  1.00  0.00    -0.116 NA 
HETATM   37  S   UNL     1     -10.043   4.496  66.050  1.00  0.00    -0.250 SA 
HETATM   38  C   UNL     1      -8.890   3.462  66.799  1.00  0.00    -0.137 A  
ENDBRANCH  30  31
BRANCH  30  39
HETATM   39  N   UNL     1      -7.435   6.349  69.207  1.00  0.00    -0.092 NA 
HETATM   40  H   UNL     1      -8.273   5.851  69.505  1.00  0.00     0.000 HD 
BRANCH  39  41
HETATM   41  O   UNL     1      -6.613   6.928  70.174  1.00  0.00    -0.042 OA 
HETATM   42  C   UNL     1      -6.611   6.495  71.520  1.00  0.00    -0.054 C  
ENDBRANCH  39  41
ENDBRANCH  30  39
ENDBRANCH  28  30
ENDBRANCH   6  26
TORSDOF 8
ENDMDL
MODEL      282
REMARK 921   NORMALIZED FREE ENERGY PREDICTED BY IDOCK:   -4.50 KCAL/MOL
REMARK 922        TOTAL FREE ENERGY PREDICTED BY IDOCK:   -7.87 KCAL/MOL
REMARK 923 INTER-LIGAND FREE ENERGY PREDICTED BY IDOCK:   -6.15 KCAL/MOL
REMARK 924 INTRA-LIGAND FREE ENERGY PREDICTED BY IDOCK:   -1.71 KCAL/MOL
REMARK 927      BINDING AFFINITY PREDICTED BY RF-SCORE:    0.00 PKD
ROOT
HETATM    1  C   UNL     1      -9.985   7.213  67.264  1.00  0.00    -0.186 C  
HETATM    2  S   UNL     1     -10.610   5.717  66.549  1.00  0.00    -0.166 SA 
HETATM    3  C   UNL     1      -9.135   4.643  66.402  1.00  0.00    -0.120 C  
HETATM    4  C   UNL     1      -7.815   5.126  66.934  1.00  0.00    -0.100 C  
HETATM    5  CA  UNL     1      -7.618   6.354  67.502  1.00  0.00    -0.100 C  
HETATM    6  CA  UNL     1      -9.953   8.715  66.748  1.00  0.00    -0.273 C  
HETATM    7  C   UNL     1      -8.569   8.690  67.469  1.00  0.00    -0.135 C  
HETATM    8  N   UNL     1      -8.577   7.331  67.505  1.00  0.00    -0.122 N  
HETATM    9  C   UNL     1      -6.288   6.656  68.143  1.00  0.00    -0.034 C  
HETATM   10  O   UNL     1      -7.707   9.518  67.637  1.00  0.00    -0.094 OA 
HETATM   11  O   UNL     1      -5.789   7.899  67.999  1.00  0.00    -0.038 OA 
HETATM   12  OXT UNL     1      -5.676   5.822  68.793  1.00  0.00    -0.010 OA 
ENDROOT
BRANCH   4  13
HETATM   13  C   UNL     1      -6.612   4.155  66.731  1.00  0.00    -0.046 C  
BRANCH  13  14
HETATM   14  S   UNL     1      -6.564   2.537  67.600  1.00  0.00    -0.036 SA 
BRANCH  14  15
HETATM   15  C   UNL     1      -7.190   2.823  69.242  1.00  0.00    -0.044 C  
HETATM   16  N   UNL     1      -6.347   3.352  70.058  1.00  0.00    -0.027 N  
HETATM   17  H   UNL     1      -5.436   3.687  69.744  1.00  0.00     0.000 HD 
HETATM   18  C   UNL     1      -9.382   1.616  68.746  1.00  0.00    -0.162 C  
HETATM   19  C   UNL     1      -6.735   3.445  71.379  1.00  0.00    -0.030 C  
HETATM   20  N   UNL     1      -8.472   2.380  69.581  1.00  0.00    -0.046 NA 
HETATM   21  C   UNL     1      -8.206   3.350  71.783  1.00  0.00    -0.065 C  
HETATM   22  O   UNL     1      -5.938   3.496  72.315  1.00  0.00    -0.008 OA 
HETATM   23  H   UNL     1      -9.826   2.190  71.199  1.00  0.00     0.000 HD 
HETATM   24  N   UNL     1      -8.939   2.597  70.902  1.00  0.00    -0.083 N  
HETATM   25  O   UNL     1      -8.668   3.841  72.800  1.00  0.00    -0.093 OA 
ENDBRANCH  14  15
ENDBRANCH  13  14
ENDBRANCH   4  13
BRANCH   6  26
HETATM   26  N   UNL     1      -9.857   9.385  65.370  1.00  0.00    -0.445 N  
HETATM   27  O   UNL     1     -10.092  10.864  63.654  1.00  0.00    -0.318 OA 
HETATM   28  C   UNL     1     -10.251  10.629  64.850  1.00  0.00    -0.324 C  
HETATM   29  H   UNL     1      -9.406   8.792  64.673  1.00  0.00     0.000 HD 
BRANCH  28  30
HETATM   30  C   UNL     1     -10.684  11.771  65.730  1.00  0.00    -0.280 C  
BRANCH  30  31
HETATM   31  C   UNL     1      -9.768  12.663  66.450  1.00  0.00    -0.258 A  
HETATM   32  H2  UNL     1      -7.947  16.403  67.454  1.00  0.00     0.000 HD 
HETATM   33  C   UNL     1      -9.557  12.539  67.814  1.00  0.00    -0.203 A  
HETATM   34  H1  UNL     1      -8.302  16.278  65.730  1.00  0.00     0.000 HD 
HETATM   35  N   UNL     1      -9.320  13.885  65.921  1.00  0.00    -0.045 NA 
HETATM   36  N   UNL     1      -8.310  15.868  66.664  1.00  0.00    -0.270 NA 
HETATM   37  S   UNL     1      -8.803  13.941  68.438  1.00  0.00    -0.149 SA 
HETATM   38  C   UNL     1      -8.791  14.632  66.864  1.00  0.00    -0.242 A  
ENDBRANCH  30  31
BRANCH  30  39
HETATM   39  N   UNL     1     -11.904  11.942  66.118  1.00  0.00    -0.508 NA 
HETATM   40  H   UNL     1     -12.235  11.444  66.944  1.00  0.00     0.000 HD 
BRANCH  39  41
HETATM   41  O   UNL     1     -12.784  12.788  65.442  1.00  0.00    -0.621 OA 
HETATM   42  C   UNL     1     -12.630  14.194  65.444  1.00  0.00    -0.466 C  
ENDBRANCH  39  41
ENDBRANCH  30  39
ENDBRANCH  28  30
ENDBRANCH   6  26
TORSDOF 8
ENDMDL
MODEL      283
REMARK 921   NORMALIZED FREE ENERGY PREDICTED BY IDOCK:   -4.50 KCAL/MOL
REMARK 922        TOTAL FREE ENERGY PREDICTED BY IDOCK:   -7.87 KCAL/MOL
REMARK 923 INTER-LIGAND FREE ENERGY PREDICTED BY IDOCK:   -6.33 KCAL/MOL
REMARK 924 INTRA-LIGAND FREE ENERGY PREDICTED BY IDOCK:   -1.53 KCAL/MOL
REMARK 927      BINDING AFFINITY PREDICTED BY RF-SCORE:    0.00 PKD
ROOT
HETATM    1  C   UNL     1     -10.333   7.365  67.319  1.00  0.00    -0.286 C  
HETATM    2  S   UNL     1     -10.936   5.829  66.674  1.00  0.00     0.047 SA 
HETATM    3  C   UNL     1      -9.517   4.684  66.848  1.00  0.00    -0.163 C  
HETATM    4  C   UNL     1      -8.258   5.166  67.512  1.00  0.00    -0.103 C  
HETATM    5  CA  UNL     1      -8.073   6.439  67.978  1.00  0.00    -0.116 C  
HETATM    6  CA  UNL     1     -10.145   8.801  66.665  1.00  0.00    -0.288 C  
HETATM    7  C   UNL     1      -8.877   8.795  67.576  1.00  0.00    -0.134 C  
HETATM    8  N   UNL     1      -8.967   7.449  67.746  1.00  0.00    -0.127 N  
HETATM    9  C   UNL     1      -6.830   6.751  68.769  1.00  0.00    -0.066 C  
HETATM   10  O   UNL     1      -8.001   9.600  67.782  1.00  0.00    -0.104 OA 
HETATM   11  O   UNL     1      -6.246   7.950  68.575  1.00  0.00    -0.041 OA 
HETATM   12  OXT UNL     1      -6.361   5.967  69.579  1.00  0.00    -0.037 OA 
ENDROOT
BRANCH   4  13
HETATM   13  C   UNL     1      -7.096   4.130  67.581  1.00  0.00    -0.063 C  
BRANCH  13  14
HETATM   14  S   UNL     1      -7.224   2.656  68.671  1.00  0.00    -0.048 SA 
BRANCH  14  15
HETATM   15  C   UNL     1      -7.713   3.252  70.276  1.00  0.00    -0.043 C  
HETATM   16  N   UNL     1      -8.854   3.847  70.308  1.00  0.00    -0.079 N  
HETATM   17  H   UNL     1      -9.473   3.863  69.497  1.00  0.00     0.000 HD 
HETATM   18  C   UNL     1      -5.463   2.652  71.316  1.00  0.00    -0.008 C  
HETATM   19  C   UNL     1      -9.200   4.464  71.493  1.00  0.00    -0.136 C  
HETATM   20  N   UNL     1      -6.827   3.147  71.352  1.00  0.00    -0.030 NA 
HETATM   21  C   UNL     1      -8.511   4.101  72.807  1.00  0.00    -0.100 C  
HETATM   22  O   UNL     1      -9.990   5.406  71.559  1.00  0.00    -0.169 OA 
HETATM   23  H   UNL     1      -6.562   3.680  73.385  1.00  0.00     0.000 HD 
HETATM   24  N   UNL     1      -7.230   3.652  72.615  1.00  0.00    -0.048 N  
HETATM   25  O   UNL     1      -9.019   4.245  73.907  1.00  0.00    -0.096 OA 
ENDBRANCH  14  15
ENDBRANCH  13  14
ENDBRANCH   4  13
BRANCH   6  26
HETATM   26  N   UNL     1      -9.823   9.315  65.255  1.00  0.00    -0.424 N  
HETATM   27  O   UNL     1      -9.501  10.687  63.466  1.00  0.00    -0.250 OA 
HETATM   28  C   UNL     1      -9.718  10.589  64.672  1.00  0.00    -0.309 C  
HETATM   29  H   UNL     1      -9.645   8.562  64.592  1.00  0.00     0.000 HD 
BRANCH  28  30
HETATM   30  C   UNL     1      -9.666  11.850  65.491  1.00  0.00    -0.215 C  
BRANCH  30  31
HETATM   31  C   UNL     1     -10.676  12.916  65.447  1.00  0.00    -0.285 A  
HETATM   32  H2  UNL     1     -12.779  16.230  63.744  1.00  0.00     0.000 HD 
HETATM   33  C   UNL     1     -11.974  12.703  65.880  1.00  0.00    -0.438 A  
HETATM   34  H1  UNL     1     -11.057  16.271  63.365  1.00  0.00     0.000 HD 
HETATM   35  N   UNL     1     -10.525  14.077  64.671  1.00  0.00    -0.430 NA 
HETATM   36  N   UNL     1     -11.848  15.822  63.827  1.00  0.00    -0.491 NA 
HETATM   37  S   UNL     1     -13.008  13.945  65.322  1.00  0.00    -0.127 SA 
HETATM   38  C   UNL     1     -11.675  14.701  64.544  1.00  0.00    -0.401 A  
ENDBRANCH  30  31
BRANCH  30  39
HETATM   39  N   UNL     1      -8.619  12.226  66.148  1.00  0.00    -0.391 NA 
HETATM   40  H   UNL     1      -7.719  11.801  65.928  1.00  0.00     0.000 HD 
BRANCH  39  41
HETATM   41  O   UNL     1      -8.683  13.196  67.149  1.00  0.00    -0.205 OA 
HETATM   42  C   UNL     1      -8.100  13.004  68.423  1.00  0.00    -0.131 C  
ENDBRANCH  39  41
ENDBRANCH  30  39
ENDBRANCH  28  30
ENDBRANCH   6  26
TORSDOF 8
ENDMDL
MODEL      284
REMARK 921   NORMALIZED FREE ENERGY PREDICTED BY IDOCK:   -4.48 KCAL/MOL
REMARK 922        TOTAL FREE ENERGY PREDICTED BY IDOCK:   -7.84 KCAL/MOL
REMARK 923 INTER-LIGAND FREE ENERGY PREDICTED BY IDOCK:   -6.72 KCAL/MOL
REMARK 924 INTRA-LIGAND FREE ENERGY PREDICTED BY IDOCK:   -1.12 KCAL/MOL
REMARK 927      BINDING AFFINITY PREDICTED BY RF-SCORE:    0.00 PKD
ROOT
HETATM    1  C   UNL     1     -10.295   7.405  68.184  1.00  0.00    -0.192 C  
HETATM    2  S   UNL     1     -10.904   8.312  69.579  1.00  0.00    -0.045 SA 
HETATM    3  C   UNL     1     -10.844  10.059  69.035  1.00  0.00    -0.222 C  
HETATM    4  C   UNL     1     -10.421  10.380  67.629  1.00  0.00    -0.277 C  
HETATM    5  CA  UNL     1     -10.032   9.444  66.710  1.00  0.00    -0.239 C  
HETATM    6  CA  UNL     1      -9.040   6.450  67.993  1.00  0.00    -0.113 C  
HETATM    7  C   UNL     1      -9.022   7.136  66.591  1.00  0.00    -0.146 C  
HETATM    8  N   UNL     1      -9.843   8.126  67.031  1.00  0.00    -0.208 N  
HETATM    9  C   UNL     1      -9.789   9.876  65.288  1.00  0.00    -0.303 C  
HETATM   10  O   UNL     1      -8.320   7.013  65.617  1.00  0.00    -0.129 OA 
HETATM   11  O   UNL     1      -8.766   9.304  64.624  1.00  0.00    -0.185 OA 
HETATM   12  OXT UNL     1     -10.496  10.701  64.730  1.00  0.00    -0.325 OA 
ENDROOT
BRANCH   4  13
HETATM   13  C   UNL     1     -10.369  11.896  67.272  1.00  0.00    -0.205 C  
BRANCH  13  14
HETATM   14  S   UNL     1      -9.117  12.994  68.048  1.00  0.00    -0.215 SA 
BRANCH  14  15
HETATM   15  C   UNL     1      -9.474  14.647  67.490  1.00  0.00    -0.198 C  
HETATM   16  N   UNL     1      -8.695  15.086  66.565  1.00  0.00    -0.425 N  
HETATM   17  H   UNL     1      -8.009  14.483  66.112  1.00  0.00     0.000 HD 
HETATM   18  C   UNL     1     -11.241  15.002  69.295  1.00  0.00    -0.286 C  
HETATM   19  C   UNL     1      -8.833  16.414  66.216  1.00  0.00    -0.332 C  
HETATM   20  N   UNL     1     -10.468  15.393  68.130  1.00  0.00    -0.243 NA 
HETATM   21  C   UNL     1     -10.097  17.199  66.561  1.00  0.00    -0.310 C  
HETATM   22  O   UNL     1      -7.926  17.078  65.713  1.00  0.00    -0.428 OA 
HETATM   23  H   UNL     1     -11.362  17.312  68.203  1.00  0.00     0.000 HD 
HETATM   24  N   UNL     1     -10.717  16.716  67.685  1.00  0.00    -0.328 N  
HETATM   25  O   UNL     1     -10.484  18.177  65.943  1.00  0.00    -0.518 OA 
ENDBRANCH  14  15
ENDBRANCH  13  14
ENDBRANCH   4  13
BRANCH   6  26
HETATM   26  N   UNL     1      -7.632   6.376  68.601  1.00  0.00    -0.091 N  
HETATM   27  O   UNL     1      -5.830   5.722  69.831  1.00  0.00    -0.021 OA 
HETATM   28  C   UNL     1      -6.975   5.476  69.456  1.00  0.00    -0.062 C  
HETATM   29  H   UNL     1      -7.040   7.157  68.320  1.00  0.00     0.000 HD 
BRANCH  28  30
HETATM   30  C   UNL     1      -7.536   4.119  69.785  1.00  0.00    -0.053 C  
BRANCH  30  31
HETATM   31  C   UNL     1      -7.910   3.675  71.135  1.00  0.00    -0.059 A  
HETATM   32  H2  UNL     1     -10.443   3.322  74.565  1.00  0.00     0.000 HD 
HETATM   33  C   UNL     1      -7.642   2.389  71.575  1.00  0.00    -0.040 A  
HETATM   34  H1  UNL     1     -10.565   4.912  73.809  1.00  0.00     0.000 HD 
HETATM   35  N   UNL     1      -8.841   4.360  71.932  1.00  0.00    -0.115 NA 
HETATM   36  N   UNL     1     -10.155   3.978  73.838  1.00  0.00    -0.130 NA 
HETATM   37  S   UNL     1      -8.550   2.031  72.979  1.00  0.00    -0.063 SA 
HETATM   38  C   UNL     1      -9.240   3.605  72.930  1.00  0.00    -0.099 A  
ENDBRANCH  30  31
BRANCH  30  39
HETATM   39  N   UNL     1      -7.537   3.132  68.952  1.00  0.00    -0.048 NA 
HETATM   40  H   UNL     1      -8.392   2.589  68.829  1.00  0.00     0.000 HD 
BRANCH  39  41
HETATM   41  O   UNL     1      -6.404   2.785  68.216  1.00  0.00    -0.028 OA 
HETATM   42  C   UNL     1      -6.375   2.846  66.803  1.00  0.00    -0.035 C  
ENDBRANCH  39  41
ENDBRANCH  30  39
ENDBRANCH  28  30
ENDBRANCH   6  26
TORSDOF 8
ENDMDL
MODEL      285
REMARK 921   NORMALIZED FREE ENERGY PREDICTED BY IDOCK:   -4.48 KCAL/MOL
REMARK 922        TOTAL FREE ENERGY PREDICTED BY IDOCK:   -7.84 KCAL/MOL
REMARK 923 INTER-LIGAND FREE ENERGY PREDICTED BY IDOCK:   -6.15 KCAL/MOL
REMARK 924 INTRA-LIGAND FREE ENERGY PREDICTED BY IDOCK:   -1.68 KCAL/MOL
REMARK 927      BINDING AFFINITY PREDICTED BY RF-SCORE:    0.00 PKD
ROOT
HETATM    1  C   UNL     1      -9.388  10.340  69.619  1.00  0.00    -0.139 C  
HETATM    2  S   UNL     1      -7.806   9.746  69.087  1.00  0.00    -0.104 SA 
HETATM    3  C   UNL     1      -7.700  10.268  67.335  1.00  0.00    -0.095 C  
HETATM    4  C   UNL     1      -8.807  11.092  66.742  1.00  0.00    -0.162 C  
HETATM    5  CA  UNL     1      -9.937  11.463  67.419  1.00  0.00    -0.186 C  
HETATM    6  CA  UNL     1     -10.681   9.599  70.170  1.00  0.00    -0.275 C  
HETATM    7  C   UNL     1     -11.392  10.711  69.338  1.00  0.00    -0.284 C  
HETATM    8  N   UNL     1     -10.242  10.987  68.667  1.00  0.00    -0.191 N  
HETATM    9  C   UNL     1     -10.895  12.425  66.767  1.00  0.00    -0.248 C  
HETATM   10  O   UNL     1     -12.550  10.991  69.147  1.00  0.00    -0.378 OA 
HETATM   11  O   UNL     1     -12.214  12.224  66.957  1.00  0.00    -0.522 OA 
HETATM   12  OXT UNL     1     -10.510  13.373  66.100  1.00  0.00    -0.285 OA 
ENDROOT
BRANCH   4  13
HETATM   13  C   UNL     1      -8.642  11.457  65.236  1.00  0.00     0.213 C  
BRANCH  13  14
HETATM   14  S   UNL     1      -9.360  10.380  63.932  1.00  0.00    -0.299 SA 
BRANCH  14  15
HETATM   15  C   UNL     1      -8.359   8.908  63.881  1.00  0.00    -0.159 C  
HETATM   16  N   UNL     1      -8.736   7.970  64.677  1.00  0.00    -0.383 N  
HETATM   17  H   UNL     1      -9.609   8.030  65.201  1.00  0.00     0.000 HD 
HETATM   18  C   UNL     1      -6.644   9.984  62.330  1.00  0.00    -0.117 C  
HETATM   19  C   UNL     1      -7.901   6.877  64.788  1.00  0.00    -0.119 C  
HETATM   20  N   UNL     1      -7.203   8.885  63.096  1.00  0.00    -0.093 NA 
HETATM   21  C   UNL     1      -6.842   6.576  63.729  1.00  0.00    -0.045 C  
HETATM   22  O   UNL     1      -7.872   6.146  65.779  1.00  0.00    -0.097 OA 
HETATM   23  H   UNL     1      -5.509   7.709  62.611  1.00  0.00     0.000 HD 
HETATM   24  N   UNL     1      -6.408   7.710  63.092  1.00  0.00    -0.058 N  
HETATM   25  O   UNL     1      -6.391   5.464  63.511  1.00  0.00    -0.021 OA 
ENDBRANCH  14  15
ENDBRANCH  13  14
ENDBRANCH   4  13
BRANCH   6  26
HETATM   26  N   UNL     1     -11.323   8.224  69.937  1.00  0.00    -0.454 N  
HETATM   27  O   UNL     1     -11.634   5.975  69.759  1.00  0.00    -0.325 OA 
HETATM   28  C   UNL     1     -10.895   6.896  70.099  1.00  0.00    -0.263 C  
HETATM   29  H   UNL     1     -12.278   8.290  69.583  1.00  0.00     0.000 HD 
BRANCH  28  30
HETATM   30  C   UNL     1      -9.643   6.539  70.855  1.00  0.00    -0.175 C  
BRANCH  30  31
HETATM   31  C   UNL     1      -8.599   5.634  70.358  1.00  0.00    -0.132 A  
HETATM   32  H2  UNL     1      -6.719   3.014  67.545  1.00  0.00     0.000 HD 
HETATM   33  C   UNL     1      -7.253   5.906  70.547  1.00  0.00    -0.083 A  
HETATM   34  H1  UNL     1      -8.475   2.848  67.538  1.00  0.00     0.000 HD 
HETATM   35  N   UNL     1      -8.843   4.647  69.389  1.00  0.00    -0.086 NA 
HETATM   36  N   UNL     1      -7.632   3.283  67.913  1.00  0.00    -0.064 NA 
HETATM   37  S   UNL     1      -6.292   4.937  69.517  1.00  0.00    -0.032 SA 
HETATM   38  C   UNL     1      -7.713   4.204  68.885  1.00  0.00    -0.054 A  
ENDBRANCH  30  31
BRANCH  30  39
HETATM   39  N   UNL     1      -9.467   6.815  72.104  1.00  0.00    -0.141 NA 
HETATM   40  H   UNL     1      -9.829   6.172  72.808  1.00  0.00     0.000 HD 
BRANCH  39  41
HETATM   41  O   UNL     1      -8.796   7.965  72.521  1.00  0.00    -0.133 OA 
HETATM   42  C   UNL     1      -7.799   7.937  73.524  1.00  0.00    -0.167 C  
ENDBRANCH  39  41
ENDBRANCH  30  39
ENDBRANCH  28  30
ENDBRANCH   6  26
TORSDOF 8
ENDMDL
MODEL      286
REMARK 921   NORMALIZED FREE ENERGY PREDICTED BY IDOCK:   -4.47 KCAL/MOL
REMARK 922        TOTAL FREE ENERGY PREDICTED BY IDOCK:   -7.82 KCAL/MOL
REMARK 923 INTER-LIGAND FREE ENERGY PREDICTED BY IDOCK:   -6.56 KCAL/MOL
REMARK 924 INTRA-LIGAND FREE ENERGY PREDICTED BY IDOCK:   -1.26 KCAL/MOL
REMARK 927      BINDING AFFINITY PREDICTED BY RF-SCORE:    0.00 PKD
ROOT
HETATM    1  C   UNL     1      -8.159   8.775  70.749  1.00  0.00    -0.138 C  
HETATM    2  S   UNL     1      -8.085   7.580  72.055  1.00  0.00    -0.102 SA 
HETATM    3  C   UNL     1      -7.922   5.977  71.184  1.00  0.00    -0.116 C  
HETATM    4  C   UNL     1      -7.804   5.961  69.686  1.00  0.00    -0.097 C  
HETATM    5  CA  UNL     1      -7.845   7.079  68.899  1.00  0.00    -0.115 C  
HETATM    6  CA  UNL     1      -9.272   9.825  70.320  1.00  0.00    -0.172 C  
HETATM    7  C   UNL     1      -8.773   9.425  68.897  1.00  0.00    -0.132 C  
HETATM    8  N   UNL     1      -8.154   8.319  69.390  1.00  0.00    -0.113 N  
HETATM    9  C   UNL     1      -7.552   6.945  67.428  1.00  0.00    -0.109 C  
HETATM   10  O   UNL     1      -9.076   9.776  67.782  1.00  0.00    -0.131 OA 
HETATM   11  O   UNL     1      -8.273   7.697  66.573  1.00  0.00    -0.117 OA 
HETATM   12  OXT UNL     1      -6.681   6.202  67.003  1.00  0.00    -0.056 OA 
ENDROOT
BRANCH   4  13
HETATM   13  C   UNL     1      -7.704   4.548  69.035  1.00  0.00    -0.070 C  
BRANCH  13  14
HETATM   14  S   UNL     1      -9.224   3.625  68.576  1.00  0.00    -0.168 SA 
BRANCH  14  15
HETATM   15  C   UNL     1      -9.228   3.502  66.800  1.00  0.00    -0.181 C  
HETATM   16  N   UNL     1      -8.415   2.629  66.316  1.00  0.00    -0.093 N  
HETATM   17  H   UNL     1      -7.905   1.982  66.916  1.00  0.00     0.000 HD 
HETATM   18  C   UNL     1     -10.781   5.509  66.545  1.00  0.00    -0.240 C  
HETATM   19  C   UNL     1      -8.268   2.611  64.944  1.00  0.00    -0.087 C  
HETATM   20  N   UNL     1      -9.997   4.394  66.046  1.00  0.00    -0.228 NA 
HETATM   21  C   UNL     1      -9.305   3.254  64.025  1.00  0.00    -0.128 C  
HETATM   22  O   UNL     1      -7.260   2.186  64.378  1.00  0.00    -0.053 OA 
HETATM   23  H   UNL     1     -10.432   4.997  64.062  1.00  0.00     0.000 HD 
HETATM   24  N   UNL     1      -9.964   4.292  64.632  1.00  0.00    -0.160 N  
HETATM   25  O   UNL     1      -9.492   2.920  62.866  1.00  0.00    -0.093 OA 
ENDBRANCH  14  15
ENDBRANCH  13  14
ENDBRANCH   4  13
BRANCH   6  26
HETATM   26  N   UNL     1     -10.805   9.867  70.388  1.00  0.00    -0.298 N  
HETATM   27  O   UNL     1     -12.968  10.561  70.215  1.00  0.00    -0.266 OA 
HETATM   28  C   UNL     1     -11.785  10.775  69.955  1.00  0.00    -0.333 C  
HETATM   29  H   UNL     1     -11.202   9.050  70.852  1.00  0.00     0.000 HD 
BRANCH  28  30
HETATM   30  C   UNL     1     -11.476  11.909  69.014  1.00  0.00    -0.297 C  
BRANCH  30  31
HETATM   31  C   UNL     1     -11.138  13.274  69.436  1.00  0.00    -0.090 A  
HETATM   32  H2  UNL     1      -9.146  17.053  69.192  1.00  0.00     0.000 HD 
HETATM   33  C   UNL     1     -12.108  14.155  69.887  1.00  0.00    -0.347 A  
HETATM   34  H1  UNL     1      -8.105  15.720  68.693  1.00  0.00     0.000 HD 
HETATM   35  N   UNL     1      -9.925  13.897  69.101  1.00  0.00     0.031 NA 
HETATM   36  N   UNL     1      -9.003  16.054  69.042  1.00  0.00    -0.232 NA 
HETATM   37  S   UNL     1     -11.512  15.757  69.893  1.00  0.00    -0.365 SA 
HETATM   38  C   UNL     1      -9.998  15.193  69.305  1.00  0.00    -0.242 A  
ENDBRANCH  30  31
BRANCH  30  39
HETATM   39  N   UNL     1     -11.695  11.854  67.742  1.00  0.00    -0.516 NA 
HETATM   40  H   UNL     1     -11.918  10.954  67.318  1.00  0.00     0.000 HD 
BRANCH  39  41
HETATM   41  O   UNL     1     -11.636  12.988  66.932  1.00  0.00    -0.327 OA 
HETATM   42  C   UNL     1     -12.500  13.172  65.827  1.00  0.00    -0.377 C  
ENDBRANCH  39  41
ENDBRANCH  30  39
ENDBRANCH  28  30
ENDBRANCH   6  26
TORSDOF 8
ENDMDL
MODEL      287
REMARK 921   NORMALIZED FREE ENERGY PREDICTED BY IDOCK:   -4.46 KCAL/MOL
REMARK 922        TOTAL FREE ENERGY PREDICTED BY IDOCK:   -7.81 KCAL/MOL
REMARK 923 INTER-LIGAND FREE ENERGY PREDICTED BY IDOCK:   -6.59 KCAL/MOL
REMARK 924 INTRA-LIGAND FREE ENERGY PREDICTED BY IDOCK:   -1.22 KCAL/MOL
REMARK 927      BINDING AFFINITY PREDICTED BY RF-SCORE:    0.00 PKD
ROOT
HETATM    1  C   UNL     1      -9.146  10.513  69.188  1.00  0.00    -0.166 C  
HETATM    2  S   UNL     1      -7.405  10.834  69.278  1.00  0.00    -0.127 SA 
HETATM    3  C   UNL     1      -7.252  12.594  68.792  1.00  0.00    -0.083 C  
HETATM    4  C   UNL     1      -8.493  13.394  68.519  1.00  0.00    -0.079 C  
HETATM    5  CA  UNL     1      -9.763  12.887  68.571  1.00  0.00    -0.127 C  
HETATM    6  CA  UNL     1     -10.004   9.500  68.315  1.00  0.00    -0.161 C  
HETATM    7  C   UNL     1     -10.998  10.703  68.316  1.00  0.00    -0.263 C  
HETATM    8  N   UNL     1     -10.020  11.552  68.730  1.00  0.00    -0.190 N  
HETATM    9  C   UNL     1     -10.930  13.829  68.436  1.00  0.00    -0.254 C  
HETATM   10  O   UNL     1     -12.096  10.871  67.842  1.00  0.00    -0.527 OA 
HETATM   11  O   UNL     1     -12.004  13.404  67.743  1.00  0.00    -0.351 OA 
HETATM   12  OXT UNL     1     -10.932  14.939  68.947  1.00  0.00    -0.232 OA 
ENDROOT
BRANCH   4  13
HETATM   13  C   UNL     1      -8.258  14.871  68.079  1.00  0.00    -0.139 C  
BRANCH  13  14
HETATM   14  S   UNL     1      -8.718  15.425  66.389  1.00  0.00    -0.199 SA 
BRANCH  14  15
HETATM   15  C   UNL     1      -8.099  17.085  66.212  1.00  0.00    -0.297 C  
HETATM   16  N   UNL     1      -6.819  17.196  66.282  1.00  0.00    -0.241 N  
HETATM   17  H   UNL     1      -6.212  16.377  66.314  1.00  0.00     0.000 HD 
HETATM   18  C   UNL     1     -10.444  18.088  66.224  1.00  0.00    -0.335 C  
HETATM   19  C   UNL     1      -6.307  18.477  66.310  1.00  0.00    -0.193 C  
HETATM   20  N   UNL     1      -8.998  18.152  66.120  1.00  0.00    -0.498 NA 
HETATM   21  C   UNL     1      -7.135  19.673  65.844  1.00  0.00    -0.292 C  
HETATM   22  O   UNL     1      -5.215  18.757  66.805  1.00  0.00    -0.137 OA 
HETATM   23  H   UNL     1      -9.114  20.266  66.042  1.00  0.00     0.000 HD 
HETATM   24  N   UNL     1      -8.481  19.468  66.005  1.00  0.00    -0.305 N  
HETATM   25  O   UNL     1      -6.655  20.715  65.427  1.00  0.00    -0.249 OA 
ENDBRANCH  14  15
ENDBRANCH  13  14
ENDBRANCH   4  13
BRANCH   6  26
HETATM   26  N   UNL     1      -9.862   8.887  66.915  1.00  0.00    -0.201 N  
HETATM   27  O   UNL     1      -9.012   7.843  65.078  1.00  0.00     0.111 OA 
HETATM   28  C   UNL     1      -8.861   8.153  66.258  1.00  0.00    -0.164 C  
HETATM   29  H   UNL     1     -10.680   9.051  66.328  1.00  0.00     0.000 HD 
BRANCH  28  30
HETATM   30  C   UNL     1      -7.688   7.555  66.988  1.00  0.00    -0.111 C  
BRANCH  30  31
HETATM   31  C   UNL     1      -7.774   6.423  67.918  1.00  0.00    -0.104 A  
HETATM   32  H2  UNL     1      -9.753   3.510  70.349  1.00  0.00     0.000 HD 
HETATM   33  C   UNL     1      -6.951   5.315  67.790  1.00  0.00    -0.065 A  
HETATM   34  H1  UNL     1     -10.591   5.063  70.357  1.00  0.00     0.000 HD 
HETATM   35  N   UNL     1      -8.878   6.209  68.760  1.00  0.00    -0.121 NA 
HETATM   36  N   UNL     1      -9.812   4.482  70.045  1.00  0.00    -0.217 NA 
HETATM   37  S   UNL     1      -7.552   4.007  68.714  1.00  0.00    -0.054 SA 
HETATM   38  C   UNL     1      -8.864   4.986  69.240  1.00  0.00    -0.091 A  
ENDBRANCH  30  31
BRANCH  30  39
HETATM   39  N   UNL     1      -6.526   8.117  67.042  1.00  0.00    -0.056 NA 
HETATM   40  H   UNL     1      -6.122   8.330  67.954  1.00  0.00     0.000 HD 
BRANCH  39  41
HETATM   41  O   UNL     1      -5.807   8.443  65.892  1.00  0.00    -0.042 OA 
HETATM   42  C   UNL     1      -5.364   7.460  64.976  1.00  0.00    -0.029 C  
ENDBRANCH  39  41
ENDBRANCH  30  39
ENDBRANCH  28  30
ENDBRANCH   6  26
TORSDOF 8
ENDMDL
MODEL      288
REMARK 921   NORMALIZED FREE ENERGY PREDICTED BY IDOCK:   -4.45 KCAL/MOL
REMARK 922        TOTAL FREE ENERGY PREDICTED BY IDOCK:   -7.79 KCAL/MOL
REMARK 923 INTER-LIGAND FREE ENERGY PREDICTED BY IDOCK:   -7.64 KCAL/MOL
REMARK 924 INTRA-LIGAND FREE ENERGY PREDICTED BY IDOCK:   -0.15 KCAL/MOL
REMARK 927      BINDING AFFINITY PREDICTED BY RF-SCORE:    0.00 PKD
ROOT
HETATM    1  C   UNL     1     -11.125  12.850  66.159  1.00  0.00    -0.286 C  
HETATM    2  S   UNL     1     -12.448  13.734  65.378  1.00  0.00    -0.500 SA 
HETATM    3  C   UNL     1     -11.986  15.495  65.577  1.00  0.00     0.469 C  
HETATM    4  C   UNL     1     -10.672  15.845  66.218  1.00  0.00    -0.261 C  
HETATM    5  CA  UNL     1      -9.787  14.925  66.709  1.00  0.00    -0.246 C  
HETATM    6  CA  UNL     1     -11.087  11.854  67.396  1.00  0.00    -0.279 C  
HETATM    7  C   UNL     1      -9.731  12.585  67.647  1.00  0.00    -0.196 C  
HETATM    8  N   UNL     1     -10.081  13.591  66.803  1.00  0.00    -0.262 N  
HETATM    9  C   UNL     1      -8.434  15.394  67.177  1.00  0.00    -0.214 C  
HETATM   10  O   UNL     1      -8.868  12.466  68.483  1.00  0.00    -0.151 OA 
HETATM   11  O   UNL     1      -7.909  14.804  68.269  1.00  0.00    -0.113 OA 
HETATM   12  OXT UNL     1      -7.809  16.264  66.591  1.00  0.00    -0.237 OA 
ENDROOT
BRANCH   4  13
HETATM   13  C   UNL     1     -10.385  17.369  66.374  1.00  0.00    -0.317 C  
BRANCH  13  14
HETATM   14  S   UNL     1     -10.207  18.117  68.043  1.00  0.00    -0.392 SA 
BRANCH  14  15
HETATM   15  C   UNL     1      -8.791  19.194  67.968  1.00  0.00    -0.313 C  
HETATM   16  N   UNL     1      -7.887  18.961  68.855  1.00  0.00    -0.313 N  
HETATM   17  H   UNL     1      -7.935  18.147  69.467  1.00  0.00     0.000 HD 
HETATM   18  C   UNL     1      -9.854  20.666  66.177  1.00  0.00     0.158 C  
HETATM   19  C   UNL     1      -6.850  19.867  68.937  1.00  0.00    -0.324 C  
HETATM   20  N   UNL     1      -8.778  20.259  67.064  1.00  0.00    -0.336 NA 
HETATM   21  C   UNL     1      -6.538  20.824  67.788  1.00  0.00    -0.336 C  
HETATM   22  O   UNL     1      -6.188  20.045  69.960  1.00  0.00    -0.330 OA 
HETATM   23  H   UNL     1      -7.665  21.959  66.464  1.00  0.00     0.000 HD 
HETATM   24  N   UNL     1      -7.650  21.118  67.040  1.00  0.00    -0.109 N  
HETATM   25  O   UNL     1      -5.439  21.315  67.587  1.00  0.00    -0.275 OA 
ENDBRANCH  14  15
ENDBRANCH  13  14
ENDBRANCH   4  13
BRANCH   6  26
HETATM   26  N   UNL     1     -11.895  11.705  68.692  1.00  0.00    -0.324 N  
HETATM   27  O   UNL     1     -12.861  10.830  70.560  1.00  0.00    -0.326 OA 
HETATM   28  C   UNL     1     -12.081  10.670  69.623  1.00  0.00    -0.240 C  
HETATM   29  H   UNL     1     -12.415  12.549  68.932  1.00  0.00     0.000 HD 
BRANCH  28  30
HETATM   30  C   UNL     1     -11.219   9.436  69.641  1.00  0.00    -0.074 C  
BRANCH  30  31
HETATM   31  C   UNL     1      -9.773   9.432  69.893  1.00  0.00    -0.212 A  
HETATM   32  H2  UNL     1      -6.181   8.452  72.003  1.00  0.00     0.000 HD 
HETATM   33  C   UNL     1      -8.859   9.258  68.866  1.00  0.00    -0.135 A  
HETATM   34  H1  UNL     1      -7.531   8.760  73.095  1.00  0.00     0.000 HD 
HETATM   35  N   UNL     1      -9.222   9.253  71.172  1.00  0.00    -0.252 NA 
HETATM   36  N   UNL     1      -7.159   8.705  72.147  1.00  0.00    -0.236 NA 
HETATM   37  S   UNL     1      -7.315   8.871  69.491  1.00  0.00    -0.073 SA 
HETATM   38  C   UNL     1      -7.942   8.964  71.089  1.00  0.00    -0.144 A  
ENDBRANCH  30  31
BRANCH  30  39
HETATM   39  N   UNL     1     -11.623   8.284  69.217  1.00  0.00     0.074 NA 
HETATM   40  H   UNL     1     -12.622   8.080  69.217  1.00  0.00     0.000 HD 
BRANCH  39  41
HETATM   41  O   UNL     1     -10.734   7.311  68.759  1.00  0.00    -0.200 OA 
HETATM   42  C   UNL     1     -10.920   6.637  67.530  1.00  0.00    -0.338 C  
ENDBRANCH  39  41
ENDBRANCH  30  39
ENDBRANCH  28  30
ENDBRANCH   6  26
TORSDOF 8
ENDMDL
MODEL      289
REMARK 921   NORMALIZED FREE ENERGY PREDICTED BY IDOCK:   -4.45 KCAL/MOL
REMARK 922        TOTAL FREE ENERGY PREDICTED BY IDOCK:   -7.79 KCAL/MOL
REMARK 923 INTER-LIGAND FREE ENERGY PREDICTED BY IDOCK:   -6.42 KCAL/MOL
REMARK 924 INTRA-LIGAND FREE ENERGY PREDICTED BY IDOCK:   -1.37 KCAL/MOL
REMARK 927      BINDING AFFINITY PREDICTED BY RF-SCORE:    0.00 PKD
ROOT
HETATM    1  C   UNL     1      -7.339   8.767  71.157  1.00  0.00    -0.097 C  
HETATM    2  S   UNL     1      -7.693   8.095  72.758  1.00  0.00    -0.125 SA 
HETATM    3  C   UNL     1      -7.639   6.283  72.503  1.00  0.00    -0.101 C  
HETATM    4  C   UNL     1      -7.260   5.738  71.154  1.00  0.00    -0.074 C  
HETATM    5  CA  UNL     1      -6.979   6.514  70.063  1.00  0.00    -0.063 C  
HETATM    6  CA  UNL     1      -8.172   9.701  70.179  1.00  0.00    -0.187 C  
HETATM    7  C   UNL     1      -7.499   8.789  69.106  1.00  0.00    -0.076 C  
HETATM    8  N   UNL     1      -7.166   7.871  70.051  1.00  0.00    -0.061 N  
HETATM    9  C   UNL     1      -6.454   5.854  68.816  1.00  0.00    -0.049 C  
HETATM   10  O   UNL     1      -7.538   8.761  67.900  1.00  0.00    -0.095 OA 
HETATM   11  O   UNL     1      -6.880   6.327  67.628  1.00  0.00    -0.064 OA 
HETATM   12  OXT UNL     1      -5.654   4.932  68.856  1.00  0.00    -0.011 OA 
ENDROOT
BRANCH   4  13
HETATM   13  C   UNL     1      -7.276   4.185  71.027  1.00  0.00    -0.037 C  
BRANCH  13  14
HETATM   14  S   UNL     1      -8.787   3.313  70.452  1.00  0.00    -0.095 SA 
BRANCH  14  15
HETATM   15  C   UNL     1      -9.609   4.414  69.319  1.00  0.00    -0.191 C  
HETATM   16  N   UNL     1     -10.311   5.337  69.876  1.00  0.00    -0.295 N  
HETATM   17  H   UNL     1     -10.293   5.489  70.884  1.00  0.00     0.000 HD 
HETATM   18  C   UNL     1      -8.918   3.034  67.289  1.00  0.00    -0.159 C  
HETATM   19  C   UNL     1     -11.091   6.113  69.043  1.00  0.00    -0.367 C  
HETATM   20  N   UNL     1      -9.544   4.168  67.945  1.00  0.00    -0.166 NA 
HETATM   21  C   UNL     1     -10.818   6.186  67.541  1.00  0.00    -0.332 C  
HETATM   22  O   UNL     1     -12.107   6.698  69.419  1.00  0.00     0.114 OA 
HETATM   23  H   UNL     1     -10.280   4.824  66.070  1.00  0.00     0.000 HD 
HETATM   24  N   UNL     1     -10.227   5.044  67.064  1.00  0.00    -0.213 N  
HETATM   25  O   UNL     1     -11.137   7.129  66.834  1.00  0.00    -0.327 OA 
ENDBRANCH  14  15
ENDBRANCH  13  14
ENDBRANCH   4  13
BRANCH   6  26
HETATM   26  N   UNL     1      -9.666   9.905  69.887  1.00  0.00    -0.241 N  
HETATM   27  O   UNL     1     -11.626  10.739  69.080  1.00  0.00    -0.277 OA 
HETATM   28  C   UNL     1     -10.397  10.768  69.054  1.00  0.00    -0.215 C  
HETATM   29  H   UNL     1     -10.262   9.271  70.418  1.00  0.00     0.000 HD 
BRANCH  28  30
HETATM   30  C   UNL     1      -9.746  11.599  67.981  1.00  0.00    -0.182 C  
BRANCH  30  31
HETATM   31  C   UNL     1     -10.445  12.150  66.813  1.00  0.00    -0.218 A  
HETATM   32  H2  UNL     1     -12.372  12.017  62.995  1.00  0.00     0.000 HD 
HETATM   33  C   UNL     1     -11.449  13.096  66.950  1.00  0.00    -0.341 A  
HETATM   34  H1  UNL     1     -11.005  10.906  63.089  1.00  0.00     0.000 HD 
HETATM   35  N   UNL     1     -10.413  11.543  65.547  1.00  0.00    -0.267 NA 
HETATM   36  N   UNL     1     -11.595  11.617  63.522  1.00  0.00    -0.392 NA 
HETATM   37  S   UNL     1     -12.354  13.228  65.505  1.00  0.00    -0.480 SA 
HETATM   38  C   UNL     1     -11.359  12.030  64.776  1.00  0.00    -0.313 A  
ENDBRANCH  30  31
BRANCH  30  39
HETATM   39  N   UNL     1      -8.466  11.722  67.860  1.00  0.00    -0.147 NA 
HETATM   40  H   UNL     1      -7.952  11.035  67.308  1.00  0.00     0.000 HD 
BRANCH  39  41
HETATM   41  O   UNL     1      -7.764  12.767  68.460  1.00  0.00    -0.132 OA 
HETATM   42  C   UNL     1      -7.981  14.121  68.112  1.00  0.00    -0.143 C  
ENDBRANCH  39  41
ENDBRANCH  30  39
ENDBRANCH  28  30
ENDBRANCH   6  26
TORSDOF 8
ENDMDL
MODEL      290
REMARK 921   NORMALIZED FREE ENERGY PREDICTED BY IDOCK:   -4.44 KCAL/MOL
REMARK 922        TOTAL FREE ENERGY PREDICTED BY IDOCK:   -7.78 KCAL/MOL
REMARK 923 INTER-LIGAND FREE ENERGY PREDICTED BY IDOCK:   -7.21 KCAL/MOL
REMARK 924 INTRA-LIGAND FREE ENERGY PREDICTED BY IDOCK:   -0.57 KCAL/MOL
REMARK 927      BINDING AFFINITY PREDICTED BY RF-SCORE:    0.00 PKD
ROOT
HETATM    1  C   UNL     1     -10.084   7.712  68.475  1.00  0.00    -0.190 C  
HETATM    2  S   UNL     1      -9.942   8.736  69.914  1.00  0.00    -0.193 SA 
HETATM    3  C   UNL     1      -9.214  10.293  69.283  1.00  0.00    -0.202 C  
HETATM    4  C   UNL     1      -8.972  10.450  67.808  1.00  0.00    -0.131 C  
HETATM    5  CA  UNL     1      -9.228   9.478  66.879  1.00  0.00    -0.143 C  
HETATM    6  CA  UNL     1      -9.452   6.305  68.094  1.00  0.00    -0.113 C  
HETATM    7  C   UNL     1      -9.400   6.970  66.683  1.00  0.00    -0.165 C  
HETATM    8  N   UNL     1      -9.590   8.203  67.222  1.00  0.00    -0.153 N  
HETATM    9  C   UNL     1      -9.097   9.816  65.417  1.00  0.00    -0.204 C  
HETATM   10  O   UNL     1      -9.030   6.587  65.600  1.00  0.00    -0.106 OA 
HETATM   11  O   UNL     1      -8.587   8.875  64.599  1.00  0.00    -0.175 OA 
HETATM   12  OXT UNL     1      -9.453  10.892  64.964  1.00  0.00    -0.209 OA 
ENDROOT
BRANCH   4  13
HETATM   13  C   UNL     1      -8.318  11.796  67.373  1.00  0.00    -0.159 C  
BRANCH  13  14
HETATM   14  S   UNL     1      -9.076  13.399  67.852  1.00  0.00    -0.217 SA 
BRANCH  14  15
HETATM   15  C   UNL     1     -10.256  13.803  66.582  1.00  0.00    -0.276 C  
HETATM   16  N   UNL     1      -9.924  14.793  65.830  1.00  0.00    -0.328 N  
HETATM   17  H   UNL     1      -9.002  15.225  65.890  1.00  0.00     0.000 HD 
HETATM   18  C   UNL     1     -11.968  12.135  67.474  1.00  0.00    -0.105 C  
HETATM   19  C   UNL     1     -10.876  15.242  64.937  1.00  0.00    -0.425 C  
HETATM   20  N   UNL     1     -11.479  13.128  66.533  1.00  0.00    -0.322 NA 
HETATM   21  C   UNL     1     -12.066  14.370  64.540  1.00  0.00    -0.481 C  
HETATM   22  O   UNL     1     -10.898  16.391  64.494  1.00  0.00    -0.719 OA 
HETATM   23  H   UNL     1     -13.349  13.080  65.538  1.00  0.00     0.000 HD 
HETATM   24  N   UNL     1     -12.413  13.484  65.527  1.00  0.00    -0.477 N  
HETATM   25  O   UNL     1     -12.674  14.483  63.488  1.00  0.00    -0.707 OA 
ENDBRANCH  14  15
ENDBRANCH  13  14
ENDBRANCH   4  13
BRANCH   6  26
HETATM   26  N   UNL     1      -8.138   5.583  68.425  1.00  0.00    -0.098 N  
HETATM   27  O   UNL     1      -6.445   4.060  68.451  1.00  0.00    -0.036 OA 
HETATM   28  C   UNL     1      -7.491   4.440  67.928  1.00  0.00    -0.069 C  
HETATM   29  H   UNL     1      -7.617   6.036  69.176  1.00  0.00     0.000 HD 
BRANCH  28  30
HETATM   30  C   UNL     1      -7.914   3.763  66.652  1.00  0.00    -0.096 C  
BRANCH  30  31
HETATM   31  C   UNL     1      -7.105   3.710  65.428  1.00  0.00    -0.066 A  
HETATM   32  H2  UNL     1      -5.713   2.045  61.740  1.00  0.00     0.000 HD 
HETATM   33  C   UNL     1      -6.891   4.837  64.651  1.00  0.00    -0.049 A  
HETATM   34  H1  UNL     1      -6.042   0.802  62.948  1.00  0.00     0.000 HD 
HETATM   35  N   UNL     1      -6.792   2.507  64.773  1.00  0.00    -0.046 NA 
HETATM   36  N   UNL     1      -6.010   1.786  62.681  1.00  0.00    -0.008 NA 
HETATM   37  S   UNL     1      -6.300   4.402  63.107  1.00  0.00    -0.026 SA 
HETATM   38  C   UNL     1      -6.354   2.743  63.557  1.00  0.00    -0.018 A  
ENDBRANCH  30  31
BRANCH  30  39
HETATM   39  N   UNL     1      -9.120   3.355  66.434  1.00  0.00    -0.150 NA 
HETATM   40  H   UNL     1      -9.784   3.337  67.208  1.00  0.00     0.000 HD 
BRANCH  39  41
HETATM   41  O   UNL     1      -9.542   2.937  65.171  1.00  0.00    -0.121 OA 
HETATM   42  C   UNL     1     -10.354   3.744  64.342  1.00  0.00    -0.227 C  
ENDBRANCH  39  41
ENDBRANCH  30  39
ENDBRANCH  28  30
ENDBRANCH   6  26
TORSDOF 8
ENDMDL
MODEL      291
REMARK 921   NORMALIZED FREE ENERGY PREDICTED BY IDOCK:   -4.44 KCAL/MOL
REMARK 922        TOTAL FREE ENERGY PREDICTED BY IDOCK:   -7.78 KCAL/MOL
REMARK 923 INTER-LIGAND FREE ENERGY PREDICTED BY IDOCK:   -6.44 KCAL/MOL
REMARK 924 INTRA-LIGAND FREE ENERGY PREDICTED BY IDOCK:   -1.34 KCAL/MOL
REMARK 927      BINDING AFFINITY PREDICTED BY RF-SCORE:    0.00 PKD
ROOT
HETATM    1  C   UNL     1      -9.364   8.484  71.760  1.00  0.00    -0.253 C  
HETATM    2  S   UNL     1      -8.217   8.813  70.450  1.00  0.00    -0.138 SA 
HETATM    3  C   UNL     1      -9.200   9.755  69.224  1.00  0.00    -0.192 C  
HETATM    4  C   UNL     1     -10.622  10.122  69.544  1.00  0.00    -0.269 C  
HETATM    5  CA  UNL     1     -11.267   9.765  70.696  1.00  0.00    -0.334 C  
HETATM    6  CA  UNL     1      -9.920   7.133  72.383  1.00  0.00    -0.166 C  
HETATM    7  C   UNL     1     -11.224   7.984  72.481  1.00  0.00    -0.388 C  
HETATM    8  N   UNL     1     -10.726   8.903  71.612  1.00  0.00    -0.321 N  
HETATM    9  C   UNL     1     -12.636  10.332  70.969  1.00  0.00    -0.390 C  
HETATM   10  O   UNL     1     -12.332   7.758  72.904  1.00  0.00    -0.007 OA 
HETATM   11  O   UNL     1     -13.546   9.525  71.549  1.00  0.00    -0.371 OA 
HETATM   12  OXT UNL     1     -12.926  11.487  70.700  1.00  0.00    -0.121 OA 
ENDROOT
BRANCH   4  13
HETATM   13  C   UNL     1     -11.385  10.892  68.424  1.00  0.00    -0.304 C  
BRANCH  13  14
HETATM   14  S   UNL     1     -10.500  11.474  66.923  1.00  0.00    -0.246 SA 
BRANCH  14  15
HETATM   15  C   UNL     1      -9.921  13.119  67.280  1.00  0.00    -0.230 C  
HETATM   16  N   UNL     1     -10.845  14.010  67.376  1.00  0.00    -0.279 N  
HETATM   17  H   UNL     1     -11.834  13.758  67.365  1.00  0.00     0.000 HD 
HETATM   18  C   UNL     1      -7.474  12.439  67.045  1.00  0.00    -0.034 C  
HETATM   19  C   UNL     1     -10.435  15.322  67.492  1.00  0.00    -0.265 C  
HETATM   20  N   UNL     1      -8.547  13.374  67.329  1.00  0.00    -0.207 NA 
HETATM   21  C   UNL     1      -9.014  15.673  67.928  1.00  0.00    -0.180 C  
HETATM   22  O   UNL     1     -11.130  16.280  67.154  1.00  0.00    -0.179 OA 
HETATM   23  H   UNL     1      -7.119  14.926  67.527  1.00  0.00     0.000 HD 
HETATM   24  N   UNL     1      -8.111  14.698  67.591  1.00  0.00    -0.158 N  
HETATM   25  O   UNL     1      -8.705  16.724  68.467  1.00  0.00    -0.226 OA 
ENDBRANCH  14  15
ENDBRANCH  13  14
ENDBRANCH   4  13
BRANCH   6  26
HETATM   26  N   UNL     1     -10.205   5.726  71.838  1.00  0.00    -0.195 N  
HETATM   27  O   UNL     1     -10.112   3.818  70.599  1.00  0.00    -0.065 OA 
HETATM   28  C   UNL     1      -9.605   4.904  70.871  1.00  0.00    -0.176 C  
HETATM   29  H   UNL     1     -11.015   5.290  72.279  1.00  0.00     0.000 HD 
BRANCH  28  30
HETATM   30  C   UNL     1      -8.252   5.205  70.283  1.00  0.00    -0.090 C  
BRANCH  30  31
HETATM   31  C   UNL     1      -7.959   5.253  68.845  1.00  0.00    -0.086 A  
HETATM   32  H2  UNL     1      -6.041   6.685  65.298  1.00  0.00     0.000 HD 
HETATM   33  C   UNL     1      -7.808   4.096  68.097  1.00  0.00    -0.074 A  
HETATM   34  H1  UNL     1      -6.387   7.985  66.438  1.00  0.00     0.000 HD 
HETATM   35  N   UNL     1      -7.477   6.405  68.202  1.00  0.00    -0.092 NA 
HETATM   36  N   UNL     1      -6.429   6.998  66.188  1.00  0.00    -0.050 NA 
HETATM   37  S   UNL     1      -7.064   4.441  66.597  1.00  0.00    -0.068 SA 
HETATM   38  C   UNL     1      -6.992   6.106  67.018  1.00  0.00    -0.072 A  
ENDBRANCH  30  31
BRANCH  30  39
HETATM   39  N   UNL     1      -7.166   5.231  70.982  1.00  0.00    -0.067 NA 
HETATM   40  H   UNL     1      -6.350   4.720  70.646  1.00  0.00     0.000 HD 
BRANCH  39  41
HETATM   41  O   UNL     1      -7.076   5.937  72.182  1.00  0.00    -0.083 OA 
HETATM   42  C   UNL     1      -6.510   5.372  73.349  1.00  0.00    -0.063 C  
ENDBRANCH  39  41
ENDBRANCH  30  39
ENDBRANCH  28  30
ENDBRANCH   6  26
TORSDOF 8
ENDMDL
MODEL      292
REMARK 921   NORMALIZED FREE ENERGY PREDICTED BY IDOCK:   -4.44 KCAL/MOL
REMARK 922        TOTAL FREE ENERGY PREDICTED BY IDOCK:   -7.77 KCAL/MOL
REMARK 923 INTER-LIGAND FREE ENERGY PREDICTED BY IDOCK:   -6.56 KCAL/MOL
REMARK 924 INTRA-LIGAND FREE ENERGY PREDICTED BY IDOCK:   -1.21 KCAL/MOL
REMARK 927      BINDING AFFINITY PREDICTED BY RF-SCORE:    0.00 PKD
ROOT
HETATM    1  C   UNL     1     -11.040   8.666  69.331  1.00  0.00     0.086 C  
HETATM    2  S   UNL     1     -11.787   9.585  70.649  1.00  0.00    -0.193 SA 
HETATM    3  C   UNL     1     -11.772  11.316  70.049  1.00  0.00    -0.346 C  
HETATM    4  C   UNL     1     -11.266  11.613  68.666  1.00  0.00    -0.308 C  
HETATM    5  CA  UNL     1     -10.770  10.669  67.809  1.00  0.00    -0.257 C  
HETATM    6  CA  UNL     1      -9.731   7.769  69.260  1.00  0.00    -0.165 C  
HETATM    7  C   UNL     1      -9.647   8.411  67.840  1.00  0.00    -0.156 C  
HETATM    8  N   UNL     1     -10.542   9.373  68.188  1.00  0.00    -0.225 N  
HETATM    9  C   UNL     1     -10.448  11.067  66.393  1.00  0.00    -0.258 C  
HETATM   10  O   UNL     1      -8.873   8.292  66.921  1.00  0.00    -0.132 OA 
HETATM   11  O   UNL     1      -9.354  10.526  65.821  1.00  0.00    -0.172 OA 
HETATM   12  OXT UNL     1     -11.151  11.839  65.759  1.00  0.00    -0.311 OA 
ENDROOT
BRANCH   4  13
HETATM   13  C   UNL     1     -11.260  13.118  68.261  1.00  0.00    -0.274 C  
BRANCH  13  14
HETATM   14  S   UNL     1     -10.054  14.281  69.015  1.00  0.00    -0.055 SA 
BRANCH  14  15
HETATM   15  C   UNL     1      -9.935  15.674  67.913  1.00  0.00    -0.223 C  
HETATM   16  N   UNL     1     -10.712  15.622  66.888  1.00  0.00    -0.313 N  
HETATM   17  H   UNL     1     -11.422  14.896  66.791  1.00  0.00     0.000 HD 
HETATM   18  C   UNL     1      -7.952  16.658  69.180  1.00  0.00    -0.154 C  
HETATM   19  C   UNL     1     -10.541  16.598  65.928  1.00  0.00    -0.249 C  
HETATM   20  N   UNL     1      -8.969  16.658  68.143  1.00  0.00    -0.205 NA 
HETATM   21  C   UNL     1      -9.806  17.900  66.241  1.00  0.00    -0.301 C  
HETATM   22  O   UNL     1     -10.859  16.448  64.748  1.00  0.00    -0.697 OA 
HETATM   23  H   UNL     1      -8.114  18.416  67.327  1.00  0.00     0.000 HD 
HETATM   24  N   UNL     1      -8.876  17.745  67.237  1.00  0.00    -0.235 N  
HETATM   25  O   UNL     1      -9.984  18.947  65.640  1.00  0.00    -0.425 OA 
ENDBRANCH  14  15
ENDBRANCH  13  14
ENDBRANCH   4  13
BRANCH   6  26
HETATM   26  N   UNL     1      -8.368   7.783  69.966  1.00  0.00    -0.128 N  
HETATM   27  O   UNL     1      -6.549   7.162  71.188  1.00  0.00    -0.044 OA 
HETATM   28  C   UNL     1      -7.610   6.828  70.664  1.00  0.00    -0.095 C  
HETATM   29  H   UNL     1      -7.908   8.692  69.917  1.00  0.00     0.000 HD 
BRANCH  28  30
HETATM   30  C   UNL     1      -7.941   5.360  70.639  1.00  0.00    -0.105 C  
BRANCH  30  31
HETATM   31  C   UNL     1      -7.893   4.515  69.439  1.00  0.00    -0.062 A  
HETATM   32  H2  UNL     1      -6.325   3.111  65.714  1.00  0.00     0.000 HD 
HETATM   33  C   UNL     1      -8.145   3.154  69.501  1.00  0.00    -0.048 A  
HETATM   34  H1  UNL     1      -6.159   4.859  65.889  1.00  0.00     0.000 HD 
HETATM   35  N   UNL     1      -7.271   4.919  68.246  1.00  0.00    -0.062 NA 
HETATM   36  N   UNL     1      -6.472   3.961  66.258  1.00  0.00    -0.036 NA 
HETATM   37  S   UNL     1      -7.607   2.376  68.077  1.00  0.00    -0.055 SA 
HETATM   38  C   UNL     1      -7.078   3.889  67.453  1.00  0.00    -0.063 A  
ENDBRANCH  30  31
BRANCH  30  39
HETATM   39  N   UNL     1      -8.513   4.746  71.621  1.00  0.00    -0.115 NA 
HETATM   40  H   UNL     1      -9.497   4.492  71.539  1.00  0.00     0.000 HD 
BRANCH  39  41
HETATM   41  O   UNL     1      -7.826   4.419  72.790  1.00  0.00    -0.083 OA 
HETATM   42  C   UNL     1      -8.466   4.359  74.050  1.00  0.00    -0.099 C  
ENDBRANCH  39  41
ENDBRANCH  30  39
ENDBRANCH  28  30
ENDBRANCH   6  26
TORSDOF 8
ENDMDL
MODEL      293
REMARK 921   NORMALIZED FREE ENERGY PREDICTED BY IDOCK:   -4.42 KCAL/MOL
REMARK 922        TOTAL FREE ENERGY PREDICTED BY IDOCK:   -7.75 KCAL/MOL
REMARK 923 INTER-LIGAND FREE ENERGY PREDICTED BY IDOCK:   -6.67 KCAL/MOL
REMARK 924 INTRA-LIGAND FREE ENERGY PREDICTED BY IDOCK:   -1.08 KCAL/MOL
REMARK 927      BINDING AFFINITY PREDICTED BY RF-SCORE:    0.00 PKD
ROOT
HETATM    1  C   UNL     1     -10.900  12.761  68.996  1.00  0.00    -0.148 C  
HETATM    2  S   UNL     1     -10.483  11.046  68.838  1.00  0.00    -0.207 SA 
HETATM    3  C   UNL     1      -8.738  11.062  68.280  1.00  0.00    -0.144 C  
HETATM    4  C   UNL     1      -8.017  12.374  68.152  1.00  0.00    -0.153 C  
HETATM    5  CA  UNL     1      -8.589  13.593  68.393  1.00  0.00    -0.151 C  
HETATM    6  CA  UNL     1     -11.992  13.668  68.282  1.00  0.00    -0.350 C  
HETATM    7  C   UNL     1     -10.845  14.721  68.379  1.00  0.00    -0.245 C  
HETATM    8  N   UNL     1      -9.929  13.748  68.628  1.00  0.00    -0.209 N  
HETATM    9  C   UNL     1      -7.717  14.821  68.388  1.00  0.00    -0.122 C  
HETATM   10  O   UNL     1     -10.755  15.881  68.053  1.00  0.00    -0.280 OA 
HETATM   11  O   UNL     1      -8.227  15.952  67.862  1.00  0.00    -0.142 OA 
HETATM   12  OXT UNL     1      -6.590  14.819  68.858  1.00  0.00    -0.085 OA 
ENDROOT
BRANCH   4  13
HETATM   13  C   UNL     1      -6.548  12.286  67.638  1.00  0.00    -0.122 C  
BRANCH  13  14
HETATM   14  S   UNL     1      -5.284  11.349  68.584  1.00  0.00    -0.042 SA 
BRANCH  14  15
HETATM   15  C   UNL     1      -5.722   9.628  68.451  1.00  0.00    -0.040 C  
HETATM   16  N   UNL     1      -5.717   9.159  67.253  1.00  0.00    -0.042 N  
HETATM   17  H   UNL     1      -5.372   9.708  66.465  1.00  0.00     0.000 HD 
HETATM   18  C   UNL     1      -6.332   9.469  70.923  1.00  0.00    -0.089 C  
HETATM   19  C   UNL     1      -6.203   7.879  67.084  1.00  0.00    -0.054 C  
HETATM   20  N   UNL     1      -6.136   8.930  69.589  1.00  0.00    -0.039 NA 
HETATM   21  C   UNL     1      -6.320   6.913  68.262  1.00  0.00    -0.035 C  
HETATM   22  O   UNL     1      -6.671   7.468  66.022  1.00  0.00    -0.048 OA 
HETATM   23  H   UNL     1      -6.907   7.069  70.247  1.00  0.00     0.000 HD 
HETATM   24  N   UNL     1      -6.504   7.567  69.453  1.00  0.00    -0.035 N  
HETATM   25  O   UNL     1      -6.307   5.698  68.153  1.00  0.00    -0.038 OA 
ENDBRANCH  14  15
ENDBRANCH  13  14
ENDBRANCH   4  13
BRANCH   6  26
HETATM   26  N   UNL     1     -12.651  13.679  66.895  1.00  0.00    -0.309 N  
HETATM   27  O   UNL     1     -12.970  13.814  64.644  1.00  0.00    -0.656 OA 
HETATM   28  C   UNL     1     -12.172  13.765  65.578  1.00  0.00    -0.442 C  
HETATM   29  H   UNL     1     -13.667  13.609  66.941  1.00  0.00     0.000 HD 
BRANCH  28  30
HETATM   30  C   UNL     1     -10.715  13.603  65.236  1.00  0.00    -0.336 C  
BRANCH  30  31
HETATM   31  C   UNL     1     -10.090  12.340  64.823  1.00  0.00    -0.246 A  
HETATM   32  H2  UNL     1      -9.451   8.109  64.851  1.00  0.00     0.000 HD 
HETATM   33  C   UNL     1      -9.817  12.068  63.492  1.00  0.00    -0.289 A  
HETATM   34  H1  UNL     1      -9.796   8.740  66.462  1.00  0.00     0.000 HD 
HETATM   35  N   UNL     1     -10.044  11.205  65.649  1.00  0.00    -0.242 NA 
HETATM   36  N   UNL     1      -9.656   8.898  65.464  1.00  0.00    -0.119 NA 
HETATM   37  S   UNL     1      -9.503  10.402  63.268  1.00  0.00    -0.314 SA 
HETATM   38  C   UNL     1      -9.739  10.135  64.950  1.00  0.00    -0.324 A  
ENDBRANCH  30  31
BRANCH  30  39
HETATM   39  N   UNL     1      -9.824  14.504  65.488  1.00  0.00    -0.500 NA 
HETATM   40  H   UNL     1      -9.161  14.346  66.246  1.00  0.00     0.000 HD 
BRANCH  39  41
HETATM   41  O   UNL     1      -9.742  15.687  64.753  1.00  0.00    -0.037 OA 
HETATM   42  C   UNL     1     -10.553  16.811  65.039  1.00  0.00    -0.039 C  
ENDBRANCH  39  41
ENDBRANCH  30  39
ENDBRANCH  28  30
ENDBRANCH   6  26
TORSDOF 8
ENDMDL
MODEL      294
REMARK 921   NORMALIZED FREE ENERGY PREDICTED BY IDOCK:   -4.41 KCAL/MOL
REMARK 922        TOTAL FREE ENERGY PREDICTED BY IDOCK:   -7.74 KCAL/MOL
REMARK 923 INTER-LIGAND FREE ENERGY PREDICTED BY IDOCK:   -6.63 KCAL/MOL
REMARK 924 INTRA-LIGAND FREE ENERGY PREDICTED BY IDOCK:   -1.10 KCAL/MOL
REMARK 927      BINDING AFFINITY PREDICTED BY RF-SCORE:    0.00 PKD
ROOT
HETATM    1  C   UNL     1     -10.253   7.988  67.354  1.00  0.00    -0.261 C  
HETATM    2  S   UNL     1     -10.797   8.921  68.759  1.00  0.00     0.085 SA 
HETATM    3  C   UNL     1     -10.462  10.660  68.295  1.00  0.00    -0.187 C  
HETATM    4  C   UNL     1      -9.928  10.969  66.925  1.00  0.00    -0.231 C  
HETATM    5  CA  UNL     1      -9.630  10.021  65.984  1.00  0.00    -0.222 C  
HETATM    6  CA  UNL     1      -9.139   6.870  67.176  1.00  0.00    -0.131 C  
HETATM    7  C   UNL     1      -8.953   7.598  65.809  1.00  0.00    -0.053 C  
HETATM    8  N   UNL     1      -9.646   8.679  66.255  1.00  0.00    -0.245 N  
HETATM    9  C   UNL     1      -9.256  10.467  64.595  1.00  0.00    -0.240 C  
HETATM   10  O   UNL     1      -8.227   7.412  64.862  1.00  0.00    -0.131 OA 
HETATM   11  O   UNL     1      -8.292   9.778  63.952  1.00  0.00    -0.147 OA 
HETATM   12  OXT UNL     1      -9.809  11.405  64.042  1.00  0.00    -0.244 OA 
ENDROOT
BRANCH   4  13
HETATM   13  C   UNL     1      -9.642  12.474  66.638  1.00  0.00    -0.239 C  
BRANCH  13  14
HETATM   14  S   UNL     1      -9.684  13.707  67.999  1.00  0.00    -0.231 SA 
BRANCH  14  15
HETATM   15  C   UNL     1      -9.249  15.275  67.278  1.00  0.00    -0.199 C  
HETATM   16  N   UNL     1     -10.232  15.922  66.755  1.00  0.00    -0.274 N  
HETATM   17  H   UNL     1     -11.196  15.606  66.859  1.00  0.00     0.000 HD 
HETATM   18  C   UNL     1      -6.754  14.881  67.631  1.00  0.00    -0.177 C  
HETATM   19  C   UNL     1      -9.917  17.063  66.046  1.00  0.00    -0.269 C  
HETATM   20  N   UNL     1      -7.907  15.662  67.220  1.00  0.00    -0.179 NA 
HETATM   21  C   UNL     1      -8.575  17.769  66.232  1.00  0.00    -0.185 C  
HETATM   22  O   UNL     1     -10.630  17.521  65.153  1.00  0.00    -0.657 OA 
HETATM   23  H   UNL     1      -6.606  17.157  66.472  1.00  0.00     0.000 HD 
HETATM   24  N   UNL     1      -7.583  16.905  66.619  1.00  0.00    -0.236 N  
HETATM   25  O   UNL     1      -8.391  18.955  66.011  1.00  0.00    -0.460 OA 
ENDBRANCH  14  15
ENDBRANCH  13  14
ENDBRANCH   4  13
BRANCH   6  26
HETATM   26  N   UNL     1      -7.788   6.571  67.843  1.00  0.00    -0.107 N  
HETATM   27  O   UNL     1      -6.205   5.833  69.304  1.00  0.00    -0.029 OA 
HETATM   28  C   UNL     1      -7.389   5.840  68.974  1.00  0.00    -0.083 C  
HETATM   29  H   UNL     1      -7.004   7.001  67.354  1.00  0.00     0.000 HD 
BRANCH  28  30
HETATM   30  C   UNL     1      -8.316   4.900  69.697  1.00  0.00    -0.083 C  
BRANCH  30  31
HETATM   31  C   UNL     1      -8.914   5.165  71.012  1.00  0.00    -0.133 A  
HETATM   32  H2  UNL     1     -10.003   7.548  74.395  1.00  0.00     0.000 HD 
HETATM   33  C   UNL     1     -10.144   4.636  71.369  1.00  0.00    -0.178 A  
HETATM   34  H1  UNL     1      -8.427   7.999  73.743  1.00  0.00     0.000 HD 
HETATM   35  N   UNL     1      -8.489   6.212  71.846  1.00  0.00    -0.128 NA 
HETATM   36  N   UNL     1      -9.256   7.406  73.714  1.00  0.00    -0.237 NA 
HETATM   37  S   UNL     1     -10.771   5.441  72.741  1.00  0.00    -0.266 SA 
HETATM   38  C   UNL     1      -9.374   6.441  72.790  1.00  0.00    -0.140 A  
ENDBRANCH  30  31
BRANCH  30  39
HETATM   39  N   UNL     1      -8.502   3.674  69.338  1.00  0.00    -0.063 NA 
HETATM   40  H   UNL     1      -9.217   3.465  68.641  1.00  0.00     0.000 HD 
BRANCH  39  41
HETATM   41  O   UNL     1      -7.755   2.625  69.874  1.00  0.00    -0.043 OA 
HETATM   42  C   UNL     1      -6.467   2.293  69.393  1.00  0.00    -0.029 C  
ENDBRANCH  39  41
ENDBRANCH  30  39
ENDBRANCH  28  30
ENDBRANCH   6  26
TORSDOF 8
ENDMDL
MODEL      295
REMARK 921   NORMALIZED FREE ENERGY PREDICTED BY IDOCK:   -4.41 KCAL/MOL
REMARK 922        TOTAL FREE ENERGY PREDICTED BY IDOCK:   -7.73 KCAL/MOL
REMARK 923 INTER-LIGAND FREE ENERGY PREDICTED BY IDOCK:   -6.54 KCAL/MOL
REMARK 924 INTRA-LIGAND FREE ENERGY PREDICTED BY IDOCK:   -1.19 KCAL/MOL
REMARK 927      BINDING AFFINITY PREDICTED BY RF-SCORE:    0.00 PKD
ROOT
HETATM    1  C   UNL     1      -7.658  10.679  68.686  1.00  0.00    -0.103 C  
HETATM    2  S   UNL     1      -7.319   9.757  70.161  1.00  0.00    -0.165 SA 
HETATM    3  C   UNL     1      -7.859   8.054  69.756  1.00  0.00    -0.106 C  
HETATM    4  C   UNL     1      -8.357   7.748  68.372  1.00  0.00    -0.125 C  
HETATM    5  CA  UNL     1      -8.475   8.676  67.374  1.00  0.00    -0.123 C  
HETATM    6  CA  UNL     1      -8.601  11.923  68.394  1.00  0.00    -0.152 C  
HETATM    7  C   UNL     1      -8.810  11.155  67.051  1.00  0.00    -0.149 C  
HETATM    8  N   UNL     1      -8.293  10.017  67.585  1.00  0.00    -0.114 N  
HETATM    9  C   UNL     1      -8.831   8.213  65.986  1.00  0.00    -0.172 C  
HETATM   10  O   UNL     1      -9.453  11.386  66.056  1.00  0.00    -0.210 OA 
HETATM   11  O   UNL     1      -9.658   8.988  65.258  1.00  0.00    -0.142 OA 
HETATM   12  OXT UNL     1      -8.380   7.182  65.510  1.00  0.00    -0.131 OA 
ENDROOT
BRANCH   4  13
HETATM   13  C   UNL     1      -8.826   6.281  68.135  1.00  0.00    -0.113 C  
BRANCH  13  14
HETATM   14  S   UNL     1      -7.652   4.883  68.340  1.00  0.00    -0.078 SA 
BRANCH  14  15
HETATM   15  C   UNL     1      -8.359   3.800  69.563  1.00  0.00    -0.056 C  
HETATM   16  N   UNL     1      -8.209   4.187  70.782  1.00  0.00    -0.069 N  
HETATM   17  H   UNL     1      -7.820   5.102  71.008  1.00  0.00     0.000 HD 
HETATM   18  C   UNL     1      -8.946   2.026  67.827  1.00  0.00    -0.149 C  
HETATM   19  C   UNL     1      -8.599   3.303  71.767  1.00  0.00    -0.076 C  
HETATM   20  N   UNL     1      -8.922   2.583  69.167  1.00  0.00    -0.099 NA 
HETATM   21  C   UNL     1      -9.548   2.145  71.465  1.00  0.00    -0.142 C  
HETATM   22  O   UNL     1      -8.135   3.315  72.908  1.00  0.00    -0.076 OA 
HETATM   23  H   UNL     1      -9.777   0.791  69.908  1.00  0.00     0.000 HD 
HETATM   24  N   UNL     1      -9.457   1.726  70.162  1.00  0.00    -0.096 N  
HETATM   25  O   UNL     1     -10.267   1.616  72.297  1.00  0.00    -0.137 OA 
ENDBRANCH  14  15
ENDBRANCH  13  14
ENDBRANCH   4  13
BRANCH   6  26
HETATM   26  N   UNL     1      -9.933  12.431  68.965  1.00  0.00    -0.413 N  
HETATM   27  O   UNL     1     -11.723  13.751  69.453  1.00  0.00    -0.283 OA 
HETATM   28  C   UNL     1     -10.698  13.596  68.792  1.00  0.00    -0.244 C  
HETATM   29  H   UNL     1     -10.358  11.773  69.618  1.00  0.00     0.000 HD 
BRANCH  28  30
HETATM   30  C   UNL     1     -10.427  14.583  67.689  1.00  0.00    -0.246 C  
BRANCH  30  31
HETATM   31  C   UNL     1     -10.947  14.469  66.320  1.00  0.00    -0.323 A  
HETATM   32  H2  UNL     1     -13.618  13.123  63.261  1.00  0.00     0.000 HD 
HETATM   33  C   UNL     1     -11.014  15.565  65.476  1.00  0.00    -0.324 A  
HETATM   34  H1  UNL     1     -13.325  11.882  64.480  1.00  0.00     0.000 HD 
HETATM   35  N   UNL     1     -11.716  13.376  65.886  1.00  0.00    -0.340 NA 
HETATM   36  N   UNL     1     -13.154  12.820  64.117  1.00  0.00    -0.539 NA 
HETATM   37  S   UNL     1     -12.033  15.238  64.143  1.00  0.00     0.056 SA 
HETATM   38  C   UNL     1     -12.323  13.658  64.755  1.00  0.00    -0.390 A  
ENDBRANCH  30  31
BRANCH  30  39
HETATM   39  N   UNL     1      -9.531  15.510  67.772  1.00  0.00    -0.204 NA 
HETATM   40  H   UNL     1      -8.648  15.390  67.275  1.00  0.00     0.000 HD 
BRANCH  39  41
HETATM   41  O   UNL     1      -9.733  16.670  68.520  1.00  0.00    -0.227 OA 
HETATM   42  C   UNL     1      -8.955  17.836  68.330  1.00  0.00    -0.281 C  
ENDBRANCH  39  41
ENDBRANCH  30  39
ENDBRANCH  28  30
ENDBRANCH   6  26
TORSDOF 8
ENDMDL
MODEL      296
REMARK 921   NORMALIZED FREE ENERGY PREDICTED BY IDOCK:   -4.40 KCAL/MOL
REMARK 922        TOTAL FREE ENERGY PREDICTED BY IDOCK:   -7.71 KCAL/MOL
REMARK 923 INTER-LIGAND FREE ENERGY PREDICTED BY IDOCK:   -6.99 KCAL/MOL
REMARK 924 INTRA-LIGAND FREE ENERGY PREDICTED BY IDOCK:   -0.72 KCAL/MOL
REMARK 927      BINDING AFFINITY PREDICTED BY RF-SCORE:    0.00 PKD
ROOT
HETATM    1  C   UNL     1     -10.202   7.842  69.765  1.00  0.00    -0.211 C  
HETATM    2  S   UNL     1     -11.496   8.629  70.685  1.00  0.00    -0.181 SA 
HETATM    3  C   UNL     1     -11.868  10.143  69.724  1.00  0.00    -0.088 C  
HETATM    4  C   UNL     1     -11.156  10.385  68.424  1.00  0.00    -0.322 C  
HETATM    5  CA  UNL     1     -10.199   9.557  67.905  1.00  0.00    -0.205 C  
HETATM    6  CA  UNL     1      -8.705   7.460  70.134  1.00  0.00    -0.143 C  
HETATM    7  C   UNL     1      -8.477   7.868  68.645  1.00  0.00    -0.128 C  
HETATM    8  N   UNL     1      -9.682   8.496  68.600  1.00  0.00    -0.160 N  
HETATM    9  C   UNL     1      -9.678   9.824  66.517  1.00  0.00    -0.209 C  
HETATM   10  O   UNL     1      -7.504   7.890  67.931  1.00  0.00    -0.099 OA 
HETATM   11  O   UNL     1      -8.366   9.620  66.288  1.00  0.00    -0.114 OA 
HETATM   12  OXT UNL     1     -10.407  10.194  65.610  1.00  0.00    -0.240 OA 
ENDROOT
BRANCH   4  13
HETATM   13  C   UNL     1     -11.515  11.717  67.698  1.00  0.00    -0.303 C  
BRANCH  13  14
HETATM   14  S   UNL     1     -10.411  13.179  67.834  1.00  0.00    -0.237 SA 
BRANCH  14  15
HETATM   15  C   UNL     1     -11.088  14.210  69.118  1.00  0.00    -0.262 C  
HETATM   16  N   UNL     1     -12.086  13.701  69.751  1.00  0.00    -0.336 N  
HETATM   17  H   UNL     1     -12.378  12.735  69.601  1.00  0.00     0.000 HD 
HETATM   18  C   UNL     1      -9.602  16.183  68.482  1.00  0.00    -0.215 C  
HETATM   19  C   UNL     1     -12.741  14.524  70.643  1.00  0.00    -0.360 C  
HETATM   20  N   UNL     1     -10.597  15.507  69.295  1.00  0.00    -0.220 NA 
HETATM   21  C   UNL     1     -12.083  15.792  71.184  1.00  0.00    -0.427 C  
HETATM   22  O   UNL     1     -13.917  14.363  70.973  1.00  0.00    -0.240 OA 
HETATM   23  H   UNL     1     -10.899  17.298  70.385  1.00  0.00     0.000 HD 
HETATM   24  N   UNL     1     -11.169  16.318  70.308  1.00  0.00    -0.374 N  
HETATM   25  O   UNL     1     -12.374  16.311  72.250  1.00  0.00    -0.462 OA 
ENDBRANCH  14  15
ENDBRANCH  13  14
ENDBRANCH   4  13
BRANCH   6  26
HETATM   26  N   UNL     1      -7.629   8.058  71.052  1.00  0.00    -0.080 N  
HETATM   27  O   UNL     1      -6.308   8.483  72.857  1.00  0.00    -0.091 OA 
HETATM   28  C   UNL     1      -7.166   7.767  72.346  1.00  0.00    -0.082 C  
HETATM   29  H   UNL     1      -7.140   8.845  70.626  1.00  0.00     0.000 HD 
BRANCH  28  30
HETATM   30  C   UNL     1      -7.533   6.499  73.068  1.00  0.00    -0.089 C  
BRANCH  30  31
HETATM   31  C   UNL     1      -8.723   5.688  72.779  1.00  0.00    -0.119 A  
HETATM   32  H2  UNL     1     -10.861   2.147  71.684  1.00  0.00     0.000 HD 
HETATM   33  C   UNL     1      -9.865   5.773  73.559  1.00  0.00    -0.166 A  
HETATM   34  H1  UNL     1      -9.345   2.309  70.797  1.00  0.00     0.000 HD 
HETATM   35  N   UNL     1      -8.690   4.554  71.951  1.00  0.00    -0.116 NA 
HETATM   36  N   UNL     1     -10.010   2.671  71.480  1.00  0.00    -0.119 NA 
HETATM   37  S   UNL     1     -10.897   4.442  73.264  1.00  0.00    -0.273 SA 
HETATM   38  C   UNL     1      -9.776   3.832  72.113  1.00  0.00    -0.161 A  
ENDBRANCH  30  31
BRANCH  30  39
HETATM   39  N   UNL     1      -6.960   6.115  74.161  1.00  0.00    -0.083 NA 
HETATM   40  H   UNL     1      -6.556   6.817  74.780  1.00  0.00     0.000 HD 
BRANCH  39  41
HETATM   41  O   UNL     1      -6.878   4.769  74.520  1.00  0.00    -0.068 OA 
HETATM   42  C   UNL     1      -5.897   3.904  73.983  1.00  0.00    -0.004 C  
ENDBRANCH  39  41
ENDBRANCH  30  39
ENDBRANCH  28  30
ENDBRANCH   6  26
TORSDOF 8
ENDMDL
MODEL      297
REMARK 921   NORMALIZED FREE ENERGY PREDICTED BY IDOCK:   -4.39 KCAL/MOL
REMARK 922        TOTAL FREE ENERGY PREDICTED BY IDOCK:   -7.71 KCAL/MOL
REMARK 923 INTER-LIGAND FREE ENERGY PREDICTED BY IDOCK:   -6.00 KCAL/MOL
REMARK 924 INTRA-LIGAND FREE ENERGY PREDICTED BY IDOCK:   -1.72 KCAL/MOL
REMARK 927      BINDING AFFINITY PREDICTED BY RF-SCORE:    0.00 PKD
ROOT
HETATM    1  C   UNL     1     -10.769   7.921  68.981  1.00  0.00    -0.096 C  
HETATM    2  S   UNL     1     -10.885   6.654  67.747  1.00  0.00    -0.290 SA 
HETATM    3  C   UNL     1     -10.041   5.216  68.503  1.00  0.00    -0.144 C  
HETATM    4  C   UNL     1      -9.532   5.317  69.913  1.00  0.00    -0.211 C  
HETATM    5  CA  UNL     1      -9.621   6.444  70.684  1.00  0.00    -0.172 C  
HETATM    6  CA  UNL     1     -10.088   9.356  68.981  1.00  0.00    -0.194 C  
HETATM    7  C   UNL     1      -9.773   8.951  70.456  1.00  0.00    -0.203 C  
HETATM    8  N   UNL     1     -10.049   7.647  70.190  1.00  0.00    -0.197 N  
HETATM    9  C   UNL     1      -9.221   6.368  72.134  1.00  0.00    -0.140 C  
HETATM   10  O   UNL     1      -9.213   9.511  71.367  1.00  0.00    -0.224 OA 
HETATM   11  O   UNL     1      -8.576   7.426  72.664  1.00  0.00    -0.108 OA 
HETATM   12  OXT UNL     1      -9.480   5.399  72.830  1.00  0.00    -0.145 OA 
ENDROOT
BRANCH   4  13
HETATM   13  C   UNL     1      -8.799   4.053  70.456  1.00  0.00    -0.083 C  
BRANCH  13  14
HETATM   14  S   UNL     1      -6.994   3.837  70.191  1.00  0.00    -0.038 SA 
BRANCH  14  15
HETATM   15  C   UNL     1      -6.627   4.541  68.597  1.00  0.00    -0.045 C  
HETATM   16  N   UNL     1      -6.641   5.828  68.557  1.00  0.00    -0.050 N  
HETATM   17  H   UNL     1      -6.735   6.388  69.404  1.00  0.00     0.000 HD 
HETATM   18  C   UNL     1      -6.618   2.259  67.458  1.00  0.00    -0.035 C  
HETATM   19  C   UNL     1      -6.520   6.412  67.313  1.00  0.00    -0.052 C  
HETATM   20  N   UNL     1      -6.458   3.702  67.492  1.00  0.00    -0.037 NA 
HETATM   21  C   UNL     1      -5.963   5.635  66.121  1.00  0.00    -0.022 C  
HETATM   22  O   UNL     1      -6.945   7.538  67.052  1.00  0.00    -0.077 OA 
HETATM   23  H   UNL     1      -6.169   3.702  65.393  1.00  0.00     0.000 HD 
HETATM   24  N   UNL     1      -6.191   4.287  66.228  1.00  0.00    -0.031 N  
HETATM   25  O   UNL     1      -5.426   6.156  65.158  1.00  0.00    -0.016 OA 
ENDBRANCH  14  15
ENDBRANCH  13  14
ENDBRANCH   4  13
BRANCH   6  26
HETATM   26  N   UNL     1      -8.862   9.974  68.294  1.00  0.00    -0.115 N  
HETATM   27  O   UNL     1      -7.498  10.937  66.745  1.00  0.00    -0.120 OA 
HETATM   28  C   UNL     1      -8.636  10.585  67.049  1.00  0.00    -0.127 C  
HETATM   29  H   UNL     1      -8.023   9.931  68.870  1.00  0.00     0.000 HD 
BRANCH  28  30
HETATM   30  C   UNL     1      -9.759  11.010  66.142  1.00  0.00    -0.217 C  
BRANCH  30  31
HETATM   31  C   UNL     1     -10.624  12.174  66.373  1.00  0.00    -0.241 A  
HETATM   32  H2  UNL     1     -11.521  16.321  66.921  1.00  0.00     0.000 HD 
HETATM   33  C   UNL     1     -11.851  12.301  65.743  1.00  0.00    -0.352 A  
HETATM   34  H1  UNL     1      -9.989  15.868  67.669  1.00  0.00     0.000 HD 
HETATM   35  N   UNL     1     -10.157  13.370  66.943  1.00  0.00    -0.250 NA 
HETATM   36  N   UNL     1     -10.824  15.610  67.144  1.00  0.00    -0.312 NA 
HETATM   37  S   UNL     1     -12.424  13.908  65.858  1.00  0.00    -0.448 SA 
HETATM   38  C   UNL     1     -11.016  14.344  66.744  1.00  0.00    -0.314 A  
ENDBRANCH  30  31
BRANCH  30  39
HETATM   39  N   UNL     1     -10.219  10.268  65.189  1.00  0.00    -0.289 NA 
HETATM   40  H   UNL     1     -11.122   9.811  65.310  1.00  0.00     0.000 HD 
BRANCH  39  41
HETATM   41  O   UNL     1      -9.517  10.073  63.999  1.00  0.00    -0.279 OA 
HETATM   42  C   UNL     1      -9.691  10.913  62.874  1.00  0.00    -0.317 C  
ENDBRANCH  39  41
ENDBRANCH  30  39
ENDBRANCH  28  30
ENDBRANCH   6  26
TORSDOF 8
ENDMDL
MODEL      298
REMARK 921   NORMALIZED FREE ENERGY PREDICTED BY IDOCK:   -4.39 KCAL/MOL
REMARK 922        TOTAL FREE ENERGY PREDICTED BY IDOCK:   -7.71 KCAL/MOL
REMARK 923 INTER-LIGAND FREE ENERGY PREDICTED BY IDOCK:   -6.83 KCAL/MOL
REMARK 924 INTRA-LIGAND FREE ENERGY PREDICTED BY IDOCK:   -0.88 KCAL/MOL
REMARK 927      BINDING AFFINITY PREDICTED BY RF-SCORE:    0.00 PKD
ROOT
HETATM    1  C   UNL     1      -9.972  11.301  68.918  1.00  0.00    -0.155 C  
HETATM    2  S   UNL     1     -11.007   9.917  68.528  1.00  0.00    -0.135 SA 
HETATM    3  C   UNL     1      -9.840   8.653  67.898  1.00  0.00    -0.173 C  
HETATM    4  C   UNL     1      -8.366   8.943  67.902  1.00  0.00    -0.118 C  
HETATM    5  CA  UNL     1      -7.815  10.124  68.319  1.00  0.00    -0.093 C  
HETATM    6  CA  UNL     1      -9.929  12.793  68.373  1.00  0.00    -0.210 C  
HETATM    7  C   UNL     1      -8.395  12.568  68.549  1.00  0.00    -0.069 C  
HETATM    8  N   UNL     1      -8.570  11.222  68.633  1.00  0.00    -0.154 N  
HETATM    9  C   UNL     1      -6.317  10.230  68.429  1.00  0.00    -0.048 C  
HETATM   10  O   UNL     1      -7.428  13.268  68.367  1.00  0.00    -0.110 OA 
HETATM   11  O   UNL     1      -5.742  11.396  68.072  1.00  0.00    -0.043 OA 
HETATM   12  OXT UNL     1      -5.629   9.311  68.843  1.00  0.00    -0.037 OA 
ENDROOT
BRANCH   4  13
HETATM   13  C   UNL     1      -7.458   7.820  67.314  1.00  0.00    -0.093 C  
BRANCH  13  14
HETATM   14  S   UNL     1      -6.647   8.038  65.680  1.00  0.00    -0.041 SA 
BRANCH  14  15
HETATM   15  C   UNL     1      -7.781   8.968  64.670  1.00  0.00    -0.115 C  
HETATM   16  N   UNL     1      -8.332   9.971  65.258  1.00  0.00    -0.146 N  
HETATM   17  H   UNL     1      -8.042  10.271  66.189  1.00  0.00     0.000 HD 
HETATM   18  C   UNL     1      -7.630   7.294  62.751  1.00  0.00    -0.111 C  
HETATM   19  C   UNL     1      -9.333  10.623  64.568  1.00  0.00    -0.243 C  
HETATM   20  N   UNL     1      -8.087   8.520  63.382  1.00  0.00    -0.166 NA 
HETATM   21  C   UNL     1      -9.484  10.470  63.055  1.00  0.00    -0.335 C  
HETATM   22  O   UNL     1     -10.224  11.269  65.120  1.00  0.00    -0.260 OA 
HETATM   23  H   UNL     1      -9.328   8.899  61.707  1.00  0.00     0.000 HD 
HETATM   24  N   UNL     1      -9.012   9.263  62.606  1.00  0.00    -0.210 N  
HETATM   25  O   UNL     1     -10.012  11.300  62.334  1.00  0.00     0.026 OA 
ENDBRANCH  14  15
ENDBRANCH  13  14
ENDBRANCH   4  13
BRANCH   6  26
HETATM   26  N   UNL     1     -10.249  13.465  67.030  1.00  0.00    -0.247 N  
HETATM   27  O   UNL     1     -10.900  14.985  65.464  1.00  0.00    -0.313 OA 
HETATM   28  C   UNL     1     -10.652  14.755  66.646  1.00  0.00    -0.299 C  
HETATM   29  H   UNL     1     -10.145  12.832  66.237  1.00  0.00     0.000 HD 
BRANCH  28  30
HETATM   30  C   UNL     1     -10.611  15.928  67.588  1.00  0.00    -0.307 C  
BRANCH  30  31
HETATM   31  C   UNL     1     -11.183  15.932  68.941  1.00  0.00    -0.343 A  
HETATM   32  H2  UNL     1     -13.894  14.757  72.035  1.00  0.00     0.000 HD 
HETATM   33  C   UNL     1     -10.378  15.950  70.068  1.00  0.00    -0.238 A  
HETATM   34  H1  UNL     1     -14.683  14.848  70.460  1.00  0.00     0.000 HD 
HETATM   35  N   UNL     1     -12.515  15.576  69.206  1.00  0.00    -0.066 NA 
HETATM   36  N   UNL     1     -13.847  14.952  71.035  1.00  0.00    -0.336 NA 
HETATM   37  S   UNL     1     -11.277  15.522  71.458  1.00  0.00    -0.234 SA 
HETATM   38  C   UNL     1     -12.686  15.346  70.489  1.00  0.00    -0.405 A  
ENDBRANCH  30  31
BRANCH  30  39
HETATM   39  N   UNL     1     -10.267  17.118  67.223  1.00  0.00    -0.308 NA 
HETATM   40  H   UNL     1      -9.497  17.230  66.563  1.00  0.00     0.000 HD 
BRANCH  39  41
HETATM   41  O   UNL     1     -10.916  18.256  67.702  1.00  0.00    -0.333 OA 
HETATM   42  C   UNL     1     -10.261  19.214  68.510  1.00  0.00    -0.367 C  
ENDBRANCH  39  41
ENDBRANCH  30  39
ENDBRANCH  28  30
ENDBRANCH   6  26
TORSDOF 8
ENDMDL
MODEL      299
REMARK 921   NORMALIZED FREE ENERGY PREDICTED BY IDOCK:   -4.36 KCAL/MOL
REMARK 922        TOTAL FREE ENERGY PREDICTED BY IDOCK:   -7.66 KCAL/MOL
REMARK 923 INTER-LIGAND FREE ENERGY PREDICTED BY IDOCK:   -7.13 KCAL/MOL
REMARK 924 INTRA-LIGAND FREE ENERGY PREDICTED BY IDOCK:   -0.53 KCAL/MOL
REMARK 927      BINDING AFFINITY PREDICTED BY RF-SCORE:    0.00 PKD
ROOT
HETATM    1  C   UNL     1     -11.674  12.557  70.129  1.00  0.00    -0.175 C  
HETATM    2  S   UNL     1     -13.242  12.842  70.904  1.00  0.00     0.433 SA 
HETATM    3  C   UNL     1     -13.594  11.276  71.786  1.00  0.00     0.066 C  
HETATM    4  C   UNL     1     -12.569  10.177  71.776  1.00  0.00    -0.500 C  
HETATM    5  CA  UNL     1     -11.376  10.244  71.110  1.00  0.00    -0.146 C  
HETATM    6  CA  UNL     1     -11.217  12.548  68.608  1.00  0.00    -0.278 C  
HETATM    7  C   UNL     1     -10.316  11.383  69.125  1.00  0.00    -0.094 C  
HETATM    8  N   UNL     1     -11.062  11.267  70.256  1.00  0.00     0.015 N  
HETATM    9  C   UNL     1     -10.367   9.145  71.312  1.00  0.00    -0.334 C  
HETATM   10  O   UNL     1      -9.496  10.672  68.597  1.00  0.00    -0.161 OA 
HETATM   11  O   UNL     1      -9.647   8.750  70.243  1.00  0.00    -0.165 OA 
HETATM   12  OXT UNL     1     -10.176   8.629  72.402  1.00  0.00    -0.312 OA 
ENDROOT
BRANCH   4  13
HETATM   13  C   UNL     1     -12.975   8.872  72.526  1.00  0.00    -0.351 C  
BRANCH  13  14
HETATM   14  S   UNL     1     -13.600   7.418  71.593  1.00  0.00    -0.306 SA 
BRANCH  14  15
HETATM   15  C   UNL     1     -12.171   6.578  70.944  1.00  0.00    -0.161 C  
HETATM   16  N   UNL     1     -11.893   6.851  69.717  1.00  0.00    -0.632 N  
HETATM   17  H   UNL     1     -12.387   7.582  69.207  1.00  0.00     0.000 HD 
HETATM   18  C   UNL     1     -11.906   5.154  73.044  1.00  0.00    -0.057 C  
HETATM   19  C   UNL     1     -10.894   6.105  69.126  1.00  0.00    -0.351 C  
HETATM   20  N   UNL     1     -11.515   5.624  71.727  1.00  0.00    -0.128 NA 
HETATM   21  C   UNL     1      -9.881   5.328  69.965  1.00  0.00    -0.218 C  
HETATM   22  O   UNL     1     -10.815   5.925  67.910  1.00  0.00    -0.271 OA 
HETATM   23  H   UNL     1      -9.966   4.178  71.691  1.00  0.00     0.000 HD 
HETATM   24  N   UNL     1     -10.394   4.950  71.179  1.00  0.00    -0.189 N  
HETATM   25  O   UNL     1      -8.762   5.029  69.580  1.00  0.00    -0.089 OA 
ENDBRANCH  14  15
ENDBRANCH  13  14
ENDBRANCH   4  13
BRANCH   6  26
HETATM   26  N   UNL     1     -11.891  12.189  67.276  1.00  0.00    -0.296 N  
HETATM   27  O   UNL     1     -12.484  12.176  65.077  1.00  0.00    -0.490 OA 
HETATM   28  C   UNL     1     -11.732  12.612  65.946  1.00  0.00    -0.420 C  
HETATM   29  H   UNL     1     -12.621  11.484  67.381  1.00  0.00     0.000 HD 
BRANCH  28  30
HETATM   30  C   UNL     1     -10.553  13.432  65.496  1.00  0.00    -0.290 C  
BRANCH  30  31
HETATM   31  C   UNL     1      -9.374  13.721  66.321  1.00  0.00    -0.145 A  
HETATM   32  H2  UNL     1      -7.267  15.254  69.715  1.00  0.00     0.000 HD 
HETATM   33  C   UNL     1      -8.364  12.788  66.495  1.00  0.00     0.236 A  
HETATM   34  H1  UNL     1      -8.617  16.289  69.248  1.00  0.00     0.000 HD 
HETATM   35  N   UNL     1      -9.333  14.774  67.250  1.00  0.00    -0.200 NA 
HETATM   36  N   UNL     1      -8.049  15.456  69.092  1.00  0.00    -0.215 NA 
HETATM   37  S   UNL     1      -7.364  13.220  67.813  1.00  0.00    -0.163 SA 
HETATM   38  C   UNL     1      -8.321  14.624  68.076  1.00  0.00    -0.146 A  
ENDBRANCH  30  31
BRANCH  30  39
HETATM   39  N   UNL     1     -10.558  14.149  64.421  1.00  0.00    -0.582 NA 
HETATM   40  H   UNL     1     -10.313  13.711  63.533  1.00  0.00     0.000 HD 
BRANCH  39  41
HETATM   41  O   UNL     1     -10.889  15.504  64.437  1.00  0.00    -0.256 OA 
HETATM   42  C   UNL     1     -12.224  15.953  64.559  1.00  0.00     0.240 C  
ENDBRANCH  39  41
ENDBRANCH  30  39
ENDBRANCH  28  30
ENDBRANCH   6  26
TORSDOF 8
ENDMDL
MODEL      300
REMARK 921   NORMALIZED FREE ENERGY PREDICTED BY IDOCK:   -4.34 KCAL/MOL
REMARK 922        TOTAL FREE ENERGY PREDICTED BY IDOCK:   -7.63 KCAL/MOL
REMARK 923 INTER-LIGAND FREE ENERGY PREDICTED BY IDOCK:   -5.81 KCAL/MOL
REMARK 924 INTRA-LIGAND FREE ENERGY PREDICTED BY IDOCK:   -1.82 KCAL/MOL
REMARK 927      BINDING AFFINITY PREDICTED BY RF-SCORE:    0.00 PKD
ROOT
HETATM    1  C   UNL     1      -7.575  10.809  65.584  1.00  0.00    -0.044 C  
HETATM    2  S   UNL     1      -6.735  10.215  67.026  1.00  0.00    -0.080 SA 
HETATM    3  C   UNL     1      -6.455   8.439  66.679  1.00  0.00    -0.056 C  
HETATM    4  C   UNL     1      -6.861   7.875  65.347  1.00  0.00    -0.058 C  
HETATM    5  CA  UNL     1      -7.472   8.598  64.360  1.00  0.00    -0.108 C  
HETATM    6  CA  UNL     1      -9.007  11.464  65.372  1.00  0.00    -0.047 C  
HETATM    7  C   UNL     1      -8.940  10.626  64.057  1.00  0.00    -0.196 C  
HETATM    8  N   UNL     1      -7.916   9.880  64.547  1.00  0.00    -0.139 N  
HETATM    9  C   UNL     1      -7.679   7.960  63.011  1.00  0.00    -0.132 C  
HETATM   10  O   UNL     1      -9.693  10.489  63.122  1.00  0.00    -0.318 OA 
HETATM   11  O   UNL     1      -8.825   8.232  62.357  1.00  0.00    -0.058 OA 
HETATM   12  OXT UNL     1      -6.842   7.233  62.501  1.00  0.00    -0.065 OA 
ENDROOT
BRANCH   4  13
HETATM   13  C   UNL     1      -6.614   6.347  65.160  1.00  0.00    -0.039 C  
BRANCH  13  14
HETATM   14  S   UNL     1      -5.906   5.344  66.526  1.00  0.00    -0.019 SA 
BRANCH  14  15
HETATM   15  C   UNL     1      -7.207   4.269  67.094  1.00  0.00    -0.068 C  
HETATM   16  N   UNL     1      -7.400   3.223  66.369  1.00  0.00    -0.074 N  
HETATM   17  H   UNL     1      -6.771   2.979  65.604  1.00  0.00     0.000 HD 
HETATM   18  C   UNL     1      -7.928   5.905  68.913  1.00  0.00    -0.102 C  
HETATM   19  C   UNL     1      -8.498   2.446  66.678  1.00  0.00    -0.099 C  
HETATM   20  N   UNL     1      -7.993   4.650  68.186  1.00  0.00    -0.084 NA 
HETATM   21  C   UNL     1      -9.183   2.547  68.040  1.00  0.00    -0.206 C  
HETATM   22  O   UNL     1      -9.060   1.716  65.862  1.00  0.00    -0.117 OA 
HETATM   23  H   UNL     1      -9.688   4.095  69.328  1.00  0.00     0.000 HD 
HETATM   24  N   UNL     1      -9.039   3.789  68.604  1.00  0.00    -0.129 N  
HETATM   25  O   UNL     1      -9.832   1.646  68.546  1.00  0.00    -0.110 OA 
ENDBRANCH  14  15
ENDBRANCH  13  14
ENDBRANCH   4  13
BRANCH   6  26
HETATM   26  N   UNL     1     -10.373  11.327  66.058  1.00  0.00    -0.245 N  
HETATM   27  O   UNL     1     -11.992  10.953  67.616  1.00  0.00    -0.512 OA 
HETATM   28  C   UNL     1     -10.793  11.070  67.374  1.00  0.00    -0.274 C  
HETATM   29  H   UNL     1     -11.153  11.449  65.413  1.00  0.00     0.000 HD 
BRANCH  28  30
HETATM   30  C   UNL     1      -9.851  11.124  68.547  1.00  0.00    -0.198 C  
BRANCH  30  31
HETATM   31  C   UNL     1      -9.741  10.083  69.577  1.00  0.00    -0.233 A  
HETATM   32  H2  UNL     1      -7.958   8.042  72.888  1.00  0.00     0.000 HD 
HETATM   33  C   UNL     1     -10.845   9.655  70.296  1.00  0.00    -0.285 A  
HETATM   34  H1  UNL     1      -6.750   8.677  71.770  1.00  0.00     0.000 HD 
HETATM   35  N   UNL     1      -8.515   9.701  70.148  1.00  0.00    -0.197 NA 
HETATM   36  N   UNL     1      -7.727   8.540  72.028  1.00  0.00    -0.222 NA 
HETATM   37  S   UNL     1     -10.360   8.780  71.682  1.00  0.00    -0.346 SA 
HETATM   38  C   UNL     1      -8.712   9.009  71.247  1.00  0.00    -0.171 A  
ENDBRANCH  30  31
BRANCH  30  39
HETATM   39  N   UNL     1      -9.205  12.189  68.889  1.00  0.00    -0.383 NA 
HETATM   40  H   UNL     1      -8.551  12.142  69.670  1.00  0.00     0.000 HD 
BRANCH  39  41
HETATM   41  O   UNL     1      -9.375  13.403  68.222  1.00  0.00    -0.209 OA 
HETATM   42  C   UNL     1      -8.285  14.131  67.691  1.00  0.00    -0.186 C  
ENDBRANCH  39  41
ENDBRANCH  30  39
ENDBRANCH  28  30
ENDBRANCH   6  26
TORSDOF 8
ENDMDL
MODEL      301
REMARK 921   NORMALIZED FREE ENERGY PREDICTED BY IDOCK:   -4.34 KCAL/MOL
REMARK 922        TOTAL FREE ENERGY PREDICTED BY IDOCK:   -7.62 KCAL/MOL
REMARK 923 INTER-LIGAND FREE ENERGY PREDICTED BY IDOCK:   -7.05 KCAL/MOL
REMARK 924 INTRA-LIGAND FREE ENERGY PREDICTED BY IDOCK:   -0.58 KCAL/MOL
REMARK 927      BINDING AFFINITY PREDICTED BY RF-SCORE:    0.00 PKD
ROOT
HETATM    1  C   UNL     1     -10.557  11.134  66.939  1.00  0.00    -0.258 C  
HETATM    2  S   UNL     1      -9.481  11.236  68.343  1.00  0.00    -0.195 SA 
HETATM    3  C   UNL     1      -8.913  12.977  68.344  1.00  0.00    -0.126 C  
HETATM    4  C   UNL     1      -9.463  13.933  67.324  1.00  0.00    -0.239 C  
HETATM    5  CA  UNL     1     -10.353  13.584  66.345  1.00  0.00    -0.289 C  
HETATM    6  CA  UNL     1     -10.506  10.263  65.612  1.00  0.00    -0.082 C  
HETATM    7  C   UNL     1     -11.082  11.578  65.001  1.00  0.00    -0.201 C  
HETATM    8  N   UNL     1     -10.716  12.287  66.102  1.00  0.00    -0.253 N  
HETATM    9  C   UNL     1     -10.953  14.667  65.486  1.00  0.00    -0.340 C  
HETATM   10  O   UNL     1     -11.423  11.895  63.887  1.00  0.00    -0.381 OA 
HETATM   11  O   UNL     1     -11.145  14.399  64.180  1.00  0.00    -0.133 OA 
HETATM   12  OXT UNL     1     -11.279  15.752  65.943  1.00  0.00    -0.168 OA 
ENDROOT
BRANCH   4  13
HETATM   13  C   UNL     1      -8.893  15.383  67.383  1.00  0.00    -0.183 C  
BRANCH  13  14
HETATM   14  S   UNL     1      -7.135  15.675  67.831  1.00  0.00    -0.152 SA 
BRANCH  14  15
HETATM   15  C   UNL     1      -6.827  17.409  67.572  1.00  0.00    -0.155 C  
HETATM   16  N   UNL     1      -7.014  17.818  66.366  1.00  0.00    -0.227 N  
HETATM   17  H   UNL     1      -7.423  17.214  65.654  1.00  0.00     0.000 HD 
HETATM   18  C   UNL     1      -5.915  17.721  69.934  1.00  0.00    -0.216 C  
HETATM   19  C   UNL     1      -6.636  19.115  66.084  1.00  0.00    -0.212 C  
HETATM   20  N   UNL     1      -6.314  18.184  68.617  1.00  0.00    -0.202 NA 
HETATM   21  C   UNL     1      -6.429  20.141  67.197  1.00  0.00    -0.202 C  
HETATM   22  O   UNL     1      -6.334  19.500  64.954  1.00  0.00    -0.268 OA 
HETATM   23  H   UNL     1      -5.583  20.115  69.092  1.00  0.00     0.000 HD 
HETATM   24  N   UNL     1      -6.053  19.558  68.379  1.00  0.00    -0.228 N  
HETATM   25  O   UNL     1      -6.532  21.347  67.041  1.00  0.00    -0.468 OA 
ENDBRANCH  14  15
ENDBRANCH  13  14
ENDBRANCH   4  13
BRANCH   6  26
HETATM   26  N   UNL     1      -9.384   9.681  64.740  1.00  0.00    -0.355 N  
HETATM   27  O   UNL     1      -7.691   8.365  63.975  1.00  0.00    -0.122 OA 
HETATM   28  C   UNL     1      -8.573   8.537  64.814  1.00  0.00    -0.078 C  
HETATM   29  H   UNL     1      -9.183  10.255  63.922  1.00  0.00     0.000 HD 
BRANCH  28  30
HETATM   30  C   UNL     1      -8.857   7.405  65.765  1.00  0.00    -0.075 C  
BRANCH  30  31
HETATM   31  C   UNL     1      -8.085   6.158  65.831  1.00  0.00    -0.121 A  
HETATM   32  H2  UNL     1      -5.743   3.112  67.714  1.00  0.00     0.000 HD 
HETATM   33  C   UNL     1      -8.509   5.009  65.183  1.00  0.00    -0.143 A  
HETATM   34  H1  UNL     1      -5.375   4.719  68.344  1.00  0.00     0.000 HD 
HETATM   35  N   UNL     1      -7.092   5.925  66.796  1.00  0.00    -0.068 NA 
HETATM   36  N   UNL     1      -5.899   4.121  67.705  1.00  0.00    -0.022 NA 
HETATM   37  S   UNL     1      -7.673   3.639  65.774  1.00  0.00    -0.086 SA 
HETATM   38  C   UNL     1      -6.790   4.647  66.851  1.00  0.00    -0.055 A  
ENDBRANCH  30  31
BRANCH  30  39
HETATM   39  N   UNL     1      -9.940   7.322  66.463  1.00  0.00    -0.416 NA 
HETATM   40  H   UNL     1     -10.797   7.737  66.098  1.00  0.00     0.000 HD 
BRANCH  39  41
HETATM   41  O   UNL     1      -9.974   6.682  67.703  1.00  0.00    -0.121 OA 
HETATM   42  C   UNL     1     -11.151   6.610  68.483  1.00  0.00    -0.206 C  
ENDBRANCH  39  41
ENDBRANCH  30  39
ENDBRANCH  28  30
ENDBRANCH   6  26
TORSDOF 8
ENDMDL
MODEL      302
REMARK 921   NORMALIZED FREE ENERGY PREDICTED BY IDOCK:   -4.33 KCAL/MOL
REMARK 922        TOTAL FREE ENERGY PREDICTED BY IDOCK:   -7.61 KCAL/MOL
REMARK 923 INTER-LIGAND FREE ENERGY PREDICTED BY IDOCK:   -6.37 KCAL/MOL
REMARK 924 INTRA-LIGAND FREE ENERGY PREDICTED BY IDOCK:   -1.24 KCAL/MOL
REMARK 927      BINDING AFFINITY PREDICTED BY RF-SCORE:    0.00 PKD
ROOT
HETATM    1  C   UNL     1      -9.950  15.850  67.520  1.00  0.00    -0.238 C  
HETATM    2  S   UNL     1      -9.132  14.663  66.490  1.00  0.00    -0.197 SA 
HETATM    3  C   UNL     1      -9.626  13.046  67.193  1.00  0.00    -0.230 C  
HETATM    4  C   UNL     1     -10.600  13.006  68.337  1.00  0.00    -0.264 C  
HETATM    5  CA  UNL     1     -11.132  14.117  68.933  1.00  0.00    -0.263 C  
HETATM    6  CA  UNL     1      -9.405  17.012  68.456  1.00  0.00    -0.265 C  
HETATM    7  C   UNL     1     -10.605  16.549  69.339  1.00  0.00    -0.329 C  
HETATM    8  N   UNL     1     -10.710  15.387  68.643  1.00  0.00    -0.238 N  
HETATM    9  C   UNL     1     -12.220  13.942  69.960  1.00  0.00    -0.344 C  
HETATM   10  O   UNL     1     -11.048  16.925  70.398  1.00  0.00    -0.078 OA 
HETATM   11  O   UNL     1     -12.212  14.762  71.030  1.00  0.00    -0.288 OA 
HETATM   12  OXT UNL     1     -13.100  13.104  69.838  1.00  0.00     0.516 OA 
ENDROOT
BRANCH   4  13
HETATM   13  C   UNL     1     -10.932  11.587  68.889  1.00  0.00    -0.229 C  
BRANCH  13  14
HETATM   14  S   UNL     1     -10.029  10.111  68.269  1.00  0.00    -0.153 SA 
BRANCH  14  15
HETATM   15  C   UNL     1      -9.357   9.289  69.697  1.00  0.00    -0.179 C  
HETATM   16  N   UNL     1      -8.387   9.910  70.273  1.00  0.00    -0.302 N  
HETATM   17  H   UNL     1      -8.116  10.853  69.996  1.00  0.00     0.000 HD 
HETATM   18  C   UNL     1     -10.777   7.205  69.315  1.00  0.00    -0.215 C  
HETATM   19  C   UNL     1      -7.732   9.237  71.284  1.00  0.00     0.073 C  
HETATM   20  N   UNL     1      -9.819   8.016  70.044  1.00  0.00    -0.184 NA 
HETATM   21  C   UNL     1      -8.371   8.039  71.984  1.00  0.00    -0.139 C  
HETATM   22  O   UNL     1      -6.569   9.476  71.611  1.00  0.00    -0.299 OA 
HETATM   23  H   UNL     1      -9.497   6.403  71.380  1.00  0.00     0.000 HD 
HETATM   24  N   UNL     1      -9.250   7.371  71.172  1.00  0.00    -0.154 N  
HETATM   25  O   UNL     1      -8.092   7.682  73.118  1.00  0.00    -0.105 OA 
ENDBRANCH  14  15
ENDBRANCH  13  14
ENDBRANCH   4  13
BRANCH   6  26
HETATM   26  N   UNL     1      -8.136  17.222  69.295  1.00  0.00     0.012 N  
HETATM   27  O   UNL     1      -5.955  17.362  69.934  1.00  0.00    -0.248 OA 
HETATM   28  C   UNL     1      -6.760  17.221  69.015  1.00  0.00    -0.238 C  
HETATM   29  H   UNL     1      -8.339  17.403  70.278  1.00  0.00     0.000 HD 
BRANCH  28  30
HETATM   30  C   UNL     1      -6.221  17.250  67.611  1.00  0.00    -0.150 C  
BRANCH  30  31
HETATM   31  C   UNL     1      -6.023  18.471  66.818  1.00  0.00    -0.154 A  
HETATM   32  H2  UNL     1      -7.117  21.552  64.058  1.00  0.00     0.000 HD 
HETATM   33  C   UNL     1      -5.397  19.586  67.350  1.00  0.00    -0.162 A  
HETATM   34  H1  UNL     1      -7.772  19.981  63.594  1.00  0.00     0.000 HD 
HETATM   35  N   UNL     1      -6.730  18.733  65.633  1.00  0.00    -0.334 NA 
HETATM   36  N   UNL     1      -7.218  20.552  64.233  1.00  0.00     0.164 NA 
HETATM   37  S   UNL     1      -5.687  20.962  66.377  1.00  0.00    -0.239 SA 
HETATM   38  C   UNL     1      -6.621  20.000  65.300  1.00  0.00    -0.294 A  
ENDBRANCH  30  31
BRANCH  30  39
HETATM   39  N   UNL     1      -6.089  16.193  66.881  1.00  0.00    -0.306 NA 
HETATM   40  H   UNL     1      -6.613  16.125  66.008  1.00  0.00     0.000 HD 
BRANCH  39  41
HETATM   41  O   UNL     1      -5.251  15.140  67.249  1.00  0.00    -0.320 OA 
HETATM   42  C   UNL     1      -5.754  13.881  67.654  1.00  0.00     0.003 C  
ENDBRANCH  39  41
ENDBRANCH  30  39
ENDBRANCH  28  30
ENDBRANCH   6  26
TORSDOF 8
ENDMDL
MODEL      303
REMARK 921   NORMALIZED FREE ENERGY PREDICTED BY IDOCK:   -4.30 KCAL/MOL
REMARK 922        TOTAL FREE ENERGY PREDICTED BY IDOCK:   -7.57 KCAL/MOL
REMARK 923 INTER-LIGAND FREE ENERGY PREDICTED BY IDOCK:   -6.10 KCAL/MOL
REMARK 924 INTRA-LIGAND FREE ENERGY PREDICTED BY IDOCK:   -1.46 KCAL/MOL
REMARK 927      BINDING AFFINITY PREDICTED BY RF-SCORE:    0.00 PKD
ROOT
HETATM    1  C   UNL     1     -11.123   7.800  68.161  1.00  0.00     0.327 C  
HETATM    2  S   UNL     1     -10.686   6.371  67.209  1.00  0.00    -0.394 SA 
HETATM    3  C   UNL     1     -10.264   5.109  68.468  1.00  0.00    -0.112 C  
HETATM    4  C   UNL     1     -10.428   5.437  69.925  1.00  0.00    -0.378 C  
HETATM    5  CA  UNL     1     -10.845   6.651  70.398  1.00  0.00    -0.266 C  
HETATM    6  CA  UNL     1     -10.510   9.263  68.239  1.00  0.00    -0.215 C  
HETATM    7  C   UNL     1     -10.877   9.088  69.746  1.00  0.00    -0.205 C  
HETATM    8  N   UNL     1     -11.010   7.744  69.589  1.00  0.00    -0.179 N  
HETATM    9  C   UNL     1     -11.125   6.803  71.870  1.00  0.00    -0.247 C  
HETATM   10  O   UNL     1     -10.775   9.803  70.713  1.00  0.00    -0.303 OA 
HETATM   11  O   UNL     1     -10.778   7.964  72.459  1.00  0.00    -0.273 OA 
HETATM   12  OXT UNL     1     -11.665   5.923  72.522  1.00  0.00    -0.303 OA 
ENDROOT
BRANCH   4  13
HETATM   13  C   UNL     1     -10.011   4.311  70.919  1.00  0.00    -0.155 C  
BRANCH  13  14
HETATM   14  S   UNL     1      -8.285   4.210  71.540  1.00  0.00    -0.088 SA 
BRANCH  14  15
HETATM   15  C   UNL     1      -7.223   4.388  70.123  1.00  0.00    -0.046 C  
HETATM   16  N   UNL     1      -7.037   3.308  69.447  1.00  0.00    -0.041 N  
HETATM   17  H   UNL     1      -7.557   2.454  69.648  1.00  0.00     0.000 HD 
HETATM   18  C   UNL     1      -6.622   6.792  70.724  1.00  0.00    -0.053 C  
HETATM   19  C   UNL     1      -6.098   3.361  68.437  1.00  0.00    -0.031 C  
HETATM   20  N   UNL     1      -6.585   5.608  69.885  1.00  0.00    -0.044 NA 
HETATM   21  C   UNL     1      -5.633   4.695  67.855  1.00  0.00    -0.017 C  
HETATM   22  O   UNL     1      -5.498   2.370  68.019  1.00  0.00    -0.016 OA 
HETATM   23  H   UNL     1      -5.169   6.564  68.631  1.00  0.00     0.000 HD 
HETATM   24  N   UNL     1      -5.724   5.718  68.763  1.00  0.00    -0.011 N  
HETATM   25  O   UNL     1      -5.181   4.828  66.729  1.00  0.00    -0.008 OA 
ENDBRANCH  14  15
ENDBRANCH  13  14
ENDBRANCH   4  13
BRANCH   6  26
HETATM   26  N   UNL     1      -9.106   9.860  68.068  1.00  0.00    -0.121 N  
HETATM   27  O   UNL     1      -7.375  11.181  67.399  1.00  0.00    -0.097 OA 
HETATM   28  C   UNL     1      -8.590  10.991  67.414  1.00  0.00    -0.132 C  
HETATM   29  H   UNL     1      -8.384   9.311  68.534  1.00  0.00     0.000 HD 
BRANCH  28  30
HETATM   30  C   UNL     1      -9.471  12.094  66.892  1.00  0.00    -0.210 C  
BRANCH  30  31
HETATM   31  C   UNL     1     -10.162  13.078  67.735  1.00  0.00    -0.228 A  
HETATM   32  H2  UNL     1     -12.442  14.421  71.097  1.00  0.00     0.000 HD 
HETATM   33  C   UNL     1      -9.616  14.326  67.989  1.00  0.00    -0.223 A  
HETATM   34  H1  UNL     1     -12.961  12.832  70.534  1.00  0.00     0.000 HD 
HETATM   35  N   UNL     1     -11.211  12.735  68.604  1.00  0.00    -0.263 NA 
HETATM   36  N   UNL     1     -12.352  13.645  70.442  1.00  0.00    -0.351 NA 
HETATM   37  S   UNL     1     -10.405  15.072  69.310  1.00  0.00    -0.237 SA 
HETATM   38  C   UNL     1     -11.433  13.702  69.466  1.00  0.00    -0.263 A  
ENDBRANCH  30  31
BRANCH  30  39
HETATM   39  N   UNL     1      -9.886  12.151  65.671  1.00  0.00    -0.246 NA 
HETATM   40  H   UNL     1      -9.577  11.439  65.010  1.00  0.00     0.000 HD 
BRANCH  39  41
HETATM   41  O   UNL     1     -10.745  13.157  65.228  1.00  0.00    -0.289 OA 
HETATM   42  C   UNL     1     -11.709  12.935  64.216  1.00  0.00    -0.386 C  
ENDBRANCH  39  41
ENDBRANCH  30  39
ENDBRANCH  28  30
ENDBRANCH   6  26
TORSDOF 8
ENDMDL
MODEL      304
REMARK 921   NORMALIZED FREE ENERGY PREDICTED BY IDOCK:   -4.28 KCAL/MOL
REMARK 922        TOTAL FREE ENERGY PREDICTED BY IDOCK:   -7.55 KCAL/MOL
REMARK 923 INTER-LIGAND FREE ENERGY PREDICTED BY IDOCK:   -6.76 KCAL/MOL
REMARK 924 INTRA-LIGAND FREE ENERGY PREDICTED BY IDOCK:   -0.79 KCAL/MOL
REMARK 927      BINDING AFFINITY PREDICTED BY RF-SCORE:    0.00 PKD
ROOT
HETATM    1  C   UNL     1      -8.927  12.018  67.179  1.00  0.00    -0.185 C  
HETATM    2  S   UNL     1      -9.767  11.640  65.666  1.00  0.00    -0.235 SA 
HETATM    3  C   UNL     1      -8.736  10.335  64.898  1.00  0.00    -0.185 C  
HETATM    4  C   UNL     1      -7.541   9.807  65.640  1.00  0.00    -0.109 C  
HETATM    5  CA  UNL     1      -7.132  10.264  66.863  1.00  0.00    -0.092 C  
HETATM    6  CA  UNL     1      -8.269  13.354  67.734  1.00  0.00    -0.172 C  
HETATM    7  C   UNL     1      -7.233  12.334  68.301  1.00  0.00    -0.101 C  
HETATM    8  N   UNL     1      -7.686  11.361  67.467  1.00  0.00    -0.119 N  
HETATM    9  C   UNL     1      -6.017   9.543  67.575  1.00  0.00    -0.052 C  
HETATM   10  O   UNL     1      -6.237  12.451  68.974  1.00  0.00    -0.070 OA 
HETATM   11  O   UNL     1      -5.127  10.285  68.262  1.00  0.00    -0.036 OA 
HETATM   12  OXT UNL     1      -5.917   8.326  67.559  1.00  0.00    -0.045 OA 
ENDROOT
BRANCH   4  13
HETATM   13  C   UNL     1      -6.708   8.724  64.890  1.00  0.00    -0.069 C  
BRANCH  13  14
HETATM   14  S   UNL     1      -7.410   7.053  64.588  1.00  0.00    -0.097 SA 
BRANCH  14  15
HETATM   15  C   UNL     1      -8.464   6.686  65.975  1.00  0.00    -0.142 C  
HETATM   16  N   UNL     1      -9.537   7.393  66.042  1.00  0.00    -0.413 N  
HETATM   17  H   UNL     1      -9.809   8.025  65.289  1.00  0.00     0.000 HD 
HETATM   18  C   UNL     1      -6.760   5.088  66.999  1.00  0.00    -0.055 C  
HETATM   19  C   UNL     1     -10.302   7.255  67.182  1.00  0.00    -0.297 C  
HETATM   20  N   UNL     1      -8.042   5.767  66.941  1.00  0.00    -0.102 NA 
HETATM   21  C   UNL     1     -10.150   6.042  68.099  1.00  0.00    -0.160 C  
HETATM   22  O   UNL     1     -11.063   8.131  67.595  1.00  0.00     0.028 OA 
HETATM   23  H   UNL     1      -8.554   4.925  68.816  1.00  0.00     0.000 HD 
HETATM   24  N   UNL     1      -8.887   5.510  68.050  1.00  0.00    -0.106 N  
HETATM   25  O   UNL     1     -11.031   5.626  68.832  1.00  0.00    -0.235 OA 
ENDBRANCH  14  15
ENDBRANCH  13  14
ENDBRANCH   4  13
BRANCH   6  26
HETATM   26  N   UNL     1      -7.575  14.565  67.096  1.00  0.00    -0.316 N  
HETATM   27  O   UNL     1      -7.205  16.522  65.991  1.00  0.00     0.050 OA 
HETATM   28  C   UNL     1      -8.023  15.742  66.474  1.00  0.00    -0.137 C  
HETATM   29  H   UNL     1      -6.558  14.501  67.132  1.00  0.00     0.000 HD 
BRANCH  28  30
HETATM   30  C   UNL     1      -9.457  16.195  66.542  1.00  0.00    -0.264 C  
BRANCH  30  31
HETATM   31  C   UNL     1      -9.891  17.532  66.968  1.00  0.00    -0.295 A  
HETATM   32  H2  UNL     1     -10.150  20.896  69.599  1.00  0.00     0.000 HD 
HETATM   33  C   UNL     1      -9.915  18.601  66.087  1.00  0.00    -0.330 A  
HETATM   34  H1  UNL     1     -10.133  19.366  70.476  1.00  0.00     0.000 HD 
HETATM   35  N   UNL     1      -9.973  17.913  68.317  1.00  0.00    -0.338 NA 
HETATM   36  N   UNL     1     -10.119  19.876  69.593  1.00  0.00    -0.113 NA 
HETATM   37  S   UNL     1     -10.038  20.080  66.936  1.00  0.00    -0.472 SA 
HETATM   38  C   UNL     1     -10.062  19.219  68.425  1.00  0.00    -0.431 A  
ENDBRANCH  30  31
BRANCH  30  39
HETATM   39  N   UNL     1     -10.460  15.387  66.446  1.00  0.00    -0.295 NA 
HETATM   40  H   UNL     1     -11.086  15.279  67.244  1.00  0.00     0.000 HD 
BRANCH  39  41
HETATM   41  O   UNL     1     -10.714  14.657  65.285  1.00  0.00    -0.329 OA 
HETATM   42  C   UNL     1     -12.017  14.515  64.753  1.00  0.00    -0.442 C  
ENDBRANCH  39  41
ENDBRANCH  30  39
ENDBRANCH  28  30
ENDBRANCH   6  26
TORSDOF 8
ENDMDL
MODEL      305
REMARK 921   NORMALIZED FREE ENERGY PREDICTED BY IDOCK:   -4.25 KCAL/MOL
REMARK 922        TOTAL FREE ENERGY PREDICTED BY IDOCK:   -7.50 KCAL/MOL
REMARK 923 INTER-LIGAND FREE ENERGY PREDICTED BY IDOCK:   -5.73 KCAL/MOL
REMARK 924 INTRA-LIGAND FREE ENERGY PREDICTED BY IDOCK:   -1.77 KCAL/MOL
REMARK 927      BINDING AFFINITY PREDICTED BY RF-SCORE:    0.00 PKD
ROOT
HETATM    1  C   UNL     1     -10.156   7.678  69.022  1.00  0.00    -0.198 C  
HETATM    2  S   UNL     1     -10.973   6.529  67.948  1.00  0.00    -0.258 SA 
HETATM    3  C   UNL     1      -9.865   5.071  67.930  1.00  0.00    -0.151 C  
HETATM    4  C   UNL     1      -8.639   5.065  68.798  1.00  0.00    -0.090 C  
HETATM    5  CA  UNL     1      -8.257   6.109  69.596  1.00  0.00    -0.116 C  
HETATM    6  CA  UNL     1      -9.580   9.140  68.787  1.00  0.00    -0.159 C  
HETATM    7  C   UNL     1      -8.483   8.615  69.765  1.00  0.00    -0.129 C  
HETATM    8  N   UNL     1      -8.876   7.329  69.566  1.00  0.00    -0.137 N  
HETATM    9  C   UNL     1      -7.099   5.917  70.541  1.00  0.00    -0.071 C  
HETATM   10  O   UNL     1      -7.495   9.114  70.247  1.00  0.00    -0.073 OA 
HETATM   11  O   UNL     1      -6.255   6.952  70.718  1.00  0.00    -0.034 OA 
HETATM   12  OXT UNL     1      -6.925   4.874  71.152  1.00  0.00    -0.047 OA 
ENDROOT
BRANCH   4  13
HETATM   13  C   UNL     1      -7.742   3.795  68.687  1.00  0.00    -0.056 C  
BRANCH  13  14
HETATM   14  S   UNL     1      -6.467   3.667  67.370  1.00  0.00    -0.038 SA 
BRANCH  14  15
HETATM   15  C   UNL     1      -6.858   4.915  66.161  1.00  0.00    -0.058 C  
HETATM   16  N   UNL     1      -6.543   6.115  66.501  1.00  0.00    -0.053 N  
HETATM   17  H   UNL     1      -6.003   6.308  67.345  1.00  0.00     0.000 HD 
HETATM   18  C   UNL     1      -8.091   3.253  64.670  1.00  0.00    -0.090 C  
HETATM   19  C   UNL     1      -6.970   7.129  65.668  1.00  0.00    -0.060 C  
HETATM   20  N   UNL     1      -7.556   4.561  65.003  1.00  0.00    -0.076 NA 
HETATM   21  C   UNL     1      -7.391   6.848  64.227  1.00  0.00    -0.085 C  
HETATM   22  O   UNL     1      -7.146   8.287  66.049  1.00  0.00    -0.067 OA 
HETATM   23  H   UNL     1      -8.475   5.360  63.269  1.00  0.00     0.000 HD 
HETATM   24  N   UNL     1      -7.878   5.576  64.067  1.00  0.00    -0.097 N  
HETATM   25  O   UNL     1      -7.352   7.675  63.330  1.00  0.00    -0.078 OA 
ENDBRANCH  14  15
ENDBRANCH  13  14
ENDBRANCH   4  13
BRANCH   6  26
HETATM   26  N   UNL     1      -8.962   9.882  67.594  1.00  0.00    -0.128 N  
HETATM   27  O   UNL     1      -8.677  11.278  65.817  1.00  0.00    -0.181 OA 
HETATM   28  C   UNL     1      -9.387  10.928  66.758  1.00  0.00    -0.165 C  
HETATM   29  H   UNL     1      -8.033   9.538  67.353  1.00  0.00     0.000 HD 
BRANCH  28  30
HETATM   30  C   UNL     1     -10.588  11.778  67.075  1.00  0.00    -0.232 C  
BRANCH  30  31
HETATM   31  C   UNL     1     -10.620  12.827  68.102  1.00  0.00    -0.229 A  
HETATM   32  H2  UNL     1      -9.544  16.554  69.909  1.00  0.00     0.000 HD 
HETATM   33  C   UNL     1     -11.808  13.230  68.690  1.00  0.00    -0.345 A  
HETATM   34  H1  UNL     1      -8.177  15.789  69.097  1.00  0.00     0.000 HD 
HETATM   35  N   UNL     1      -9.556  13.720  68.313  1.00  0.00    -0.216 NA 
HETATM   36  N   UNL     1      -9.159  15.776  69.373  1.00  0.00    -0.264 NA 
HETATM   37  S   UNL     1     -11.603  14.720  69.504  1.00  0.00    -0.323 SA 
HETATM   38  C   UNL     1      -9.948  14.743  69.039  1.00  0.00    -0.218 A  
ENDBRANCH  30  31
BRANCH  30  39
HETATM   39  N   UNL     1     -11.774  11.521  66.633  1.00  0.00    -0.445 NA 
HETATM   40  H   UNL     1     -12.390  10.927  67.187  1.00  0.00     0.000 HD 
BRANCH  39  41
HETATM   41  O   UNL     1     -12.238  12.033  65.421  1.00  0.00    -0.458 OA 
HETATM   42  C   UNL     1     -11.552  11.825  64.202  1.00  0.00    -0.307 C  
ENDBRANCH  39  41
ENDBRANCH  30  39
ENDBRANCH  28  30
ENDBRANCH   6  26
TORSDOF 8
ENDMDL
MODEL      306
REMARK 921   NORMALIZED FREE ENERGY PREDICTED BY IDOCK:   -4.22 KCAL/MOL
REMARK 922        TOTAL FREE ENERGY PREDICTED BY IDOCK:   -7.45 KCAL/MOL
REMARK 923 INTER-LIGAND FREE ENERGY PREDICTED BY IDOCK:   -6.18 KCAL/MOL
REMARK 924 INTRA-LIGAND FREE ENERGY PREDICTED BY IDOCK:   -1.27 KCAL/MOL
REMARK 927      BINDING AFFINITY PREDICTED BY RF-SCORE:    0.00 PKD
ROOT
HETATM    1  C   UNL     1     -10.669  16.789  65.902  1.00  0.00    -0.163 C  
HETATM    2  S   UNL     1     -10.837  15.198  65.141  1.00  0.00    -0.445 SA 
HETATM    3  C   UNL     1     -10.905  14.034  66.553  1.00  0.00    -0.300 C  
HETATM    4  C   UNL     1     -10.897  14.574  67.955  1.00  0.00    -0.260 C  
HETATM    5  CA  UNL     1     -10.804  15.902  68.267  1.00  0.00    -0.315 C  
HETATM    6  CA  UNL     1      -9.539  17.902  65.818  1.00  0.00     0.240 C  
HETATM    7  C   UNL     1      -9.911  18.065  67.325  1.00  0.00    -0.323 C  
HETATM    8  N   UNL     1     -10.554  16.867  67.328  1.00  0.00    -0.304 N  
HETATM    9  C   UNL     1     -10.970  16.327  69.702  1.00  0.00    -0.346 C  
HETATM   10  O   UNL     1      -9.519  18.798  68.201  1.00  0.00    -0.302 OA 
HETATM   11  O   UNL     1     -10.190  17.328  70.156  1.00  0.00     0.336 OA 
HETATM   12  OXT UNL     1     -11.792  15.809  70.442  1.00  0.00    -0.332 OA 
ENDROOT
BRANCH   4  13
HETATM   13  C   UNL     1     -10.922  13.503  69.088  1.00  0.00    -0.177 C  
BRANCH  13  14
HETATM   14  S   UNL     1     -11.909  11.966  68.896  1.00  0.00    -0.280 SA 
BRANCH  14  15
HETATM   15  C   UNL     1     -10.822  10.750  68.183  1.00  0.00    -0.236 C  
HETATM   16  N   UNL     1     -10.696  10.819  66.904  1.00  0.00    -0.262 N  
HETATM   17  H   UNL     1     -11.096  11.588  66.368  1.00  0.00     0.000 HD 
HETATM   18  C   UNL     1     -10.534   9.532  70.406  1.00  0.00    -0.278 C  
HETATM   19  C   UNL     1      -9.992   9.801  66.293  1.00  0.00    -0.262 C  
HETATM   20  N   UNL     1     -10.269   9.755  68.996  1.00  0.00    -0.193 NA 
HETATM   21  C   UNL     1      -9.049   8.900  67.088  1.00  0.00    -0.138 C  
HETATM   22  O   UNL     1     -10.153   9.481  65.116  1.00  0.00    -0.098 OA 
HETATM   23  H   UNL     1      -9.098   7.990  68.954  1.00  0.00     0.000 HD 
HETATM   24  N   UNL     1      -9.426   8.782  68.401  1.00  0.00    -0.140 N  
HETATM   25  O   UNL     1      -8.099   8.307  66.602  1.00  0.00    -0.099 OA 
ENDBRANCH  14  15
ENDBRANCH  13  14
ENDBRANCH   4  13
BRANCH   6  26
HETATM   26  N   UNL     1      -8.017  17.888  65.613  1.00  0.00     0.157 N  
HETATM   27  O   UNL     1      -5.775  17.809  66.002  1.00  0.00    -0.185 OA 
HETATM   28  C   UNL     1      -6.911  17.699  66.458  1.00  0.00    -0.241 C  
HETATM   29  H   UNL     1      -7.749  18.052  64.643  1.00  0.00     0.000 HD 
BRANCH  28  30
HETATM   30  C   UNL     1      -7.048  17.175  67.862  1.00  0.00    -0.162 C  
BRANCH  30  31
HETATM   31  C   UNL     1      -7.299  15.770  68.207  1.00  0.00    -0.119 A  
HETATM   32  H2  UNL     1      -7.440  11.548  67.522  1.00  0.00     0.000 HD 
HETATM   33  C   UNL     1      -6.945  15.253  69.443  1.00  0.00    -0.180 A  
HETATM   34  H1  UNL     1      -7.886  12.470  66.086  1.00  0.00     0.000 HD 
HETATM   35  N   UNL     1      -7.576  14.785  67.244  1.00  0.00    -0.198 NA 
HETATM   36  N   UNL     1      -7.601  12.446  67.065  1.00  0.00    -0.097 NA 
HETATM   37  S   UNL     1      -6.956  13.543  69.407  1.00  0.00     0.123 SA 
HETATM   38  C   UNL     1      -7.437  13.584  67.757  1.00  0.00    -0.166 A  
ENDBRANCH  30  31
BRANCH  30  39
HETATM   39  N   UNL     1      -7.182  17.940  68.894  1.00  0.00    -0.271 NA 
HETATM   40  H   UNL     1      -8.099  18.024  69.332  1.00  0.00     0.000 HD 
BRANCH  39  41
HETATM   41  O   UNL     1      -6.111  18.657  69.427  1.00  0.00    -0.245 OA 
HETATM   42  C   UNL     1      -6.180  19.290  70.690  1.00  0.00     0.075 C  
ENDBRANCH  39  41
ENDBRANCH  30  39
ENDBRANCH  28  30
ENDBRANCH   6  26
TORSDOF 8
ENDMDL
MODEL      307
REMARK 921   NORMALIZED FREE ENERGY PREDICTED BY IDOCK:   -4.15 KCAL/MOL
REMARK 922        TOTAL FREE ENERGY PREDICTED BY IDOCK:   -7.35 KCAL/MOL
REMARK 923 INTER-LIGAND FREE ENERGY PREDICTED BY IDOCK:   -5.65 KCAL/MOL
REMARK 924 INTRA-LIGAND FREE ENERGY PREDICTED BY IDOCK:   -1.69 KCAL/MOL
REMARK 927      BINDING AFFINITY PREDICTED BY RF-SCORE:    0.00 PKD
ROOT
HETATM    1  C   UNL     1     -10.500   8.705  69.483  1.00  0.00    -0.220 C  
HETATM    2  S   UNL     1     -10.654   8.045  67.845  1.00  0.00    -0.090 SA 
HETATM    3  C   UNL     1     -10.317   6.257  68.052  1.00  0.00    -0.192 C  
HETATM    4  C   UNL     1     -10.083   5.705  69.429  1.00  0.00    -0.290 C  
HETATM    5  CA  UNL     1     -10.065   6.462  70.569  1.00  0.00    -0.186 C  
HETATM    6  CA  UNL     1      -9.528   9.793  70.112  1.00  0.00    -0.229 C  
HETATM    7  C   UNL     1      -9.605   8.822  71.331  1.00  0.00    -0.267 C  
HETATM    8  N   UNL     1     -10.109   7.830  70.549  1.00  0.00    -0.192 N  
HETATM    9  C   UNL     1      -9.983   5.768  71.903  1.00  0.00    -0.177 C  
HETATM   10  O   UNL     1      -9.123   8.840  72.437  1.00  0.00    -0.366 OA 
HETATM   11  O   UNL     1      -9.234   6.343  72.865  1.00  0.00    -0.138 OA 
HETATM   12  OXT UNL     1     -10.583   4.730  72.134  1.00  0.00    -0.198 OA 
ENDROOT
BRANCH   4  13
HETATM   13  C   UNL     1      -9.771   4.179  69.498  1.00  0.00    -0.183 C  
BRANCH  13  14
HETATM   14  S   UNL     1      -8.061   3.564  69.227  1.00  0.00    -0.052 SA 
BRANCH  14  15
HETATM   15  C   UNL     1      -7.635   3.972  67.547  1.00  0.00    -0.068 C  
HETATM   16  N   UNL     1      -7.905   3.057  66.683  1.00  0.00    -0.076 N  
HETATM   17  H   UNL     1      -8.431   2.221  66.936  1.00  0.00     0.000 HD 
HETATM   18  C   UNL     1      -6.473   6.134  68.241  1.00  0.00    -0.049 C  
HETATM   19  C   UNL     1      -7.448   3.263  65.398  1.00  0.00    -0.076 C  
HETATM   20  N   UNL     1      -6.959   5.165  67.275  1.00  0.00    -0.064 NA 
HETATM   21  C   UNL     1      -7.048   4.654  64.910  1.00  0.00    -0.062 C  
HETATM   22  O   UNL     1      -7.228   2.347  64.604  1.00  0.00    -0.052 OA 
HETATM   23  H   UNL     1      -6.025   6.267  65.725  1.00  0.00     0.000 HD 
HETATM   24  N   UNL     1      -6.608   5.456  65.932  1.00  0.00    -0.044 N  
HETATM   25  O   UNL     1      -7.064   4.999  63.740  1.00  0.00    -0.047 OA 
ENDBRANCH  14  15
ENDBRANCH  13  14
ENDBRANCH   4  13
BRANCH   6  26
HETATM   26  N   UNL     1      -8.086  10.243  69.841  1.00  0.00    -0.342 N  
HETATM   27  O   UNL     1      -6.269  11.290  68.952  1.00  0.00    -0.048 OA 
HETATM   28  C   UNL     1      -7.494  11.197  68.996  1.00  0.00    -0.124 C  
HETATM   29  H   UNL     1      -7.402   9.735  70.402  1.00  0.00     0.000 HD 
BRANCH  28  30
HETATM   30  C   UNL     1      -8.296  12.250  68.280  1.00  0.00    -0.174 C  
BRANCH  30  31
HETATM   31  C   UNL     1      -9.080  12.016  67.061  1.00  0.00    -0.191 A  
HETATM   32  H2  UNL     1     -10.216   9.954  63.487  1.00  0.00     0.000 HD 
HETATM   33  C   UNL     1     -10.455  12.189  67.038  1.00  0.00    -0.220 A  
HETATM   34  H1  UNL     1      -8.472   9.915  63.751  1.00  0.00     0.000 HD 
HETATM   35  N   UNL     1      -8.586  11.289  65.965  1.00  0.00    -0.162 NA 
HETATM   36  N   UNL     1      -9.403  10.213  64.045  1.00  0.00    -0.272 NA 
HETATM   37  S   UNL     1     -11.133  11.447  65.655  1.00  0.00    -0.069 SA 
HETATM   38  C   UNL     1      -9.566  10.945  65.158  1.00  0.00    -0.243 A  
ENDBRANCH  30  31
BRANCH  30  39
HETATM   39  N   UNL     1      -8.198  13.512  68.537  1.00  0.00    -0.253 NA 
HETATM   40  H   UNL     1      -8.928  13.963  69.088  1.00  0.00     0.000 HD 
BRANCH  39  41
HETATM   41  O   UNL     1      -7.123  14.277  68.084  1.00  0.00    -0.099 OA 
HETATM   42  C   UNL     1      -7.208  15.680  67.928  1.00  0.00    -0.137 C  
ENDBRANCH  39  41
ENDBRANCH  30  39
ENDBRANCH  28  30
ENDBRANCH   6  26
TORSDOF 8
ENDMDL
MODEL      308
REMARK 921   NORMALIZED FREE ENERGY PREDICTED BY IDOCK:   -4.12 KCAL/MOL
REMARK 922        TOTAL FREE ENERGY PREDICTED BY IDOCK:   -7.30 KCAL/MOL
REMARK 923 INTER-LIGAND FREE ENERGY PREDICTED BY IDOCK:   -7.39 KCAL/MOL
REMARK 924 INTRA-LIGAND FREE ENERGY PREDICTED BY IDOCK:    0.09 KCAL/MOL
REMARK 927      BINDING AFFINITY PREDICTED BY RF-SCORE:    0.00 PKD
ROOT
HETATM    1  C   UNL     1      -9.998  16.504  67.245  1.00  0.00    -0.264 C  
HETATM    2  S   UNL     1      -9.143  15.525  66.041  1.00  0.00    -0.182 SA 
HETATM    3  C   UNL     1      -9.308  13.810  66.663  1.00  0.00    -0.264 C  
HETATM    4  C   UNL     1     -10.122  13.549  67.898  1.00  0.00    -0.248 C  
HETATM    5  CA  UNL     1     -10.737  14.524  68.635  1.00  0.00    -0.253 C  
HETATM    6  CA  UNL     1      -9.521  17.676  68.207  1.00  0.00    -0.295 C  
HETATM    7  C   UNL     1     -10.527  16.979  69.175  1.00  0.00    -0.323 C  
HETATM    8  N   UNL     1     -10.542  15.859  68.403  1.00  0.00    -0.255 N  
HETATM    9  C   UNL     1     -11.657  14.118  69.756  1.00  0.00    -0.290 C  
HETATM   10  O   UNL     1     -10.891  17.214  70.302  1.00  0.00     0.081 OA 
HETATM   11  O   UNL     1     -11.642  14.861  70.880  1.00  0.00    -0.289 OA 
HETATM   12  OXT UNL     1     -12.413  13.164  69.663  1.00  0.00    -0.125 OA 
ENDROOT
BRANCH   4  13
HETATM   13  C   UNL     1     -10.174  12.063  68.367  1.00  0.00    -0.209 C  
BRANCH  13  14
HETATM   14  S   UNL     1     -11.016  10.791  67.343  1.00  0.00    -0.282 SA 
BRANCH  14  15
HETATM   15  C   UNL     1     -10.725   9.225  68.137  1.00  0.00    -0.151 C  
HETATM   16  N   UNL     1     -10.466   8.251  67.335  1.00  0.00    -0.328 N  
HETATM   17  H   UNL     1     -10.323   8.404  66.337  1.00  0.00     0.000 HD 
HETATM   18  C   UNL     1     -11.360  10.135  70.433  1.00  0.00    -0.326 C  
HETATM   19  C   UNL     1     -10.391   6.991  67.892  1.00  0.00    -0.199 C  
HETATM   20  N   UNL     1     -10.891   9.108  69.520  1.00  0.00    -0.215 NA 
HETATM   21  C   UNL     1     -10.181   6.797  69.392  1.00  0.00    -0.187 C  
HETATM   22  O   UNL     1     -10.596   5.958  67.254  1.00  0.00    -0.230 OA 
HETATM   23  H   UNL     1     -10.894   7.713  71.114  1.00  0.00     0.000 HD 
HETATM   24  N   UNL     1     -10.677   7.844  70.126  1.00  0.00    -0.242 N  
HETATM   25  O   UNL     1      -9.679   5.802  69.889  1.00  0.00    -0.153 OA 
ENDBRANCH  14  15
ENDBRANCH  13  14
ENDBRANCH   4  13
BRANCH   6  26
HETATM   26  N   UNL     1      -8.207  18.026  68.918  1.00  0.00    -0.205 N  
HETATM   27  O   UNL     1      -5.994  18.191  69.433  1.00  0.00    -0.222 OA 
HETATM   28  C   UNL     1      -6.846  17.852  68.614  1.00  0.00    -0.248 C  
HETATM   29  H   UNL     1      -8.354  18.491  69.813  1.00  0.00     0.000 HD 
BRANCH  28  30
HETATM   30  C   UNL     1      -6.370  17.446  67.245  1.00  0.00    -0.145 C  
BRANCH  30  31
HETATM   31  C   UNL     1      -5.996  18.385  66.180  1.00  0.00    -0.178 A  
HETATM   32  H2  UNL     1      -5.774  19.842  62.163  1.00  0.00     0.000 HD 
HETATM   33  C   UNL     1      -6.103  19.756  66.351  1.00  0.00    -0.164 A  
HETATM   34  H1  UNL     1      -5.630  18.086  62.242  1.00  0.00     0.000 HD 
HETATM   35  N   UNL     1      -5.845  17.996  64.839  1.00  0.00     0.060 NA 
HETATM   36  N   UNL     1      -5.739  18.984  62.713  1.00  0.00    -0.137 NA 
HETATM   37  S   UNL     1      -6.018  20.560  64.844  1.00  0.00    -0.271 SA 
HETATM   38  C   UNL     1      -5.834  19.047  64.050  1.00  0.00    -0.110 A  
ENDBRANCH  30  31
BRANCH  30  39
HETATM   39  N   UNL     1      -6.454  16.239  66.795  1.00  0.00    -0.282 NA 
HETATM   40  H   UNL     1      -6.626  16.092  65.801  1.00  0.00     0.000 HD 
BRANCH  39  41
HETATM   41  O   UNL     1      -6.318  15.128  67.628  1.00  0.00    -0.153 OA 
HETATM   42  C   UNL     1      -5.127  14.861  68.343  1.00  0.00    -0.107 C  
ENDBRANCH  39  41
ENDBRANCH  30  39
ENDBRANCH  28  30
ENDBRANCH   6  26
TORSDOF 8
ENDMDL
MODEL      309
REMARK 921   NORMALIZED FREE ENERGY PREDICTED BY IDOCK:   -4.04 KCAL/MOL
REMARK 922        TOTAL FREE ENERGY PREDICTED BY IDOCK:   -7.19 KCAL/MOL
REMARK 923 INTER-LIGAND FREE ENERGY PREDICTED BY IDOCK:   -5.50 KCAL/MOL
REMARK 924 INTRA-LIGAND FREE ENERGY PREDICTED BY IDOCK:   -1.69 KCAL/MOL
REMARK 927      BINDING AFFINITY PREDICTED BY RF-SCORE:    0.00 PKD
ROOT
HETATM    1  C   UNL     1      -7.869   5.825  67.331  1.00  0.00    -0.102 C  
HETATM    2  S   UNL     1      -6.127   5.903  67.646  1.00  0.00    -0.022 SA 
HETATM    3  C   UNL     1      -5.909   7.477  68.557  1.00  0.00    -0.027 C  
HETATM    4  C   UNL     1      -7.117   8.294  68.917  1.00  0.00    -0.066 C  
HETATM    5  CA  UNL     1      -8.400   7.962  68.576  1.00  0.00    -0.128 C  
HETATM    6  CA  UNL     1      -8.713   5.774  65.986  1.00  0.00    -0.146 C  
HETATM    7  C   UNL     1      -9.676   6.667  66.828  1.00  0.00    -0.169 C  
HETATM    8  N   UNL     1      -8.697   6.923  67.736  1.00  0.00    -0.121 N  
HETATM    9  C   UNL     1      -9.537   8.777  69.136  1.00  0.00    -0.162 C  
HETATM   10  O   UNL     1     -10.748   7.175  66.600  1.00  0.00    -0.245 OA 
HETATM   11  O   UNL     1     -10.590   9.021  68.332  1.00  0.00    -0.207 OA 
HETATM   12  OXT UNL     1      -9.533   9.194  70.283  1.00  0.00    -0.185 OA 
ENDROOT
BRANCH   4  13
HETATM   13  C   UNL     1      -6.827   9.633  69.661  1.00  0.00    -0.067 C  
BRANCH  13  14
HETATM   14  S   UNL     1      -5.156  10.395  69.590  1.00  0.00    -0.038 SA 
BRANCH  14  15
HETATM   15  C   UNL     1      -5.369  12.121  69.967  1.00  0.00    -0.098 C  
HETATM   16  N   UNL     1      -5.180  12.433  71.202  1.00  0.00    -0.150 N  
HETATM   17  H   UNL     1      -4.819  11.757  71.875  1.00  0.00     0.000 HD 
HETATM   18  C   UNL     1      -6.218  12.653  67.622  1.00  0.00    -0.148 C  
HETATM   19  C   UNL     1      -5.488  13.726  71.571  1.00  0.00    -0.222 C  
HETATM   20  N   UNL     1      -5.817  12.997  68.974  1.00  0.00    -0.075 NA 
HETATM   21  C   UNL     1      -5.615  14.839  70.532  1.00  0.00    -0.144 C  
HETATM   22  O   UNL     1      -5.786  14.048  72.721  1.00  0.00    -0.387 OA 
HETATM   23  H   UNL     1      -6.427  14.996  68.628  1.00  0.00     0.000 HD 
HETATM   24  N   UNL     1      -6.003  14.363  69.306  1.00  0.00    -0.094 N  
HETATM   25  O   UNL     1      -5.445  16.023  70.775  1.00  0.00    -0.147 OA 
ENDBRANCH  14  15
ENDBRANCH  13  14
ENDBRANCH   4  13
BRANCH   6  26
HETATM   26  N   UNL     1      -8.525   6.329  64.568  1.00  0.00    -0.340 N  
HETATM   27  O   UNL     1      -8.253   7.757  62.814  1.00  0.00    -0.140 OA 
HETATM   28  C   UNL     1      -8.301   7.609  64.034  1.00  0.00     0.126 C  
HETATM   29  H   UNL     1      -8.574   5.606  63.851  1.00  0.00     0.000 HD 
BRANCH  28  30
HETATM   30  C   UNL     1      -7.921   8.787  64.890  1.00  0.00    -0.135 C  
BRANCH  30  31
HETATM   31  C   UNL     1      -8.673  10.047  64.957  1.00  0.00    -0.173 A  
HETATM   32  H2  UNL     1     -11.743  12.822  63.868  1.00  0.00     0.000 HD 
HETATM   33  C   UNL     1      -8.981  10.644  66.168  1.00  0.00    -0.168 A  
HETATM   34  H1  UNL     1     -11.132  11.926  62.476  1.00  0.00     0.000 HD 
HETATM   35  N   UNL     1      -9.418  10.548  63.876  1.00  0.00    -0.267 NA 
HETATM   36  N   UNL     1     -11.106  12.127  63.476  1.00  0.00    -0.441 NA 
HETATM   37  S   UNL     1     -10.198  11.828  65.964  1.00  0.00    -0.240 SA 
HETATM   38  C   UNL     1     -10.242  11.488  64.279  1.00  0.00    -0.311 A  
ENDBRANCH  30  31
BRANCH  30  39
HETATM   39  N   UNL     1      -6.778   8.893  65.482  1.00  0.00    -0.071 NA 
HETATM   40  H   UNL     1      -6.716   8.686  66.479  1.00  0.00     0.000 HD 
BRANCH  39  41
HETATM   41  O   UNL     1      -5.625   9.282  64.800  1.00  0.00    -0.059 OA 
HETATM   42  C   UNL     1      -5.297  10.641  64.587  1.00  0.00    -0.129 C  
ENDBRANCH  39  41
ENDBRANCH  30  39
ENDBRANCH  28  30
ENDBRANCH   6  26
TORSDOF 8
ENDMDL
MODEL      310
REMARK 921   NORMALIZED FREE ENERGY PREDICTED BY IDOCK:   -4.01 KCAL/MOL
REMARK 922        TOTAL FREE ENERGY PREDICTED BY IDOCK:   -7.14 KCAL/MOL
REMARK 923 INTER-LIGAND FREE ENERGY PREDICTED BY IDOCK:   -5.31 KCAL/MOL
REMARK 924 INTRA-LIGAND FREE ENERGY PREDICTED BY IDOCK:   -1.83 KCAL/MOL
REMARK 927      BINDING AFFINITY PREDICTED BY RF-SCORE:    0.00 PKD
ROOT
HETATM    1  C   UNL     1      -6.232  15.479  67.509  1.00  0.00    -0.111 C  
HETATM    2  S   UNL     1      -7.073  16.358  66.221  1.00  0.00     0.607 SA 
HETATM    3  C   UNL     1      -7.458  17.985  66.969  1.00  0.00    -0.207 C  
HETATM    4  C   UNL     1      -6.971  18.292  68.357  1.00  0.00    -0.251 C  
HETATM    5  CA  UNL     1      -6.275  17.412  69.140  1.00  0.00    -0.228 C  
HETATM    6  CA  UNL     1      -6.565  14.130  68.279  1.00  0.00    -0.114 C  
HETATM    7  C   UNL     1      -5.957  14.932  69.472  1.00  0.00    -0.107 C  
HETATM    8  N   UNL     1      -6.084  16.102  68.791  1.00  0.00    -0.109 N  
HETATM    9  C   UNL     1      -5.704  17.895  70.447  1.00  0.00    -0.154 C  
HETATM   10  O   UNL     1      -5.754  14.666  70.632  1.00  0.00    -0.143 OA 
HETATM   11  O   UNL     1      -5.734  17.050  71.497  1.00  0.00     0.465 OA 
HETATM   12  OXT UNL     1      -5.206  19.004  70.569  1.00  0.00    -0.196 OA 
ENDROOT
BRANCH   4  13
HETATM   13  C   UNL     1      -7.379  19.687  68.919  1.00  0.00    -0.338 C  
BRANCH  13  14
HETATM   14  S   UNL     1      -9.144  20.085  69.237  1.00  0.00     0.522 SA 
BRANCH  14  15
HETATM   15  C   UNL     1     -10.062  18.587  68.949  1.00  0.00    -0.310 C  
HETATM   16  N   UNL     1     -10.071  17.760  69.935  1.00  0.00     0.299 N  
HETATM   17  H   UNL     1      -9.682  18.008  70.845  1.00  0.00     0.000 HD 
HETATM   18  C   UNL     1     -10.466  19.164  66.498  1.00  0.00    -0.448 C  
HETATM   19  C   UNL     1     -10.633  16.522  69.703  1.00  0.00    -0.302 C  
HETATM   20  N   UNL     1     -10.611  18.344  67.687  1.00  0.00    -0.420 NA 
HETATM   21  C   UNL     1     -11.576  16.287  68.524  1.00  0.00    -0.188 C  
HETATM   22  O   UNL     1     -10.336  15.514  70.345  1.00  0.00    -0.293 OA 
HETATM   23  H   UNL     1     -11.634  16.888  66.538  1.00  0.00     0.000 HD 
HETATM   24  N   UNL     1     -11.317  17.132  67.475  1.00  0.00     0.186 N  
HETATM   25  O   UNL     1     -12.426  15.412  68.493  1.00  0.00     0.122 OA 
ENDBRANCH  14  15
ENDBRANCH  13  14
ENDBRANCH   4  13
BRANCH   6  26
HETATM   26  N   UNL     1      -7.855  13.406  68.687  1.00  0.00    -0.254 N  
HETATM   27  O   UNL     1      -9.891  12.389  68.608  1.00  0.00    -0.178 OA 
HETATM   28  C   UNL     1      -8.946  12.867  67.984  1.00  0.00    -0.196 C  
HETATM   29  H   UNL     1      -7.940  13.290  69.696  1.00  0.00     0.000 HD 
BRANCH  28  30
HETATM   30  C   UNL     1      -8.928  12.671  66.493  1.00  0.00    -0.112 C  
BRANCH  30  31
HETATM   31  C   UNL     1      -9.990  13.114  65.580  1.00  0.00    -0.207 A  
HETATM   32  H2  UNL     1     -13.655  12.774  63.399  1.00  0.00     0.000 HD 
HETATM   33  C   UNL     1     -10.481  14.409  65.614  1.00  0.00    -0.334 A  
HETATM   34  H1  UNL     1     -12.788  11.240  63.486  1.00  0.00     0.000 HD 
HETATM   35  N   UNL     1     -10.810  12.220  64.872  1.00  0.00    -0.291 NA 
HETATM   36  N   UNL     1     -12.846  12.234  63.706  1.00  0.00    -0.777 NA 
HETATM   37  S   UNL     1     -11.963  14.514  64.768  1.00  0.00    -0.443 SA 
HETATM   38  C   UNL     1     -11.866  12.839  64.396  1.00  0.00    -0.384 A  
ENDBRANCH  30  31
BRANCH  30  39
HETATM   39  N   UNL     1      -8.087  11.897  65.890  1.00  0.00    -0.181 NA 
HETATM   40  H   UNL     1      -7.999  11.957  64.876  1.00  0.00     0.000 HD 
BRANCH  39  41
HETATM   41  O   UNL     1      -7.295  10.982  66.585  1.00  0.00    -0.131 OA 
HETATM   42  C   UNL     1      -6.057  10.520  66.080  1.00  0.00    -0.110 C  
ENDBRANCH  39  41
ENDBRANCH  30  39
ENDBRANCH  28  30
ENDBRANCH   6  26
TORSDOF 8
ENDMDL
MODEL      311
REMARK 921   NORMALIZED FREE ENERGY PREDICTED BY IDOCK:   -3.95 KCAL/MOL
REMARK 922        TOTAL FREE ENERGY PREDICTED BY IDOCK:   -7.06 KCAL/MOL
REMARK 923 INTER-LIGAND FREE ENERGY PREDICTED BY IDOCK:   -6.18 KCAL/MOL
REMARK 924 INTRA-LIGAND FREE ENERGY PREDICTED BY IDOCK:   -0.88 KCAL/MOL
REMARK 927      BINDING AFFINITY PREDICTED BY RF-SCORE:    0.00 PKD
ROOT
HETATM    1  C   UNL     1      -9.842   9.296  70.746  1.00  0.00    -0.283 C  
HETATM    2  S   UNL     1      -8.818  10.139  69.571  1.00  0.00    -0.152 SA 
HETATM    3  C   UNL     1      -9.830  11.572  69.045  1.00  0.00     0.007 C  
HETATM    4  C   UNL     1     -11.166  11.808  69.691  1.00  0.00    -0.225 C  
HETATM    5  CA  UNL     1     -11.714  10.993  70.643  1.00  0.00    -0.269 C  
HETATM    6  CA  UNL     1     -10.457   7.831  70.774  1.00  0.00    -0.210 C  
HETATM    7  C   UNL     1     -11.652   8.595  71.424  1.00  0.00    -0.293 C  
HETATM    8  N   UNL     1     -11.164   9.789  70.993  1.00  0.00    -0.358 N  
HETATM    9  C   UNL     1     -12.983  11.427  71.330  1.00  0.00    -0.365 C  
HETATM   10  O   UNL     1     -12.725   8.245  71.854  1.00  0.00    -0.317 OA 
HETATM   11  O   UNL     1     -13.899  10.480  71.614  1.00  0.00     0.005 OA 
HETATM   12  OXT UNL     1     -13.185  12.588  71.647  1.00  0.00    -0.399 OA 
ENDROOT
BRANCH   4  13
HETATM   13  C   UNL     1     -11.967  13.032  69.152  1.00  0.00    -0.271 C  
BRANCH  13  14
HETATM   14  S   UNL     1     -11.223  14.156  67.904  1.00  0.00    -0.293 SA 
BRANCH  14  15
HETATM   15  C   UNL     1     -11.230  13.274  66.358  1.00  0.00    -0.302 C  
HETATM   16  N   UNL     1     -10.320  12.370  66.246  1.00  0.00    -0.240 N  
HETATM   17  H   UNL     1      -9.727  12.108  67.033  1.00  0.00     0.000 HD 
HETATM   18  C   UNL     1     -13.022  14.791  65.363  1.00  0.00     0.268 C  
HETATM   19  C   UNL     1     -10.186  11.773  65.009  1.00  0.00    -0.272 C  
HETATM   20  N   UNL     1     -12.111  13.661  65.344  1.00  0.00    -0.378 NA 
HETATM   21  C   UNL     1     -11.305  11.837  63.971  1.00  0.00    -0.381 C  
HETATM   22  O   UNL     1      -9.139  11.255  64.619  1.00  0.00    -0.133 OA 
HETATM   23  H   UNL     1     -12.639  13.290  63.326  1.00  0.00     0.000 HD 
HETATM   24  N   UNL     1     -12.081  12.959  64.112  1.00  0.00    -0.405 N  
HETATM   25  O   UNL     1     -11.461  11.014  63.083  1.00  0.00     0.245 OA 
ENDBRANCH  14  15
ENDBRANCH  13  14
ENDBRANCH   4  13
BRANCH   6  26
HETATM   26  N   UNL     1     -10.937   6.838  69.707  1.00  0.00    -0.276 N  
HETATM   27  O   UNL     1     -11.006   5.115  68.218  1.00  0.00     0.205 OA 
HETATM   28  C   UNL     1     -10.393   5.683  69.120  1.00  0.00    -0.258 C  
HETATM   29  H   UNL     1     -11.861   7.068  69.341  1.00  0.00     0.000 HD 
BRANCH  28  30
HETATM   30  C   UNL     1      -9.178   4.991  69.677  1.00  0.00    -0.118 C  
BRANCH  30  31
HETATM   31  C   UNL     1      -7.854   4.991  69.043  1.00  0.00    -0.080 A  
HETATM   32  H2  UNL     1      -4.835   3.677  66.310  1.00  0.00     0.000 HD 
HETATM   33  C   UNL     1      -7.204   6.172  68.723  1.00  0.00    -0.084 A  
HETATM   34  H1  UNL     1      -5.814   2.339  66.912  1.00  0.00     0.000 HD 
HETATM   35  N   UNL     1      -7.311   3.860  68.410  1.00  0.00    -0.055 NA 
HETATM   36  N   UNL     1      -5.594   3.334  66.900  1.00  0.00    -0.021 NA 
HETATM   37  S   UNL     1      -5.919   5.876  67.634  1.00  0.00    -0.018 SA 
HETATM   38  C   UNL     1      -6.291   4.198  67.654  1.00  0.00    -0.037 A  
ENDBRANCH  30  31
BRANCH  30  39
HETATM   39  N   UNL     1      -9.230   4.142  70.650  1.00  0.00    -0.112 NA 
HETATM   40  H   UNL     1      -8.561   3.373  70.672  1.00  0.00     0.000 HD 
BRANCH  39  41
HETATM   41  O   UNL     1     -10.175   4.245  71.671  1.00  0.00    -0.170 OA 
HETATM   42  C   UNL     1     -10.316   3.255  72.671  1.00  0.00    -0.139 C  
ENDBRANCH  39  41
ENDBRANCH  30  39
ENDBRANCH  28  30
ENDBRANCH   6  26
TORSDOF 8
ENDMDL
MODEL      312
REMARK 921   NORMALIZED FREE ENERGY PREDICTED BY IDOCK:   -3.93 KCAL/MOL
REMARK 922        TOTAL FREE ENERGY PREDICTED BY IDOCK:   -7.02 KCAL/MOL
REMARK 923 INTER-LIGAND FREE ENERGY PREDICTED BY IDOCK:   -5.64 KCAL/MOL
REMARK 924 INTRA-LIGAND FREE ENERGY PREDICTED BY IDOCK:   -1.38 KCAL/MOL
REMARK 927      BINDING AFFINITY PREDICTED BY RF-SCORE:    0.00 PKD
ROOT
HETATM    1  C   UNL     1     -10.441   9.494  68.750  1.00  0.00    -0.219 C  
HETATM    2  S   UNL     1     -10.585   9.147  67.018  1.00  0.00    -0.123 SA 
HETATM    3  C   UNL     1     -10.105   7.386  66.876  1.00  0.00    -0.257 C  
HETATM    4  C   UNL     1      -9.792   6.603  68.120  1.00  0.00    -0.135 C  
HETATM    5  CA  UNL     1      -9.804   7.129  69.382  1.00  0.00    -0.161 C  
HETATM    6  CA  UNL     1      -9.542  10.520  69.565  1.00  0.00    -0.098 C  
HETATM    7  C   UNL     1      -9.511   9.331  70.577  1.00  0.00    -0.264 C  
HETATM    8  N   UNL     1      -9.956   8.469  69.625  1.00  0.00    -0.188 N  
HETATM    9  C   UNL     1      -9.633   6.204  70.559  1.00  0.00    -0.168 C  
HETATM   10  O   UNL     1      -9.003   9.179  71.661  1.00  0.00    -0.336 OA 
HETATM   11  O   UNL     1      -8.907   6.646  71.604  1.00  0.00    -0.134 OA 
HETATM   12  OXT UNL     1     -10.144   5.095  70.593  1.00  0.00    -0.207 OA 
ENDROOT
BRANCH   4  13
HETATM   13  C   UNL     1      -9.360   5.123  67.892  1.00  0.00    -0.120 C  
BRANCH  13  14
HETATM   14  S   UNL     1      -7.588   4.694  67.665  1.00  0.00    -0.078 SA 
BRANCH  14  15
HETATM   15  C   UNL     1      -7.057   5.504  66.171  1.00  0.00    -0.068 C  
HETATM   16  N   UNL     1      -7.089   4.769  65.115  1.00  0.00    -0.062 N  
HETATM   17  H   UNL     1      -7.503   3.836  65.126  1.00  0.00     0.000 HD 
HETATM   18  C   UNL     1      -6.324   7.600  67.426  1.00  0.00    -0.054 C  
HETATM   19  C   UNL     1      -6.538   5.302  63.969  1.00  0.00    -0.041 C  
HETATM   20  N   UNL     1      -6.550   6.806  66.232  1.00  0.00    -0.046 NA 
HETATM   21  C   UNL     1      -6.310   6.806  63.823  1.00  0.00    -0.042 C  
HETATM   22  O   UNL     1      -6.097   4.615  63.048  1.00  0.00    -0.017 OA 
HETATM   23  H   UNL     1      -5.642   8.326  65.069  1.00  0.00     0.000 HD 
HETATM   24  N   UNL     1      -6.110   7.421  65.032  1.00  0.00    -0.038 N  
HETATM   25  O   UNL     1      -6.257   7.388  62.752  1.00  0.00    -0.053 OA 
ENDBRANCH  14  15
ENDBRANCH  13  14
ENDBRANCH   4  13
BRANCH   6  26
HETATM   26  N   UNL     1      -8.147  11.130  69.371  1.00  0.00    -0.379 N  
HETATM   27  O   UNL     1      -6.436  12.451  68.653  1.00  0.00    -0.067 OA 
HETATM   28  C   UNL     1      -7.648  12.245  68.677  1.00  0.00    -0.089 C  
HETATM   29  H   UNL     1      -7.417  10.607  69.854  1.00  0.00     0.000 HD 
BRANCH  28  30
HETATM   30  C   UNL     1      -8.545  13.316  68.119  1.00  0.00    -0.177 C  
BRANCH  30  31
HETATM   31  C   UNL     1      -8.263  14.756  68.180  1.00  0.00    -0.142 A  
HETATM   32  H2  UNL     1      -7.781  18.708  66.612  1.00  0.00     0.000 HD 
HETATM   33  C   UNL     1      -8.752  15.548  69.206  1.00  0.00    -0.260 A  
HETATM   34  H1  UNL     1      -7.196  17.474  65.496  1.00  0.00     0.000 HD 
HETATM   35  N   UNL     1      -7.799  15.489  67.075  1.00  0.00    -0.223 NA 
HETATM   36  N   UNL     1      -7.611  17.726  66.392  1.00  0.00    -0.255 NA 
HETATM   37  S   UNL     1      -8.637  17.204  68.797  1.00  0.00    -0.192 SA 
HETATM   38  C   UNL     1      -7.936  16.779  67.285  1.00  0.00    -0.172 A  
ENDBRANCH  30  31
BRANCH  30  39
HETATM   39  N   UNL     1      -9.757  13.094  67.730  1.00  0.00    -0.211 NA 
HETATM   40  H   UNL     1     -10.519  13.201  68.400  1.00  0.00     0.000 HD 
BRANCH  39  41
HETATM   41  O   UNL     1     -10.056  12.712  66.422  1.00  0.00    -0.242 OA 
HETATM   42  C   UNL     1     -11.370  12.765  65.902  1.00  0.00    -0.324 C  
ENDBRANCH  39  41
ENDBRANCH  30  39
ENDBRANCH  28  30
ENDBRANCH   6  26
TORSDOF 8
ENDMDL
MODEL      313
REMARK 921   NORMALIZED FREE ENERGY PREDICTED BY IDOCK:   -3.92 KCAL/MOL
REMARK 922        TOTAL FREE ENERGY PREDICTED BY IDOCK:   -7.01 KCAL/MOL
REMARK 923 INTER-LIGAND FREE ENERGY PREDICTED BY IDOCK:   -4.91 KCAL/MOL
REMARK 924 INTRA-LIGAND FREE ENERGY PREDICTED BY IDOCK:   -2.10 KCAL/MOL
REMARK 927      BINDING AFFINITY PREDICTED BY RF-SCORE:    0.00 PKD
ROOT
HETATM    1  C   UNL     1      -9.297   9.936  69.439  1.00  0.00    -0.214 C  
HETATM    2  S   UNL     1     -10.598  10.065  68.243  1.00  0.00    -0.240 SA 
HETATM    3  C   UNL     1     -10.365   8.599  67.171  1.00  0.00    -0.299 C  
HETATM    4  C   UNL     1      -9.289   7.605  67.505  1.00  0.00    -0.159 C  
HETATM    5  CA  UNL     1      -8.423   7.733  68.556  1.00  0.00    -0.129 C  
HETATM    6  CA  UNL     1      -8.074  10.885  69.797  1.00  0.00     0.391 C  
HETATM    7  C   UNL     1      -7.366   9.509  70.002  1.00  0.00    -0.115 C  
HETATM    8  N   UNL     1      -8.352   8.865  69.323  1.00  0.00    -0.117 N  
HETATM    9  C   UNL     1      -7.497   6.590  68.881  1.00  0.00    -0.095 C  
HETATM   10  O   UNL     1      -6.252   9.193  70.343  1.00  0.00    -0.040 OA 
HETATM   11  O   UNL     1      -6.246   6.890  69.282  1.00  0.00    -0.028 OA 
HETATM   12  OXT UNL     1      -7.854   5.424  68.809  1.00  0.00    -0.085 OA 
ENDROOT
BRANCH   4  13
HETATM   13  C   UNL     1      -9.147   6.410  66.514  1.00  0.00    -0.151 C  
BRANCH  13  14
HETATM   14  S   UNL     1      -7.841   6.421  65.223  1.00  0.00    -0.114 SA 
BRANCH  14  15
HETATM   15  C   UNL     1      -7.103   8.040  65.260  1.00  0.00    -0.063 C  
HETATM   16  N   UNL     1      -6.220   8.212  66.181  1.00  0.00    -0.045 N  
HETATM   17  H   UNL     1      -5.892   7.438  66.758  1.00  0.00     0.000 HD 
HETATM   18  C   UNL     1      -8.690   8.936  63.475  1.00  0.00    -0.015 C  
HETATM   19  C   UNL     1      -5.739   9.494  66.349  1.00  0.00    -0.053 C  
HETATM   20  N   UNL     1      -7.574   9.035  64.398  1.00  0.00    -0.108 NA 
HETATM   21  C   UNL     1      -5.888  10.549  65.254  1.00  0.00    -0.133 C  
HETATM   22  O   UNL     1      -5.267   9.905  67.410  1.00  0.00    -0.035 OA 
HETATM   23  H   UNL     1      -7.384  11.091  63.920  1.00  0.00     0.000 HD 
HETATM   24  N   UNL     1      -6.987  10.325  64.464  1.00  0.00    -0.107 N  
HETATM   25  O   UNL     1      -5.149  11.511  65.126  1.00  0.00    -0.122 OA 
ENDBRANCH  14  15
ENDBRANCH  13  14
ENDBRANCH   4  13
BRANCH   6  26
HETATM   26  N   UNL     1      -7.191  11.860  69.006  1.00  0.00    -0.225 N  
HETATM   27  O   UNL     1      -6.480  13.401  67.487  1.00  0.00    -0.166 OA 
HETATM   28  C   UNL     1      -7.427  12.789  67.979  1.00  0.00    -0.122 C  
HETATM   29  H   UNL     1      -6.213  11.825  69.289  1.00  0.00     0.000 HD 
BRANCH  28  30
HETATM   30  C   UNL     1      -8.813  13.219  67.582  1.00  0.00    -0.200 C  
BRANCH  30  31
HETATM   31  C   UNL     1      -9.655  14.140  68.356  1.00  0.00    -0.225 A  
HETATM   32  H2  UNL     1     -10.942  17.941  69.840  1.00  0.00     0.000 HD 
HETATM   33  C   UNL     1     -11.032  13.991  68.409  1.00  0.00    -0.252 A  
HETATM   34  H1  UNL     1      -9.187  17.842  69.699  1.00  0.00     0.000 HD 
HETATM   35  N   UNL     1      -9.208  15.396  68.797  1.00  0.00    -0.194 NA 
HETATM   36  N   UNL     1     -10.105  17.409  69.603  1.00  0.00     0.047 NA 
HETATM   37  S   UNL     1     -11.769  15.414  69.006  1.00  0.00    -0.352 SA 
HETATM   38  C   UNL     1     -10.222  16.144  69.169  1.00  0.00    -0.255 A  
ENDBRANCH  30  31
BRANCH  30  39
HETATM   39  N   UNL     1      -9.487  12.652  66.638  1.00  0.00    -0.240 NA 
HETATM   40  H   UNL     1      -9.693  11.655  66.707  1.00  0.00     0.000 HD 
BRANCH  39  41
HETATM   41  O   UNL     1      -9.943  13.360  65.525  1.00  0.00    -0.275 OA 
HETATM   42  C   UNL     1     -10.596  12.726  64.442  1.00  0.00    -0.379 C  
ENDBRANCH  39  41
ENDBRANCH  30  39
ENDBRANCH  28  30
ENDBRANCH   6  26
TORSDOF 8
ENDMDL
MODEL      314
REMARK 921   NORMALIZED FREE ENERGY PREDICTED BY IDOCK:   -3.89 KCAL/MOL
REMARK 922        TOTAL FREE ENERGY PREDICTED BY IDOCK:   -6.97 KCAL/MOL
REMARK 923 INTER-LIGAND FREE ENERGY PREDICTED BY IDOCK:   -5.08 KCAL/MOL
REMARK 924 INTRA-LIGAND FREE ENERGY PREDICTED BY IDOCK:   -1.89 KCAL/MOL
REMARK 927      BINDING AFFINITY PREDICTED BY RF-SCORE:    0.00 PKD
ROOT
HETATM    1  C   UNL     1      -9.176   7.860  71.528  1.00  0.00    -0.136 C  
HETATM    2  S   UNL     1     -10.384   7.682  70.244  1.00  0.00    -0.218 SA 
HETATM    3  C   UNL     1     -10.515   5.871  70.004  1.00  0.00    -0.266 C  
HETATM    4  C   UNL     1      -9.731   4.950  70.896  1.00  0.00    -0.264 C  
HETATM    5  CA  UNL     1      -8.876   5.373  71.877  1.00  0.00    -0.135 C  
HETATM    6  CA  UNL     1      -7.757   8.575  71.573  1.00  0.00    -0.118 C  
HETATM    7  C   UNL     1      -7.425   7.346  72.477  1.00  0.00    -0.077 C  
HETATM    8  N   UNL     1      -8.532   6.688  72.043  1.00  0.00    -0.116 N  
HETATM    9  C   UNL     1      -8.276   4.353  72.808  1.00  0.00    -0.098 C  
HETATM   10  O   UNL     1      -6.433   6.998  73.070  1.00  0.00    -0.061 OA 
HETATM   11  O   UNL     1      -6.996   4.528  73.191  1.00  0.00    -0.063 OA 
HETATM   12  OXT UNL     1      -8.916   3.403  73.231  1.00  0.00    -0.092 OA 
ENDROOT
BRANCH   4  13
HETATM   13  C   UNL     1      -9.882   3.429  70.590  1.00  0.00     0.009 C  
BRANCH  13  14
HETATM   14  S   UNL     1      -8.674   2.573  69.503  1.00  0.00    -0.086 SA 
BRANCH  14  15
HETATM   15  C   UNL     1      -8.705   3.424  67.940  1.00  0.00    -0.109 C  
HETATM   16  N   UNL     1      -9.481   2.902  67.055  1.00  0.00    -0.394 N  
HETATM   17  H   UNL     1     -10.113   2.134  67.282  1.00  0.00     0.000 HD 
HETATM   18  C   UNL     1      -6.825   5.004  68.627  1.00  0.00    -0.052 C  
HETATM   19  C   UNL     1      -9.416   3.432  65.782  1.00  0.00    -0.116 C  
HETATM   20  N   UNL     1      -7.844   4.503  67.722  1.00  0.00    -0.085 NA 
HETATM   21  C   UNL     1      -8.816   4.813  65.527  1.00  0.00    -0.139 C  
HETATM   22  O   UNL     1      -9.726   2.800  64.771  1.00  0.00    -0.125 OA 
HETATM   23  H   UNL     1      -7.178   5.867  66.244  1.00  0.00     0.000 HD 
HETATM   24  N   UNL     1      -7.869   5.149  66.460  1.00  0.00    -0.102 N  
HETATM   25  O   UNL     1      -9.105   5.517  64.573  1.00  0.00     0.080 OA 
ENDBRANCH  14  15
ENDBRANCH  13  14
ENDBRANCH   4  13
BRANCH   6  26
HETATM   26  N   UNL     1      -6.644   8.838  70.549  1.00  0.00    -0.038 N  
HETATM   27  O   UNL     1      -5.497   9.615  68.742  1.00  0.00    -0.037 OA 
HETATM   28  C   UNL     1      -6.519   9.669  69.424  1.00  0.00    -0.044 C  
HETATM   29  H   UNL     1      -5.807   8.284  70.726  1.00  0.00     0.000 HD 
BRANCH  28  30
HETATM   30  C   UNL     1      -7.499  10.769  69.118  1.00  0.00    -0.123 C  
BRANCH  30  31
HETATM   31  C   UNL     1      -8.744  10.590  68.361  1.00  0.00    -0.137 A  
HETATM   32  H2  UNL     1     -12.755  11.494  67.175  1.00  0.00     0.000 HD 
HETATM   33  C   UNL     1      -8.733  10.288  67.008  1.00  0.00    -0.129 A  
HETATM   34  H1  UNL     1     -12.494  11.765  68.898  1.00  0.00     0.000 HD 
HETATM   35  N   UNL     1      -9.992  11.037  68.827  1.00  0.00    -0.202 NA 
HETATM   36  N   UNL     1     -12.139  11.472  67.988  1.00  0.00    -0.598 NA 
HETATM   37  S   UNL     1     -10.273  10.562  66.317  1.00  0.00    -0.219 SA 
HETATM   38  C   UNL     1     -10.871  11.056  67.851  1.00  0.00    -0.237 A  
ENDBRANCH  30  31
BRANCH  30  39
HETATM   39  N   UNL     1      -7.237  12.021  69.298  1.00  0.00    -0.320 NA 
HETATM   40  H   UNL     1      -6.985  12.344  70.232  1.00  0.00     0.000 HD 
BRANCH  39  41
HETATM   41  O   UNL     1      -7.290  12.944  68.254  1.00  0.00    -0.099 OA 
HETATM   42  C   UNL     1      -7.772  14.262  68.434  1.00  0.00    -0.134 C  
ENDBRANCH  39  41
ENDBRANCH  30  39
ENDBRANCH  28  30
ENDBRANCH   6  26
TORSDOF 8
ENDMDL
MODEL      315
REMARK 921   NORMALIZED FREE ENERGY PREDICTED BY IDOCK:   -3.88 KCAL/MOL
REMARK 922        TOTAL FREE ENERGY PREDICTED BY IDOCK:   -6.95 KCAL/MOL
REMARK 923 INTER-LIGAND FREE ENERGY PREDICTED BY IDOCK:   -6.20 KCAL/MOL
REMARK 924 INTRA-LIGAND FREE ENERGY PREDICTED BY IDOCK:   -0.76 KCAL/MOL
REMARK 927      BINDING AFFINITY PREDICTED BY RF-SCORE:    0.00 PKD
ROOT
HETATM    1  C   UNL     1     -10.710   7.960  70.414  1.00  0.00    -0.233 C  
HETATM    2  S   UNL     1      -9.717   8.954  71.493  1.00  0.00    -0.292 SA 
HETATM    3  C   UNL     1      -8.467   9.704  70.385  1.00  0.00    -0.146 C  
HETATM    4  C   UNL     1      -8.543   9.447  68.906  1.00  0.00    -0.131 C  
HETATM    5  CA  UNL     1      -9.479   8.645  68.313  1.00  0.00    -0.141 C  
HETATM    6  CA  UNL     1     -11.008   6.401  70.367  1.00  0.00    -0.308 C  
HETATM    7  C   UNL     1     -10.963   6.673  68.831  1.00  0.00    -0.267 C  
HETATM    8  N   UNL     1     -10.352   7.870  69.029  1.00  0.00    -0.213 N  
HETATM    9  C   UNL     1      -9.550   8.598  66.809  1.00  0.00    -0.207 C  
HETATM   10  O   UNL     1     -11.118   5.971  67.860  1.00  0.00    -0.301 OA 
HETATM   11  O   UNL     1      -9.814   7.411  66.229  1.00  0.00    -0.111 OA 
HETATM   12  OXT UNL     1      -9.396   9.595  66.120  1.00  0.00    -0.166 OA 
ENDROOT
BRANCH   4  13
HETATM   13  C   UNL     1      -7.415  10.100  68.051  1.00  0.00    -0.087 C  
BRANCH  13  14
HETATM   14  S   UNL     1      -7.522  11.867  67.560  1.00  0.00    -0.146 SA 
BRANCH  14  15
HETATM   15  C   UNL     1      -9.135  12.435  68.056  1.00  0.00    -0.195 C  
HETATM   16  N   UNL     1      -9.875  11.543  68.615  1.00  0.00    -0.262 N  
HETATM   17  H   UNL     1      -9.511  10.622  68.859  1.00  0.00     0.000 HD 
HETATM   18  C   UNL     1      -8.810  14.705  66.940  1.00  0.00    -0.242 C  
HETATM   19  C   UNL     1     -11.185  11.893  68.871  1.00  0.00    -0.254 C  
HETATM   20  N   UNL     1      -9.542  13.732  67.730  1.00  0.00    -0.213 NA 
HETATM   21  C   UNL     1     -11.623  13.356  68.910  1.00  0.00    -0.314 C  
HETATM   22  O   UNL     1     -12.097  11.071  68.971  1.00  0.00    -0.426 OA 
HETATM   23  H   UNL     1     -11.195  15.055  67.796  1.00  0.00     0.000 HD 
HETATM   24  N   UNL     1     -10.841  14.154  68.114  1.00  0.00    -0.243 N  
HETATM   25  O   UNL     1     -12.590  13.763  69.533  1.00  0.00    -0.192 OA 
ENDBRANCH  14  15
ENDBRANCH  13  14
ENDBRANCH   4  13
BRANCH   6  26
HETATM   26  N   UNL     1     -10.222   5.136  70.738  1.00  0.00    -0.237 N  
HETATM   27  O   UNL     1      -8.568   3.578  70.904  1.00  0.00    -0.068 OA 
HETATM   28  C   UNL     1      -8.901   4.702  70.535  1.00  0.00    -0.103 C  
HETATM   29  H   UNL     1     -10.786   4.456  71.247  1.00  0.00     0.000 HD 
BRANCH  28  30
HETATM   30  C   UNL     1      -7.813   5.626  70.057  1.00  0.00    -0.090 C  
BRANCH  30  31
HETATM   31  C   UNL     1      -7.245   5.616  68.703  1.00  0.00    -0.078 A  
HETATM   32  H2  UNL     1      -7.318   5.212  64.443  1.00  0.00     0.000 HD 
HETATM   33  C   UNL     1      -6.326   6.569  68.295  1.00  0.00    -0.037 A  
HETATM   34  H1  UNL     1      -8.400   4.068  65.238  1.00  0.00     0.000 HD 
HETATM   35  N   UNL     1      -7.817   4.895  67.641  1.00  0.00    -0.093 NA 
HETATM   36  N   UNL     1      -7.715   4.821  65.298  1.00  0.00    -0.085 NA 
HETATM   37  S   UNL     1      -6.175   6.571  66.592  1.00  0.00    -0.042 SA 
HETATM   38  C   UNL     1      -7.330   5.302  66.490  1.00  0.00    -0.086 A  
ENDBRANCH  30  31
BRANCH  30  39
HETATM   39  N   UNL     1      -7.114   6.368  70.851  1.00  0.00    -0.068 NA 
HETATM   40  H   UNL     1      -7.094   7.375  70.696  1.00  0.00     0.000 HD 
BRANCH  39  41
HETATM   41  O   UNL     1      -6.387   5.833  71.914  1.00  0.00    -0.042 OA 
HETATM   42  C   UNL     1      -6.797   5.981  73.260  1.00  0.00    -0.076 C  
ENDBRANCH  39  41
ENDBRANCH  30  39
ENDBRANCH  28  30
ENDBRANCH   6  26
TORSDOF 8
ENDMDL
MODEL      316
REMARK 921   NORMALIZED FREE ENERGY PREDICTED BY IDOCK:   -3.84 KCAL/MOL
REMARK 922        TOTAL FREE ENERGY PREDICTED BY IDOCK:   -6.90 KCAL/MOL
REMARK 923 INTER-LIGAND FREE ENERGY PREDICTED BY IDOCK:   -5.04 KCAL/MOL
REMARK 924 INTRA-LIGAND FREE ENERGY PREDICTED BY IDOCK:   -1.85 KCAL/MOL
REMARK 927      BINDING AFFINITY PREDICTED BY RF-SCORE:    0.00 PKD
ROOT
HETATM    1  C   UNL     1     -10.915   6.590  67.048  1.00  0.00    -0.396 C  
HETATM    2  S   UNL     1     -10.826   5.170  65.993  1.00  0.00     0.116 SA 
HETATM    3  C   UNL     1      -9.903   3.936  66.982  1.00  0.00    -0.057 C  
HETATM    4  C   UNL     1      -9.502   4.271  68.391  1.00  0.00    -0.215 C  
HETATM    5  CA  UNL     1      -9.749   5.473  68.996  1.00  0.00    -0.144 C  
HETATM    6  CA  UNL     1     -10.375   8.076  66.892  1.00  0.00    -0.338 C  
HETATM    7  C   UNL     1     -10.123   7.901  68.422  1.00  0.00    -0.194 C  
HETATM    8  N   UNL     1     -10.255   6.551  68.321  1.00  0.00    -0.158 N  
HETATM    9  C   UNL     1      -9.443   5.627  70.462  1.00  0.00    -0.163 C  
HETATM   10  O   UNL     1      -9.682   8.628  69.279  1.00  0.00    -0.168 OA 
HETATM   11  O   UNL     1      -8.939   6.806  70.879  1.00  0.00    -0.148 OA 
HETATM   12  OXT UNL     1      -9.655   4.734  71.268  1.00  0.00    -0.150 OA 
ENDROOT
BRANCH   4  13
HETATM   13  C   UNL     1      -8.690   3.171  69.139  1.00  0.00    -0.085 C  
BRANCH  13  14
HETATM   14  S   UNL     1      -6.854   3.166  69.081  1.00  0.00    -0.041 SA 
BRANCH  14  15
HETATM   15  C   UNL     1      -6.389   4.064  67.616  1.00  0.00    -0.037 C  
HETATM   16  N   UNL     1      -6.262   3.343  66.557  1.00  0.00    -0.028 N  
HETATM   17  H   UNL     1      -6.526   2.358  66.545  1.00  0.00     0.000 HD 
HETATM   18  C   UNL     1      -6.045   6.235  68.910  1.00  0.00    -0.025 C  
HETATM   19  C   UNL     1      -5.750   3.968  65.438  1.00  0.00    -0.022 C  
HETATM   20  N   UNL     1      -6.093   5.427  67.704  1.00  0.00    -0.025 NA 
HETATM   21  C   UNL     1      -5.751   5.490  65.309  1.00  0.00    -0.017 C  
HETATM   22  O   UNL     1      -5.167   3.366  64.536  1.00  0.00    -0.008 OA 
HETATM   23  H   UNL     1      -5.380   7.081  66.589  1.00  0.00     0.000 HD 
HETATM   24  N   UNL     1      -5.701   6.115  66.528  1.00  0.00    -0.016 N  
HETATM   25  O   UNL     1      -5.741   6.085  64.243  1.00  0.00    -0.020 OA 
ENDBRANCH  14  15
ENDBRANCH  13  14
ENDBRANCH   4  13
BRANCH   6  26
HETATM   26  N   UNL     1      -9.170   8.723  66.194  1.00  0.00    -0.200 N  
HETATM   27  O   UNL     1      -7.619  10.241  65.503  1.00  0.00    -0.140 OA 
HETATM   28  C   UNL     1      -8.563   9.989  66.249  1.00  0.00    -0.129 C  
HETATM   29  H   UNL     1      -8.705   8.091  65.543  1.00  0.00     0.000 HD 
BRANCH  28  30
HETATM   30  C   UNL     1      -8.890  10.995  67.320  1.00  0.00    -0.135 C  
BRANCH  30  31
HETATM   31  C   UNL     1     -10.159  11.729  67.416  1.00  0.00    -0.195 A  
HETATM   32  H2  UNL     1     -12.936  14.518  69.094  1.00  0.00     0.000 HD 
HETATM   33  C   UNL     1     -10.788  12.239  66.292  1.00  0.00    -0.278 A  
HETATM   34  H1  UNL     1     -12.001  13.683  70.335  1.00  0.00     0.000 HD 
HETATM   35  N   UNL     1     -10.641  12.263  68.622  1.00  0.00    -0.232 NA 
HETATM   36  N   UNL     1     -12.226  13.832  69.351  1.00  0.00    -0.320 NA 
HETATM   37  S   UNL     1     -11.978  13.384  66.735  1.00  0.00    -0.375 SA 
HETATM   38  C   UNL     1     -11.599  13.133  68.393  1.00  0.00    -0.337 A  
ENDBRANCH  30  31
BRANCH  30  39
HETATM   39  N   UNL     1      -8.008  11.480  68.129  1.00  0.00    -0.128 NA 
HETATM   40  H   UNL     1      -7.816  10.989  69.003  1.00  0.00     0.000 HD 
BRANCH  39  41
HETATM   41  O   UNL     1      -7.309  12.653  67.846  1.00  0.00    -0.092 OA 
HETATM   42  C   UNL     1      -5.907  12.671  67.661  1.00  0.00    -0.140 C  
ENDBRANCH  39  41
ENDBRANCH  30  39
ENDBRANCH  28  30
ENDBRANCH   6  26
TORSDOF 8
ENDMDL
MODEL      317
REMARK 921   NORMALIZED FREE ENERGY PREDICTED BY IDOCK:   -3.83 KCAL/MOL
REMARK 922        TOTAL FREE ENERGY PREDICTED BY IDOCK:   -6.88 KCAL/MOL
REMARK 923 INTER-LIGAND FREE ENERGY PREDICTED BY IDOCK:   -5.79 KCAL/MOL
REMARK 924 INTRA-LIGAND FREE ENERGY PREDICTED BY IDOCK:   -1.09 KCAL/MOL
REMARK 927      BINDING AFFINITY PREDICTED BY RF-SCORE:    0.00 PKD
ROOT
HETATM    1  C   UNL     1      -7.813  11.081  68.627  1.00  0.00    -0.136 C  
HETATM    2  S   UNL     1      -7.527   9.943  69.954  1.00  0.00    -0.167 SA 
HETATM    3  C   UNL     1      -8.311   8.388  69.385  1.00  0.00    -0.120 C  
HETATM    4  C   UNL     1      -8.914   8.327  68.010  1.00  0.00    -0.138 C  
HETATM    5  CA  UNL     1      -8.956   9.383  67.141  1.00  0.00    -0.130 C  
HETATM    6  CA  UNL     1      -8.595  12.462  68.549  1.00  0.00    -0.060 C  
HETATM    7  C   UNL     1      -8.972  11.905  67.141  1.00  0.00    -0.178 C  
HETATM    8  N   UNL     1      -8.586  10.652  67.499  1.00  0.00    -0.122 N  
HETATM    9  C   UNL     1      -9.441   9.149  65.734  1.00  0.00    -0.254 C  
HETATM   10  O   UNL     1      -9.628  12.341  66.226  1.00  0.00    -0.235 OA 
HETATM   11  O   UNL     1     -10.192  10.109  65.161  1.00  0.00    -0.306 OA 
HETATM   12  OXT UNL     1      -9.157   8.139  65.108  1.00  0.00     0.064 OA 
ENDROOT
BRANCH   4  13
HETATM   13  C   UNL     1      -9.587   6.973  67.631  1.00  0.00    -0.131 C  
BRANCH  13  14
HETATM   14  S   UNL     1      -8.721   5.383  67.942  1.00  0.00    -0.105 SA 
BRANCH  14  15
HETATM   15  C   UNL     1      -8.606   5.204  69.709  1.00  0.00    -0.096 C  
HETATM   16  N   UNL     1      -9.736   5.119  70.319  1.00  0.00    -0.186 N  
HETATM   17  H   UNL     1     -10.615   5.039  69.809  1.00  0.00     0.000 HD 
HETATM   18  C   UNL     1      -6.079   5.553  69.700  1.00  0.00    -0.021 C  
HETATM   19  C   UNL     1      -9.701   5.140  71.699  1.00  0.00    -0.163 C  
HETATM   20  N   UNL     1      -7.356   5.273  70.332  1.00  0.00    -0.062 NA 
HETATM   21  C   UNL     1      -8.415   4.834  72.465  1.00  0.00    -0.116 C  
HETATM   22  O   UNL     1     -10.649   5.507  72.393  1.00  0.00    -0.205 OA 
HETATM   23  H   UNL     1      -6.407   5.304  72.226  1.00  0.00     0.000 HD 
HETATM   24  N   UNL     1      -7.293   5.153  71.744  1.00  0.00    -0.082 N  
HETATM   25  O   UNL     1      -8.385   4.408  73.608  1.00  0.00    -0.096 OA 
ENDBRANCH  14  15
ENDBRANCH  13  14
ENDBRANCH   4  13
BRANCH   6  26
HETATM   26  N   UNL     1      -9.816  13.057  69.265  1.00  0.00    -0.100 N  
HETATM   27  O   UNL     1     -11.452  14.491  69.937  1.00  0.00    -0.258 OA 
HETATM   28  C   UNL     1     -10.525  14.265  69.162  1.00  0.00    -0.159 C  
HETATM   29  H   UNL     1     -10.199  12.434  69.976  1.00  0.00     0.000 HD 
BRANCH  28  30
HETATM   30  C   UNL     1     -10.329  15.222  68.017  1.00  0.00    -0.244 C  
BRANCH  30  31
HETATM   31  C   UNL     1     -11.148  15.243  66.798  1.00  0.00    -0.278 A  
HETATM   32  H2  UNL     1     -11.936  15.847  62.636  1.00  0.00     0.000 HD 
HETATM   33  C   UNL     1     -12.049  14.230  66.513  1.00  0.00    -0.429 A  
HETATM   34  H1  UNL     1     -10.815  17.047  63.282  1.00  0.00     0.000 HD 
HETATM   35  N   UNL     1     -10.852  16.060  65.695  1.00  0.00    -0.303 NA 
HETATM   36  N   UNL     1     -11.413  16.233  63.423  1.00  0.00     0.243 NA 
HETATM   37  S   UNL     1     -12.527  14.293  64.872  1.00  0.00    -0.321 SA 
HETATM   38  C   UNL     1     -11.519  15.665  64.634  1.00  0.00    -0.303 A  
ENDBRANCH  30  31
BRANCH  30  39
HETATM   39  N   UNL     1      -9.285  15.972  67.891  1.00  0.00    -0.195 NA 
HETATM   40  H   UNL     1      -9.268  16.676  67.155  1.00  0.00     0.000 HD 
BRANCH  39  41
HETATM   41  O   UNL     1      -8.179  15.847  68.733  1.00  0.00    -0.169 OA 
HETATM   42  C   UNL     1      -7.194  16.856  68.840  1.00  0.00    -0.231 C  
ENDBRANCH  39  41
ENDBRANCH  30  39
ENDBRANCH  28  30
ENDBRANCH   6  26
TORSDOF 8
ENDMDL
MODEL      318
REMARK 921   NORMALIZED FREE ENERGY PREDICTED BY IDOCK:   -3.82 KCAL/MOL
REMARK 922        TOTAL FREE ENERGY PREDICTED BY IDOCK:   -6.87 KCAL/MOL
REMARK 923 INTER-LIGAND FREE ENERGY PREDICTED BY IDOCK:   -5.66 KCAL/MOL
REMARK 924 INTRA-LIGAND FREE ENERGY PREDICTED BY IDOCK:   -1.21 KCAL/MOL
REMARK 927      BINDING AFFINITY PREDICTED BY RF-SCORE:    0.00 PKD
ROOT
HETATM    1  C   UNL     1      -8.877   9.855  66.578  1.00  0.00    -0.139 C  
HETATM    2  S   UNL     1     -10.204  10.899  66.041  1.00  0.00    -0.253 SA 
HETATM    3  C   UNL     1      -9.645  12.589  66.473  1.00  0.00    -0.242 C  
HETATM    4  C   UNL     1      -8.276  12.785  67.061  1.00  0.00    -0.099 C  
HETATM    5  CA  UNL     1      -7.405  11.767  67.339  1.00  0.00    -0.136 C  
HETATM    6  CA  UNL     1      -8.805   8.677  67.641  1.00  0.00    -0.136 C  
HETATM    7  C   UNL     1      -7.401   9.308  67.901  1.00  0.00    -0.080 C  
HETATM    8  N   UNL     1      -7.757  10.446  67.250  1.00  0.00    -0.098 N  
HETATM    9  C   UNL     1      -6.003  12.105  67.774  1.00  0.00    -0.090 C  
HETATM   10  O   UNL     1      -6.491   9.028  68.644  1.00  0.00    -0.052 OA 
HETATM   11  O   UNL     1      -5.436  11.333  68.721  1.00  0.00    -0.044 OA 
HETATM   12  OXT UNL     1      -5.377  13.032  67.283  1.00  0.00    -0.331 OA 
ENDROOT
BRANCH   4  13
HETATM   13  C   UNL     1      -7.905  14.254  67.428  1.00  0.00    -0.187 C  
BRANCH  13  14
HETATM   14  S   UNL     1      -8.486  14.995  69.005  1.00  0.00    -0.188 SA 
BRANCH  14  15
HETATM   15  C   UNL     1      -7.568  16.505  69.225  1.00  0.00    -0.156 C  
HETATM   16  N   UNL     1      -8.171  17.569  68.822  1.00  0.00    -0.257 N  
HETATM   17  H   UNL     1      -9.143  17.549  68.515  1.00  0.00     0.000 HD 
HETATM   18  C   UNL     1      -5.477  15.262  69.992  1.00  0.00    -0.121 C  
HETATM   19  C   UNL     1      -7.437  18.737  68.825  1.00  0.00    -0.306 C  
HETATM   20  N   UNL     1      -6.255  16.453  69.702  1.00  0.00    -0.203 NA 
HETATM   21  C   UNL     1      -6.162  18.872  69.656  1.00  0.00    -0.257 C  
HETATM   22  O   UNL     1      -7.687  19.694  68.091  1.00  0.00    -0.295 OA 
HETATM   23  H   UNL     1      -4.546  17.644  70.090  1.00  0.00     0.000 HD 
HETATM   24  N   UNL     1      -5.536  17.667  69.845  1.00  0.00    -0.216 N  
HETATM   25  O   UNL     1      -5.720  19.935  70.060  1.00  0.00    -0.239 OA 
ENDBRANCH  14  15
ENDBRANCH  13  14
ENDBRANCH   4  13
BRANCH   6  26
HETATM   26  N   UNL     1      -9.531   8.358  68.956  1.00  0.00    -0.150 N  
HETATM   27  O   UNL     1     -10.323   7.260  70.787  1.00  0.00    -0.202 OA 
HETATM   28  C   UNL     1      -9.579   7.243  69.808  1.00  0.00    -0.162 C  
HETATM   29  H   UNL     1     -10.109   9.131  69.285  1.00  0.00     0.000 HD 
BRANCH  28  30
HETATM   30  C   UNL     1      -8.614   6.094  69.690  1.00  0.00    -0.128 C  
BRANCH  30  31
HETATM   31  C   UNL     1      -8.474   5.241  68.502  1.00  0.00    -0.092 A  
HETATM   32  H2  UNL     1      -6.355   3.023  65.519  1.00  0.00     0.000 HD 
HETATM   33  C   UNL     1      -9.308   4.156  68.286  1.00  0.00    -0.158 A  
HETATM   34  H1  UNL     1      -5.512   4.506  65.969  1.00  0.00     0.000 HD 
HETATM   35  N   UNL     1      -7.319   5.231  67.703  1.00  0.00    -0.075 NA 
HETATM   36  N   UNL     1      -6.312   3.881  66.070  1.00  0.00    -0.032 NA 
HETATM   37  S   UNL     1      -8.655   3.123  67.091  1.00  0.00    -0.122 SA 
HETATM   38  C   UNL     1      -7.307   4.176  66.920  1.00  0.00    -0.073 A  
ENDBRANCH  30  31
BRANCH  30  39
HETATM   39  N   UNL     1      -7.972   5.601  70.697  1.00  0.00    -0.102 NA 
HETATM   40  H   UNL     1      -6.961   5.722  70.745  1.00  0.00     0.000 HD 
BRANCH  39  41
HETATM   41  O   UNL     1      -8.620   4.909  71.720  1.00  0.00    -0.123 OA 
HETATM   42  C   UNL     1      -8.443   5.238  73.084  1.00  0.00    -0.114 C  
ENDBRANCH  39  41
ENDBRANCH  30  39
ENDBRANCH  28  30
ENDBRANCH   6  26
TORSDOF 8
ENDMDL
MODEL      319
REMARK 921   NORMALIZED FREE ENERGY PREDICTED BY IDOCK:   -3.79 KCAL/MOL
REMARK 922        TOTAL FREE ENERGY PREDICTED BY IDOCK:   -6.83 KCAL/MOL
REMARK 923 INTER-LIGAND FREE ENERGY PREDICTED BY IDOCK:   -6.24 KCAL/MOL
REMARK 924 INTRA-LIGAND FREE ENERGY PREDICTED BY IDOCK:   -0.59 KCAL/MOL
REMARK 927      BINDING AFFINITY PREDICTED BY RF-SCORE:    0.00 PKD
ROOT
HETATM    1  C   UNL     1      -7.817  10.633  65.392  1.00  0.00    -0.070 C  
HETATM    2  S   UNL     1      -7.560  10.262  67.106  1.00  0.00    -0.092 SA 
HETATM    3  C   UNL     1      -7.564   8.432  67.172  1.00  0.00    -0.093 C  
HETATM    4  C   UNL     1      -7.683   7.649  65.896  1.00  0.00    -0.098 C  
HETATM    5  CA  UNL     1      -7.828   8.212  64.658  1.00  0.00    -0.136 C  
HETATM    6  CA  UNL     1      -8.964  11.422  64.628  1.00  0.00     0.163 C  
HETATM    7  C   UNL     1      -8.701  10.310  63.564  1.00  0.00    -0.206 C  
HETATM    8  N   UNL     1      -8.033   9.553  64.474  1.00  0.00    -0.125 N  
HETATM    9  C   UNL     1      -7.772   7.325  63.442  1.00  0.00    -0.124 C  
HETATM   10  O   UNL     1      -9.170  10.077  62.476  1.00  0.00    -0.271 OA 
HETATM   11  O   UNL     1      -8.604   7.605  62.420  1.00  0.00    -0.047 OA 
HETATM   12  OXT UNL     1      -6.992   6.389  63.356  1.00  0.00    -0.043 OA 
ENDROOT
BRANCH   4  13
HETATM   13  C   UNL     1      -7.712   6.099  66.058  1.00  0.00    -0.092 C  
BRANCH  13  14
HETATM   14  S   UNL     1      -7.384   5.327  67.693  1.00  0.00    -0.076 SA 
BRANCH  14  15
HETATM   15  C   UNL     1      -8.857   5.556  68.668  1.00  0.00    -0.107 C  
HETATM   16  N   UNL     1      -8.668   5.565  69.941  1.00  0.00    -0.122 N  
HETATM   17  H   UNL     1      -7.730   5.562  70.342  1.00  0.00     0.000 HD 
HETATM   18  C   UNL     1     -10.376   5.411  66.624  1.00  0.00    -0.275 C  
HETATM   19  C   UNL     1      -9.795   5.579  70.736  1.00  0.00    -0.188 C  
HETATM   20  N   UNL     1     -10.104   5.603  68.037  1.00  0.00    -0.158 NA 
HETATM   21  C   UNL     1     -11.153   6.004  70.181  1.00  0.00    -0.361 C  
HETATM   22  O   UNL     1      -9.812   5.154  71.892  1.00  0.00    -0.166 OA 
HETATM   23  H   UNL     1     -12.187   5.692  68.409  1.00  0.00     0.000 HD 
HETATM   24  N   UNL     1     -11.264   5.760  68.836  1.00  0.00    -0.078 N  
HETATM   25  O   UNL     1     -12.058   6.459  70.863  1.00  0.00    -0.300 OA 
ENDBRANCH  14  15
ENDBRANCH  13  14
ENDBRANCH   4  13
BRANCH   6  26
HETATM   26  N   UNL     1     -10.466  11.640  64.856  1.00  0.00    -0.274 N  
HETATM   27  O   UNL     1     -12.482  11.989  65.857  1.00  0.00    -0.337 OA 
HETATM   28  C   UNL     1     -11.259  11.934  65.977  1.00  0.00    -0.324 C  
HETATM   29  H   UNL     1     -11.012  11.550  63.999  1.00  0.00     0.000 HD 
BRANCH  28  30
HETATM   30  C   UNL     1     -10.670  12.378  67.289  1.00  0.00    -0.230 C  
BRANCH  30  31
HETATM   31  C   UNL     1     -10.928  11.731  68.581  1.00  0.00    -0.224 A  
HETATM   32  H2  UNL     1     -13.241   9.618  71.495  1.00  0.00     0.000 HD 
HETATM   33  C   UNL     1      -9.980  10.922  69.189  1.00  0.00    -0.161 A  
HETATM   34  H1  UNL     1     -14.217  10.765  70.576  1.00  0.00     0.000 HD 
HETATM   35  N   UNL     1     -12.217  11.587  69.119  1.00  0.00    -0.332 NA 
HETATM   36  N   UNL     1     -13.313  10.336  70.774  1.00  0.00    -0.251 NA 
HETATM   37  S   UNL     1     -10.693   9.983  70.427  1.00  0.00    -0.274 SA 
HETATM   38  C   UNL     1     -12.217  10.707  70.094  1.00  0.00    -0.320 A  
ENDBRANCH  30  31
BRANCH  30  39
HETATM   39  N   UNL     1     -10.058  13.505  67.445  1.00  0.00    -0.235 NA 
HETATM   40  H   UNL     1      -9.356  13.786  66.760  1.00  0.00     0.000 HD 
BRANCH  39  41
HETATM   41  O   UNL     1     -10.329  14.351  68.521  1.00  0.00    -0.235 OA 
HETATM   42  C   UNL     1      -9.312  14.822  69.384  1.00  0.00     0.026 C  
ENDBRANCH  39  41
ENDBRANCH  30  39
ENDBRANCH  28  30
ENDBRANCH   6  26
TORSDOF 8
ENDMDL
MODEL      320
REMARK 921   NORMALIZED FREE ENERGY PREDICTED BY IDOCK:   -3.76 KCAL/MOL
REMARK 922        TOTAL FREE ENERGY PREDICTED BY IDOCK:   -6.77 KCAL/MOL
REMARK 923 INTER-LIGAND FREE ENERGY PREDICTED BY IDOCK:   -5.57 KCAL/MOL
REMARK 924 INTRA-LIGAND FREE ENERGY PREDICTED BY IDOCK:   -1.21 KCAL/MOL
REMARK 927      BINDING AFFINITY PREDICTED BY RF-SCORE:    0.00 PKD
ROOT
HETATM    1  C   UNL     1      -7.932  11.018  68.291  1.00  0.00    -0.124 C  
HETATM    2  S   UNL     1      -6.600  10.026  68.908  1.00  0.00    -0.049 SA 
HETATM    3  C   UNL     1      -6.380   8.731  67.631  1.00  0.00    -0.057 C  
HETATM    4  C   UNL     1      -7.212   8.779  66.381  1.00  0.00    -0.084 C  
HETATM    5  CA  UNL     1      -8.173   9.720  66.133  1.00  0.00    -0.120 C  
HETATM    6  CA  UNL     1      -9.374  11.354  68.868  1.00  0.00    -0.032 C  
HETATM    7  C   UNL     1      -9.747  11.265  67.356  1.00  0.00    -0.173 C  
HETATM    8  N   UNL     1      -8.580  10.629  67.072  1.00  0.00    -0.128 N  
HETATM    9  C   UNL     1      -8.824   9.756  64.775  1.00  0.00    -0.207 C  
HETATM   10  O   UNL     1     -10.779  11.414  66.747  1.00  0.00    -0.247 OA 
HETATM   11  O   UNL     1     -10.140  10.036  64.716  1.00  0.00    -0.296 OA 
HETATM   12  OXT UNL     1      -8.194   9.560  63.747  1.00  0.00    -0.140 OA 
ENDROOT
BRANCH   4  13
HETATM   13  C   UNL     1      -6.977   7.614  65.372  1.00  0.00    -0.059 C  
BRANCH  13  14
HETATM   14  S   UNL     1      -6.707   5.900  65.974  1.00  0.00    -0.061 SA 
BRANCH  14  15
HETATM   15  C   UNL     1      -7.702   4.838  64.948  1.00  0.00    -0.078 C  
HETATM   16  N   UNL     1      -8.970   5.041  65.028  1.00  0.00    -0.199 N  
HETATM   17  H   UNL     1      -9.354   5.830  65.549  1.00  0.00     0.000 HD 
HETATM   18  C   UNL     1      -5.693   3.432  64.247  1.00  0.00    -0.014 C  
HETATM   19  C   UNL     1      -9.787   4.141  64.375  1.00  0.00    -0.152 C  
HETATM   20  N   UNL     1      -7.094   3.810  64.221  1.00  0.00    -0.053 NA 
HETATM   21  C   UNL     1      -9.245   3.234  63.271  1.00  0.00    -0.095 C  
HETATM   22  O   UNL     1     -10.954   3.927  64.702  1.00  0.00    -0.196 OA 
HETATM   23  H   UNL     1      -7.503   2.145  62.976  1.00  0.00     0.000 HD 
HETATM   24  N   UNL     1      -7.911   2.962  63.430  1.00  0.00    -0.071 N  
HETATM   25  O   UNL     1      -9.930   2.760  62.379  1.00  0.00    -0.091 OA 
ENDBRANCH  14  15
ENDBRANCH  13  14
ENDBRANCH   4  13
BRANCH   6  26
HETATM   26  N   UNL     1     -10.391  10.609  69.744  1.00  0.00    -0.425 N  
HETATM   27  O   UNL     1     -11.404   9.014  71.016  1.00  0.00    -0.263 OA 
HETATM   28  C   UNL     1     -10.387   9.384  70.432  1.00  0.00    -0.262 C  
HETATM   29  H   UNL     1     -11.268  11.118  69.850  1.00  0.00     0.000 HD 
BRANCH  28  30
HETATM   30  C   UNL     1      -9.130   8.587  70.654  1.00  0.00    -0.160 C  
BRANCH  30  31
HETATM   31  C   UNL     1      -8.950   7.185  70.255  1.00  0.00    -0.152 A  
HETATM   32  H2  UNL     1      -9.397   3.758  67.732  1.00  0.00     0.000 HD 
HETATM   33  C   UNL     1      -7.735   6.537  70.410  1.00  0.00    -0.098 A  
HETATM   34  H1  UNL     1     -10.844   4.766  67.746  1.00  0.00     0.000 HD 
HETATM   35  N   UNL     1      -9.838   6.517  69.396  1.00  0.00    -0.145 NA 
HETATM   36  N   UNL     1      -9.895   4.581  68.071  1.00  0.00    -0.127 NA 
HETATM   37  S   UNL     1      -7.697   5.098  69.487  1.00  0.00    -0.069 SA 
HETATM   38  C   UNL     1      -9.297   5.410  68.940  1.00  0.00    -0.127 A  
ENDBRANCH  30  31
BRANCH  30  39
HETATM   39  N   UNL     1      -8.165   8.983  71.415  1.00  0.00    -0.322 NA 
HETATM   40  H   UNL     1      -7.380   9.484  70.999  1.00  0.00     0.000 HD 
BRANCH  39  41
HETATM   41  O   UNL     1      -8.162   8.746  72.790  1.00  0.00    -0.407 OA 
HETATM   42  C   UNL     1      -9.139   7.939  73.419  1.00  0.00    -0.283 C  
ENDBRANCH  39  41
ENDBRANCH  30  39
ENDBRANCH  28  30
ENDBRANCH   6  26
TORSDOF 8
ENDMDL
MODEL      321
REMARK 921   NORMALIZED FREE ENERGY PREDICTED BY IDOCK:   -3.70 KCAL/MOL
REMARK 922        TOTAL FREE ENERGY PREDICTED BY IDOCK:   -6.69 KCAL/MOL
REMARK 923 INTER-LIGAND FREE ENERGY PREDICTED BY IDOCK:   -4.46 KCAL/MOL
REMARK 924 INTRA-LIGAND FREE ENERGY PREDICTED BY IDOCK:   -2.23 KCAL/MOL
REMARK 927      BINDING AFFINITY PREDICTED BY RF-SCORE:    0.00 PKD
ROOT
HETATM    1  C   UNL     1     -10.711   5.740  67.852  1.00  0.00    -0.213 C  
HETATM    2  S   UNL     1     -11.023   5.513  66.123  1.00  0.00     0.357 SA 
HETATM    3  C   UNL     1     -10.080   4.003  65.694  1.00  0.00    -0.116 C  
HETATM    4  C   UNL     1      -9.358   3.252  66.777  1.00  0.00    -0.171 C  
HETATM    5  CA  UNL     1      -9.320   3.640  68.088  1.00  0.00    -0.180 C  
HETATM    6  CA  UNL     1     -10.030   6.919  68.672  1.00  0.00    -0.149 C  
HETATM    7  C   UNL     1      -9.493   5.717  69.509  1.00  0.00    -0.136 C  
HETATM    8  N   UNL     1      -9.813   4.843  68.519  1.00  0.00    -0.154 N  
HETATM    9  C   UNL     1      -8.700   2.716  69.103  1.00  0.00    -0.084 C  
HETATM   10  O   UNL     1      -8.796   5.637  70.492  1.00  0.00    -0.134 OA 
HETATM   11  O   UNL     1      -7.976   3.269  70.096  1.00  0.00    -0.046 OA 
HETATM   12  OXT UNL     1      -8.853   1.506  69.059  1.00  0.00    -0.059 OA 
ENDROOT
BRANCH   4  13
HETATM   13  C   UNL     1      -8.555   2.001  66.307  1.00  0.00    -0.112 C  
BRANCH  13  14
HETATM   14  S   UNL     1      -6.805   2.163  65.773  1.00  0.00    -0.040 SA 
BRANCH  14  15
HETATM   15  C   UNL     1      -6.539   3.887  65.418  1.00  0.00    -0.040 C  
HETATM   16  N   UNL     1      -6.243   4.611  66.440  1.00  0.00    -0.031 N  
HETATM   17  H   UNL     1      -6.059   4.197  67.353  1.00  0.00     0.000 HD 
HETATM   18  C   UNL     1      -7.276   3.623  62.990  1.00  0.00    -0.049 C  
HETATM   19  C   UNL     1      -6.185   5.975  66.239  1.00  0.00    -0.037 C  
HETATM   20  N   UNL     1      -6.763   4.369  64.125  1.00  0.00    -0.043 NA 
HETATM   21  C   UNL     1      -6.037   6.566  64.838  1.00  0.00    -0.037 C  
HETATM   22  O   UNL     1      -6.358   6.798  67.139  1.00  0.00    -0.038 OA 
HETATM   23  H   UNL     1      -6.826   6.141  62.966  1.00  0.00     0.000 HD 
HETATM   24  N   UNL     1      -6.569   5.751  63.872  1.00  0.00    -0.036 N  
HETATM   25  O   UNL     1      -5.552   7.662  64.607  1.00  0.00    -0.033 OA 
ENDBRANCH  14  15
ENDBRANCH  13  14
ENDBRANCH   4  13
BRANCH   6  26
HETATM   26  N   UNL     1      -8.923   7.942  68.382  1.00  0.00    -0.133 N  
HETATM   27  O   UNL     1      -7.486   9.698  68.573  1.00  0.00    -0.078 OA 
HETATM   28  C   UNL     1      -8.335   8.989  69.110  1.00  0.00    -0.123 C  
HETATM   29  H   UNL     1      -8.525   7.838  67.449  1.00  0.00     0.000 HD 
BRANCH  28  30
HETATM   30  C   UNL     1      -8.554   9.167  70.588  1.00  0.00    -0.226 C  
BRANCH  30  31
HETATM   31  C   UNL     1      -9.871   9.241  71.234  1.00  0.00    -0.248 A  
HETATM   32  H2  UNL     1     -14.078   9.989  71.441  1.00  0.00     0.000 HD 
HETATM   33  C   UNL     1     -10.309   8.253  72.101  1.00  0.00    -0.300 A  
HETATM   34  H1  UNL     1     -13.248  11.148  70.402  1.00  0.00     0.000 HD 
HETATM   35  N   UNL     1     -10.896  10.087  70.780  1.00  0.00    -0.308 NA 
HETATM   36  N   UNL     1     -13.216  10.340  71.025  1.00  0.00    -0.375 NA 
HETATM   37  S   UNL     1     -11.996   8.376  72.352  1.00  0.00    -0.344 SA 
HETATM   38  C   UNL     1     -12.050   9.737  71.302  1.00  0.00    -0.382 A  
ENDBRANCH  30  31
BRANCH  30  39
HETATM   39  N   UNL     1      -7.612   9.496  71.409  1.00  0.00    -0.253 NA 
HETATM   40  H   UNL     1      -7.750  10.297  72.024  1.00  0.00     0.000 HD 
BRANCH  39  41
HETATM   41  O   UNL     1      -6.412   8.788  71.480  1.00  0.00    -0.063 OA 
HETATM   42  C   UNL     1      -5.154   9.422  71.349  1.00  0.00    -0.049 C  
ENDBRANCH  39  41
ENDBRANCH  30  39
ENDBRANCH  28  30
ENDBRANCH   6  26
TORSDOF 8
ENDMDL
MODEL      322
REMARK 921   NORMALIZED FREE ENERGY PREDICTED BY IDOCK:   -3.63 KCAL/MOL
REMARK 922        TOTAL FREE ENERGY PREDICTED BY IDOCK:   -6.59 KCAL/MOL
REMARK 923 INTER-LIGAND FREE ENERGY PREDICTED BY IDOCK:   -5.53 KCAL/MOL
REMARK 924 INTRA-LIGAND FREE ENERGY PREDICTED BY IDOCK:   -1.06 KCAL/MOL
REMARK 927      BINDING AFFINITY PREDICTED BY RF-SCORE:    0.00 PKD
ROOT
HETATM    1  C   UNL     1     -10.567  11.539  69.094  1.00  0.00    -0.136 C  
HETATM    2  S   UNL     1     -11.753  10.706  70.113  1.00  0.00    -0.359 SA 
HETATM    3  C   UNL     1     -10.846   9.250  70.754  1.00  0.00    -0.284 C  
HETATM    4  C   UNL     1      -9.392   9.079  70.415  1.00  0.00    -0.244 C  
HETATM    5  CA  UNL     1      -8.683   9.932  69.614  1.00  0.00    -0.204 C  
HETATM    6  CA  UNL     1     -10.546  11.894  67.546  1.00  0.00    -0.219 C  
HETATM    7  C   UNL     1      -9.030  11.570  67.728  1.00  0.00    -0.160 C  
HETATM    8  N   UNL     1      -9.273  10.950  68.913  1.00  0.00    -0.181 N  
HETATM    9  C   UNL     1      -7.195   9.743  69.485  1.00  0.00    -0.087 C  
HETATM   10  O   UNL     1      -8.083  11.585  66.979  1.00  0.00    -0.148 OA 
HETATM   11  O   UNL     1      -6.637   9.955  68.276  1.00  0.00    -0.055 OA 
HETATM   12  OXT UNL     1      -6.495   9.427  70.434  1.00  0.00    -0.054 OA 
ENDROOT
BRANCH   4  13
HETATM   13  C   UNL     1      -8.717   7.792  70.978  1.00  0.00    -0.136 C  
BRANCH  13  14
HETATM   14  S   UNL     1      -9.286   6.130  70.440  1.00  0.00    -0.161 SA 
BRANCH  14  15
HETATM   15  C   UNL     1      -9.176   6.106  68.664  1.00  0.00    -0.123 C  
HETATM   16  N   UNL     1      -9.219   7.263  68.103  1.00  0.00    -0.133 N  
HETATM   17  H   UNL     1      -9.195   8.124  68.649  1.00  0.00     0.000 HD 
HETATM   18  C   UNL     1      -9.297   3.560  68.571  1.00  0.00    -0.166 C  
HETATM   19  C   UNL     1      -9.297   7.284  66.725  1.00  0.00    -0.163 C  
HETATM   20  N   UNL     1      -9.160   4.882  67.988  1.00  0.00    -0.110 NA 
HETATM   21  C   UNL     1      -8.912   6.064  65.890  1.00  0.00    -0.133 C  
HETATM   22  O   UNL     1      -9.778   8.223  66.090  1.00  0.00    -0.207 OA 
HETATM   23  H   UNL     1      -9.190   4.014  66.056  1.00  0.00     0.000 HD 
HETATM   24  N   UNL     1      -9.097   4.889  66.571  1.00  0.00    -0.121 N  
HETATM   25  O   UNL     1      -8.536   6.122  64.730  1.00  0.00    -0.108 OA 
ENDBRANCH  14  15
ENDBRANCH  13  14
ENDBRANCH   4  13
BRANCH   6  26
HETATM   26  N   UNL     1     -11.112  11.241  66.277  1.00  0.00    -0.222 N  
HETATM   27  O   UNL     1     -11.775  10.891  64.127  1.00  0.00     0.561 OA 
HETATM   28  C   UNL     1     -11.189  11.618  64.926  1.00  0.00    -0.222 C  
HETATM   29  H   UNL     1     -11.526  10.326  66.455  1.00  0.00     0.000 HD 
BRANCH  28  30
HETATM   30  C   UNL     1     -10.418  12.784  64.368  1.00  0.00    -0.386 C  
BRANCH  30  31
HETATM   31  C   UNL     1     -10.509  14.161  64.869  1.00  0.00    -0.438 A  
HETATM   32  H2  UNL     1      -9.003  17.968  66.115  1.00  0.00     0.000 HD 
HETATM   33  C   UNL     1     -11.487  15.033  64.419  1.00  0.00    -0.233 A  
HETATM   34  H1  UNL     1      -7.942  16.643  66.596  1.00  0.00     0.000 HD 
HETATM   35  N   UNL     1      -9.454  14.798  65.543  1.00  0.00    -0.121 NA 
HETATM   36  N   UNL     1      -8.797  16.969  66.146  1.00  0.00    -0.474 NA 
HETATM   37  S   UNL     1     -11.095  16.645  64.834  1.00  0.00     0.071 SA 
HETATM   38  C   UNL     1      -9.654  16.096  65.594  1.00  0.00    -0.150 A  
ENDBRANCH  30  31
BRANCH  30  39
HETATM   39  N   UNL     1      -9.769  12.734  63.252  1.00  0.00    -0.326 NA 
HETATM   40  H   UNL     1     -10.100  13.289  62.463  1.00  0.00     0.000 HD 
BRANCH  39  41
HETATM   41  O   UNL     1      -8.630  11.945  63.093  1.00  0.00     0.270 OA 
HETATM   42  C   UNL     1      -8.627  10.559  63.373  1.00  0.00    -0.172 C  
ENDBRANCH  39  41
ENDBRANCH  30  39
ENDBRANCH  28  30
ENDBRANCH   6  26
TORSDOF 8
ENDMDL
MODEL      323
REMARK 921   NORMALIZED FREE ENERGY PREDICTED BY IDOCK:   -3.53 KCAL/MOL
REMARK 922        TOTAL FREE ENERGY PREDICTED BY IDOCK:   -6.44 KCAL/MOL
REMARK 923 INTER-LIGAND FREE ENERGY PREDICTED BY IDOCK:   -5.03 KCAL/MOL
REMARK 924 INTRA-LIGAND FREE ENERGY PREDICTED BY IDOCK:   -1.41 KCAL/MOL
REMARK 927      BINDING AFFINITY PREDICTED BY RF-SCORE:    0.00 PKD
ROOT
HETATM    1  C   UNL     1      -9.651  10.678  65.754  1.00  0.00    -0.210 C  
HETATM    2  S   UNL     1      -9.652  10.349  64.013  1.00  0.00    -0.316 SA 
HETATM    3  C   UNL     1      -8.079   9.457  63.727  1.00  0.00    -0.155 C  
HETATM    4  C   UNL     1      -7.200   9.117  64.898  1.00  0.00    -0.097 C  
HETATM    5  CA  UNL     1      -7.476   9.465  66.192  1.00  0.00    -0.096 C  
HETATM    6  CA  UNL     1      -9.680  12.030  66.588  1.00  0.00    -0.208 C  
HETATM    7  C   UNL     1      -8.731  11.207  67.515  1.00  0.00    -0.129 C  
HETATM    8  N   UNL     1      -8.510  10.295  66.532  1.00  0.00    -0.124 N  
HETATM    9  C   UNL     1      -6.601   8.926  67.293  1.00  0.00    -0.062 C  
HETATM   10  O   UNL     1      -8.176  11.451  68.559  1.00  0.00    -0.143 OA 
HETATM   11  O   UNL     1      -6.317   9.742  68.327  1.00  0.00    -0.054 OA 
HETATM   12  OXT UNL     1      -6.169   7.783  67.279  1.00  0.00    -0.050 OA 
ENDROOT
BRANCH   4  13
HETATM   13  C   UNL     1      -5.867   8.388  64.550  1.00  0.00    -0.063 C  
BRANCH  13  14
HETATM   14  S   UNL     1      -5.835   7.064  63.278  1.00  0.00    -0.041 SA 
BRANCH  14  15
HETATM   15  C   UNL     1      -6.724   5.681  63.961  1.00  0.00    -0.045 C  
HETATM   16  N   UNL     1      -6.049   4.954  64.780  1.00  0.00    -0.028 N  
HETATM   17  H   UNL     1      -5.119   5.228  65.097  1.00  0.00     0.000 HD 
HETATM   18  C   UNL     1      -8.745   6.085  62.457  1.00  0.00     0.162 C  
HETATM   19  C   UNL     1      -6.644   3.785  65.210  1.00  0.00    -0.044 C  
HETATM   20  N   UNL     1      -8.018   5.401  63.512  1.00  0.00    -0.094 NA 
HETATM   21  C   UNL     1      -8.152   3.573  65.094  1.00  0.00    -0.093 C  
HETATM   22  O   UNL     1      -6.007   2.808  65.604  1.00  0.00    -0.021 OA 
HETATM   23  H   UNL     1      -9.597   3.997  63.665  1.00  0.00     0.000 HD 
HETATM   24  N   UNL     1      -8.698   4.280  64.052  1.00  0.00    -0.122 N  
HETATM   25  O   UNL     1      -8.793   2.820  65.809  1.00  0.00    -0.124 OA 
ENDBRANCH  14  15
ENDBRANCH  13  14
ENDBRANCH   4  13
BRANCH   6  26
HETATM   26  N   UNL     1      -9.152  13.454  66.363  1.00  0.00    -0.459 N  
HETATM   27  O   UNL     1      -8.584  15.635  66.688  1.00  0.00    -0.247 OA 
HETATM   28  C   UNL     1      -8.986  14.583  67.182  1.00  0.00    -0.230 C  
HETATM   29  H   UNL     1      -8.856  13.617  65.401  1.00  0.00     0.000 HD 
BRANCH  28  30
HETATM   30  C   UNL     1      -9.091  14.515  68.681  1.00  0.00    -0.187 C  
BRANCH  30  31
HETATM   31  C   UNL     1     -10.338  14.684  69.438  1.00  0.00    -0.122 A  
HETATM   32  H2  UNL     1     -12.877  16.343  72.457  1.00  0.00     0.000 HD 
HETATM   33  C   UNL     1     -11.570  14.724  68.806  1.00  0.00    -0.320 A  
HETATM   34  H1  UNL     1     -11.216  16.149  73.018  1.00  0.00     0.000 HD 
HETATM   35  N   UNL     1     -10.369  15.155  70.762  1.00  0.00     0.098 NA 
HETATM   36  N   UNL     1     -11.916  16.046  72.284  1.00  0.00    -0.498 NA 
HETATM   37  S   UNL     1     -12.767  15.348  69.856  1.00  0.00     0.052 SA 
HETATM   38  C   UNL     1     -11.586  15.522  71.094  1.00  0.00    -0.397 A  
ENDBRANCH  30  31
BRANCH  30  39
HETATM   39  N   UNL     1      -8.064  14.526  69.465  1.00  0.00    -0.382 NA 
HETATM   40  H   UNL     1      -8.212  14.520  70.474  1.00  0.00     0.000 HD 
BRANCH  39  41
HETATM   41  O   UNL     1      -6.759  14.544  68.973  1.00  0.00    -0.093 OA 
HETATM   42  C   UNL     1      -5.853  13.480  69.195  1.00  0.00    -0.085 C  
ENDBRANCH  39  41
ENDBRANCH  30  39
ENDBRANCH  28  30
ENDBRANCH   6  26
TORSDOF 8
ENDMDL
MODEL      324
REMARK 921   NORMALIZED FREE ENERGY PREDICTED BY IDOCK:   -3.45 KCAL/MOL
REMARK 922        TOTAL FREE ENERGY PREDICTED BY IDOCK:   -6.32 KCAL/MOL
REMARK 923 INTER-LIGAND FREE ENERGY PREDICTED BY IDOCK:   -5.16 KCAL/MOL
REMARK 924 INTRA-LIGAND FREE ENERGY PREDICTED BY IDOCK:   -1.15 KCAL/MOL
REMARK 927      BINDING AFFINITY PREDICTED BY RF-SCORE:    0.00 PKD
ROOT
HETATM    1  C   UNL     1      -9.307   9.930  69.641  1.00  0.00    -0.228 C  
HETATM    2  S   UNL     1     -10.727   9.880  68.583  1.00  0.00    -0.214 SA 
HETATM    3  C   UNL     1     -10.565   8.286  67.695  1.00  0.00    -0.194 C  
HETATM    4  C   UNL     1      -9.432   7.361  68.041  1.00  0.00    -0.146 C  
HETATM    5  CA  UNL     1      -8.467   7.641  68.968  1.00  0.00    -0.132 C  
HETATM    6  CA  UNL     1      -8.080  10.935  69.741  1.00  0.00     0.391 C  
HETATM    7  C   UNL     1      -7.317   9.609  70.049  1.00  0.00    -0.130 C  
HETATM    8  N   UNL     1      -8.349   8.866  69.568  1.00  0.00    -0.116 N  
HETATM    9  C   UNL     1      -7.481   6.565  69.341  1.00  0.00    -0.094 C  
HETATM   10  O   UNL     1      -6.165   9.357  70.309  1.00  0.00    -0.045 OA 
HETATM   11  O   UNL     1      -6.204   6.933  69.565  1.00  0.00    -0.032 OA 
HETATM   12  OXT UNL     1      -7.810   5.395  69.461  1.00  0.00    -0.082 OA 
ENDROOT
BRANCH   4  13
HETATM   13  C   UNL     1      -9.359   6.047  67.207  1.00  0.00    -0.113 C  
BRANCH  13  14
HETATM   14  S   UNL     1      -8.207   5.910  65.782  1.00  0.00    -0.136 SA 
BRANCH  14  15
HETATM   15  C   UNL     1      -8.735   4.497  64.835  1.00  0.00    -0.140 C  
HETATM   16  N   UNL     1      -9.780   4.692  64.109  1.00  0.00    -0.359 N  
HETATM   17  H   UNL     1     -10.191   5.619  64.001  1.00  0.00     0.000 HD 
HETATM   18  C   UNL     1      -7.025   2.965  65.946  1.00  0.00    -0.056 C  
HETATM   19  C   UNL     1     -10.317   3.585  63.484  1.00  0.00    -0.231 C  
HETATM   20  N   UNL     1      -8.085   3.271  65.002  1.00  0.00    -0.089 NA 
HETATM   21  C   UNL     1      -9.500   2.309  63.289  1.00  0.00    -0.094 C  
HETATM   22  O   UNL     1     -11.499   3.507  63.148  1.00  0.00     0.024 OA 
HETATM   23  H   UNL     1      -8.150   1.230  64.439  1.00  0.00     0.000 HD 
HETATM   24  N   UNL     1      -8.540   2.154  64.256  1.00  0.00    -0.086 N  
HETATM   25  O   UNL     1      -9.710   1.492  62.408  1.00  0.00    -0.087 OA 
ENDBRANCH  14  15
ENDBRANCH  13  14
ENDBRANCH   4  13
BRANCH   6  26
HETATM   26  N   UNL     1      -7.312  11.808  68.739  1.00  0.00    -0.115 N  
HETATM   27  O   UNL     1      -6.812  13.180  66.991  1.00  0.00    -0.060 OA 
HETATM   28  C   UNL     1      -7.683  12.643  67.673  1.00  0.00    -0.155 C  
HETATM   29  H   UNL     1      -6.302  11.774  68.880  1.00  0.00     0.000 HD 
BRANCH  28  30
HETATM   30  C   UNL     1      -9.108  13.071  67.441  1.00  0.00    -0.201 C  
BRANCH  30  31
HETATM   31  C   UNL     1      -9.794  14.128  68.193  1.00  0.00    -0.229 A  
HETATM   32  H2  UNL     1     -10.609  18.147  69.417  1.00  0.00     0.000 HD 
HETATM   33  C   UNL     1     -11.168  14.115  68.372  1.00  0.00    -0.265 A  
HETATM   34  H1  UNL     1      -8.888  17.871  69.144  1.00  0.00     0.000 HD 
HETATM   35  N   UNL     1      -9.202  15.370  68.477  1.00  0.00    -0.191 NA 
HETATM   36  N   UNL     1      -9.845  17.519  69.163  1.00  0.00    -0.210 NA 
HETATM   37  S   UNL     1     -11.723  15.647  68.892  1.00  0.00    -0.353 SA 
HETATM   38  C   UNL     1     -10.109  16.239  68.859  1.00  0.00    -0.251 A  
ENDBRANCH  30  31
BRANCH  30  39
HETATM   39  N   UNL     1      -9.938  12.402  66.711  1.00  0.00    -0.221 NA 
HETATM   40  H   UNL     1     -10.934  12.454  66.922  1.00  0.00     0.000 HD 
BRANCH  39  41
HETATM   41  O   UNL     1      -9.514  11.610  65.644  1.00  0.00    -0.226 OA 
HETATM   42  C   UNL     1     -10.407  10.803  64.901  1.00  0.00    -0.299 C  
ENDBRANCH  39  41
ENDBRANCH  30  39
ENDBRANCH  28  30
ENDBRANCH   6  26
TORSDOF 8
ENDMDL
MODEL      325
REMARK 921   NORMALIZED FREE ENERGY PREDICTED BY IDOCK:   -3.38 KCAL/MOL
REMARK 922        TOTAL FREE ENERGY PREDICTED BY IDOCK:   -6.22 KCAL/MOL
REMARK 923 INTER-LIGAND FREE ENERGY PREDICTED BY IDOCK:   -4.75 KCAL/MOL
REMARK 924 INTRA-LIGAND FREE ENERGY PREDICTED BY IDOCK:   -1.47 KCAL/MOL
REMARK 927      BINDING AFFINITY PREDICTED BY RF-SCORE:    0.00 PKD
ROOT
HETATM    1  C   UNL     1      -8.932  13.491  68.452  1.00  0.00    -0.146 C  
HETATM    2  S   UNL     1      -7.735  13.850  67.195  1.00  0.00     0.162 SA 
HETATM    3  C   UNL     1      -8.336  15.405  66.439  1.00  0.00    -0.045 C  
HETATM    4  C   UNL     1      -9.553  16.080  67.007  1.00  0.00    -0.229 C  
HETATM    5  CA  UNL     1     -10.287  15.589  68.052  1.00  0.00    -0.247 C  
HETATM    6  CA  UNL     1      -9.914  12.262  68.676  1.00  0.00    -0.118 C  
HETATM    7  C   UNL     1     -10.855  13.403  69.174  1.00  0.00    -0.114 C  
HETATM    8  N   UNL     1     -10.073  14.347  68.588  1.00  0.00    -0.239 N  
HETATM    9  C   UNL     1     -11.386  16.439  68.633  1.00  0.00    -0.289 C  
HETATM   10  O   UNL     1     -11.977  13.416  69.621  1.00  0.00    -0.308 OA 
HETATM   11  O   UNL     1     -12.517  15.822  69.026  1.00  0.00    -0.055 OA 
HETATM   12  OXT UNL     1     -11.268  17.647  68.772  1.00  0.00     0.259 OA 
ENDROOT
BRANCH   4  13
HETATM   13  C   UNL     1     -10.006  17.379  66.274  1.00  0.00    -0.297 C  
BRANCH  13  14
HETATM   14  S   UNL     1      -8.871  18.817  66.140  1.00  0.00    -0.016 SA 
BRANCH  14  15
HETATM   15  C   UNL     1      -7.674  18.643  67.446  1.00  0.00    -0.228 C  
HETATM   16  N   UNL     1      -8.073  19.040  68.603  1.00  0.00    -0.356 N  
HETATM   17  H   UNL     1      -9.041  19.317  68.769  1.00  0.00     0.000 HD 
HETATM   18  C   UNL     1      -5.837  17.927  65.828  1.00  0.00    -0.180 C  
HETATM   19  C   UNL     1      -7.129  19.073  69.609  1.00  0.00     0.012 C  
HETATM   20  N   UNL     1      -6.380  18.207  67.145  1.00  0.00    -0.166 NA 
HETATM   21  C   UNL     1      -5.826  18.284  69.500  1.00  0.00    -0.246 C  
HETATM   22  O   UNL     1      -7.214  19.810  70.592  1.00  0.00     0.315 OA 
HETATM   23  H   UNL     1      -4.463  17.885  67.986  1.00  0.00     0.000 HD 
HETATM   24  N   UNL     1      -5.437  18.100  68.198  1.00  0.00    -0.160 N  
HETATM   25  O   UNL     1      -5.174  17.906  70.460  1.00  0.00    -0.242 OA 
ENDBRANCH  14  15
ENDBRANCH  13  14
ENDBRANCH   4  13
BRANCH   6  26
HETATM   26  N   UNL     1     -10.655  11.285  67.752  1.00  0.00    -0.192 N  
HETATM   27  O   UNL     1     -11.159   9.480  66.457  1.00  0.00     0.205 OA 
HETATM   28  C   UNL     1     -10.379  10.001  67.253  1.00  0.00    -0.237 C  
HETATM   29  H   UNL     1     -11.549  11.651  67.426  1.00  0.00     0.000 HD 
BRANCH  28  30
HETATM   30  C   UNL     1      -9.267   9.146  67.796  1.00  0.00    -0.133 C  
BRANCH  30  31
HETATM   31  C   UNL     1      -9.166   8.694  69.189  1.00  0.00    -0.152 A  
HETATM   32  H2  UNL     1     -10.485   8.165  73.225  1.00  0.00     0.000 HD 
HETATM   33  C   UNL     1      -8.653   7.448  69.512  1.00  0.00    -0.134 A  
HETATM   34  H1  UNL     1     -10.987   9.720  72.560  1.00  0.00     0.000 HD 
HETATM   35  N   UNL     1      -9.872   9.301  70.241  1.00  0.00    -0.205 NA 
HETATM   36  N   UNL     1     -10.498   8.831  72.453  1.00  0.00    -0.251 NA 
HETATM   37  S   UNL     1      -9.050   7.032  71.122  1.00  0.00    -0.153 SA 
HETATM   38  C   UNL     1      -9.872   8.530  71.305  1.00  0.00    -0.216 A  
ENDBRANCH  30  31
BRANCH  30  39
HETATM   39  N   UNL     1      -8.175   8.908  67.148  1.00  0.00    -0.103 NA 
HETATM   40  H   UNL     1      -7.498   8.255  67.542  1.00  0.00     0.000 HD 
BRANCH  39  41
HETATM   41  O   UNL     1      -7.893   9.518  65.925  1.00  0.00    -0.099 OA 
HETATM   42  C   UNL     1      -8.058   8.846  64.691  1.00  0.00    -0.151 C  
ENDBRANCH  39  41
ENDBRANCH  30  39
ENDBRANCH  28  30
ENDBRANCH   6  26
TORSDOF 8
ENDMDL
MODEL      326
REMARK 921   NORMALIZED FREE ENERGY PREDICTED BY IDOCK:   -3.23 KCAL/MOL
REMARK 922        TOTAL FREE ENERGY PREDICTED BY IDOCK:   -6.00 KCAL/MOL
REMARK 923 INTER-LIGAND FREE ENERGY PREDICTED BY IDOCK:   -6.73 KCAL/MOL
REMARK 924 INTRA-LIGAND FREE ENERGY PREDICTED BY IDOCK:    0.73 KCAL/MOL
REMARK 927      BINDING AFFINITY PREDICTED BY RF-SCORE:    0.00 PKD
ROOT
HETATM    1  C   UNL     1     -10.825   7.579  69.014  1.00  0.00    -0.061 C  
HETATM    2  S   UNL     1     -11.372   8.095  70.619  1.00  0.00    -0.213 SA 
HETATM    3  C   UNL     1     -11.636   9.899  70.441  1.00  0.00    -0.282 C  
HETATM    4  C   UNL     1     -11.450  10.542  69.096  1.00  0.00    -0.314 C  
HETATM    5  CA  UNL     1     -11.054   9.872  67.971  1.00  0.00    -0.158 C  
HETATM    6  CA  UNL     1      -9.481   6.900  68.508  1.00  0.00    -0.133 C  
HETATM    7  C   UNL     1      -9.746   7.829  67.282  1.00  0.00    -0.171 C  
HETATM    8  N   UNL     1     -10.636   8.568  67.994  1.00  0.00    -0.180 N  
HETATM    9  C   UNL     1     -11.062  10.597  66.651  1.00  0.00     0.019 C  
HETATM   10  O   UNL     1      -9.166   8.009  66.238  1.00  0.00    -0.178 OA 
HETATM   11  O   UNL     1     -10.062  10.338  65.785  1.00  0.00    -0.254 OA 
HETATM   12  OXT UNL     1     -11.947  11.382  66.346  1.00  0.00    -0.214 OA 
ENDROOT
BRANCH   4  13
HETATM   13  C   UNL     1     -11.664  12.086  69.053  1.00  0.00    -0.325 C  
BRANCH  13  14
HETATM   14  S   UNL     1     -10.230  13.221  68.880  1.00  0.00     0.072 SA 
BRANCH  14  15
HETATM   15  C   UNL     1     -10.508  14.169  67.400  1.00  0.00    -0.271 C  
HETATM   16  N   UNL     1     -11.720  14.153  66.966  1.00  0.00    -0.385 N  
HETATM   17  H   UNL     1     -12.475  13.727  67.503  1.00  0.00     0.000 HD 
HETATM   18  C   UNL     1      -8.022  14.656  67.102  1.00  0.00    -0.154 C  
HETATM   19  C   UNL     1     -11.948  14.740  65.739  1.00  0.00    -0.155 C  
HETATM   20  N   UNL     1      -9.426  14.768  66.748  1.00  0.00    -0.242 NA 
HETATM   21  C   UNL     1     -10.953  15.729  65.134  1.00  0.00    -0.382 C  
HETATM   22  O   UNL     1     -12.890  14.434  65.008  1.00  0.00    -0.631 OA 
HETATM   23  H   UNL     1      -8.884  15.853  65.011  1.00  0.00     0.000 HD 
HETATM   24  N   UNL     1      -9.669  15.498  65.557  1.00  0.00    -0.309 N  
HETATM   25  O   UNL     1     -11.253  16.592  64.325  1.00  0.00    -1.098 OA 
ENDBRANCH  14  15
ENDBRANCH  13  14
ENDBRANCH   4  13
BRANCH   6  26
HETATM   26  N   UNL     1      -8.011   6.950  68.946  1.00  0.00    -0.115 N  
HETATM   27  O   UNL     1      -5.747   7.195  68.925  1.00  0.00    -0.018 OA 
HETATM   28  C   UNL     1      -6.810   7.326  68.322  1.00  0.00    -0.070 C  
HETATM   29  H   UNL     1      -7.875   6.639  69.907  1.00  0.00     0.000 HD 
BRANCH  28  30
HETATM   30  C   UNL     1      -6.779   8.070  67.013  1.00  0.00    -0.065 C  
BRANCH  30  31
HETATM   31  C   UNL     1      -6.399   7.475  65.725  1.00  0.00    -0.042 A  
HETATM   32  H2  UNL     1      -6.762   4.808  62.399  1.00  0.00     0.000 HD 
HETATM   33  C   UNL     1      -5.969   8.257  64.665  1.00  0.00    -0.056 A  
HETATM   34  H1  UNL     1      -7.227   4.042  63.919  1.00  0.00     0.000 HD 
HETATM   35  N   UNL     1      -6.758   6.169  65.353  1.00  0.00    -0.046 NA 
HETATM   36  N   UNL     1      -6.884   4.858  63.411  1.00  0.00    -0.038 NA 
HETATM   37  S   UNL     1      -6.012   7.368  63.205  1.00  0.00    -0.054 SA 
HETATM   38  C   UNL     1      -6.591   5.994  64.061  1.00  0.00    -0.037 A  
ENDBRANCH  30  31
BRANCH  30  39
HETATM   39  N   UNL     1      -6.866   9.355  66.927  1.00  0.00    -0.079 NA 
HETATM   40  H   UNL     1      -7.789   9.787  66.895  1.00  0.00     0.000 HD 
BRANCH  39  41
HETATM   41  O   UNL     1      -5.736  10.172  66.875  1.00  0.00    -0.048 OA 
HETATM   42  C   UNL     1      -5.418  11.087  67.905  1.00  0.00    -0.039 C  
ENDBRANCH  39  41
ENDBRANCH  30  39
ENDBRANCH  28  30
ENDBRANCH   6  26
TORSDOF 8
ENDMDL
MODEL      327
REMARK 921   NORMALIZED FREE ENERGY PREDICTED BY IDOCK:   -3.21 KCAL/MOL
REMARK 922        TOTAL FREE ENERGY PREDICTED BY IDOCK:   -5.97 KCAL/MOL
REMARK 923 INTER-LIGAND FREE ENERGY PREDICTED BY IDOCK:   -5.53 KCAL/MOL
REMARK 924 INTRA-LIGAND FREE ENERGY PREDICTED BY IDOCK:   -0.44 KCAL/MOL
REMARK 927      BINDING AFFINITY PREDICTED BY RF-SCORE:    0.00 PKD
ROOT
HETATM    1  C   UNL     1     -10.655   9.186  68.199  1.00  0.00    -0.183 C  
HETATM    2  S   UNL     1     -10.594  10.327  69.553  1.00  0.00    -0.260 SA 
HETATM    3  C   UNL     1      -9.403  11.606  69.004  1.00  0.00     0.159 C  
HETATM    4  C   UNL     1      -8.818  11.525  67.623  1.00  0.00    -0.152 C  
HETATM    5  CA  UNL     1      -9.086  10.522  66.732  1.00  0.00    -0.151 C  
HETATM    6  CA  UNL     1     -10.301   7.642  68.083  1.00  0.00    -0.204 C  
HETATM    7  C   UNL     1      -9.792   8.101  66.681  1.00  0.00    -0.261 C  
HETATM    8  N   UNL     1      -9.801   9.403  67.070  1.00  0.00    -0.187 N  
HETATM    9  C   UNL     1      -8.566  10.640  65.324  1.00  0.00    -0.169 C  
HETATM   10  O   UNL     1      -9.295   7.517  65.748  1.00  0.00     0.001 OA 
HETATM   11  O   UNL     1      -8.125   9.519  64.720  1.00  0.00    -0.117 OA 
HETATM   12  OXT UNL     1      -8.555  11.703  64.722  1.00  0.00     0.416 OA 
ENDROOT
BRANCH   4  13
HETATM   13  C   UNL     1      -7.790  12.639  67.261  1.00  0.00    -0.155 C  
BRANCH  13  14
HETATM   14  S   UNL     1      -8.131  14.394  67.682  1.00  0.00    -0.192 SA 
BRANCH  14  15
HETATM   15  C   UNL     1      -9.361  14.964  66.528  1.00  0.00    -0.282 C  
HETATM   16  N   UNL     1     -10.035  14.032  65.950  1.00  0.00    -0.332 N  
HETATM   17  H   UNL     1      -9.945  13.055  66.230  1.00  0.00     0.000 HD 
HETATM   18  C   UNL     1      -8.594  17.389  66.724  1.00  0.00    -0.260 C  
HETATM   19  C   UNL     1     -10.885  14.418  64.934  1.00  0.00    -0.416 C  
HETATM   20  N   UNL     1      -9.456  16.328  66.235  1.00  0.00    -0.293 NA 
HETATM   21  C   UNL     1     -11.344  15.868  64.791  1.00  0.00    -0.309 C  
HETATM   22  O   UNL     1     -11.237  13.665  64.026  1.00  0.00    -0.321 OA 
HETATM   23  H   UNL     1     -10.444  17.728  64.989  1.00  0.00     0.000 HD 
HETATM   24  N   UNL     1     -10.427  16.755  65.294  1.00  0.00    -0.216 N  
HETATM   25  O   UNL     1     -12.381  16.205  64.243  1.00  0.00    -0.450 OA 
ENDBRANCH  14  15
ENDBRANCH  13  14
ENDBRANCH   4  13
BRANCH   6  26
HETATM   26  N   UNL     1      -9.296   6.707  68.769  1.00  0.00    -0.132 N  
HETATM   27  O   UNL     1      -8.163   5.521  70.350  1.00  0.00    -0.100 OA 
HETATM   28  C   UNL     1      -9.129   6.232  70.081  1.00  0.00    -0.153 C  
HETATM   29  H   UNL     1      -8.588   6.349  68.128  1.00  0.00     0.000 HD 
BRANCH  28  30
HETATM   30  C   UNL     1     -10.188   6.392  71.138  1.00  0.00    -0.191 C  
BRANCH  30  31
HETATM   31  C   UNL     1     -10.298   5.558  72.342  1.00  0.00    -0.206 A  
HETATM   32  H2  UNL     1     -11.152   2.000  74.560  1.00  0.00     0.000 HD 
HETATM   33  C   UNL     1      -9.327   5.580  73.330  1.00  0.00    -0.131 A  
HETATM   34  H1  UNL     1     -12.284   2.241  73.229  1.00  0.00     0.000 HD 
HETATM   35  N   UNL     1     -11.167   4.458  72.431  1.00  0.00     0.193 NA 
HETATM   36  N   UNL     1     -11.479   2.557  73.771  1.00  0.00    -0.179 NA 
HETATM   37  S   UNL     1      -9.493   4.231  74.368  1.00  0.00    -0.114 SA 
HETATM   38  C   UNL     1     -10.848   3.699  73.455  1.00  0.00    -0.218 A  
ENDBRANCH  30  31
BRANCH  30  39
HETATM   39  N   UNL     1     -11.236   7.131  70.984  1.00  0.00    -0.260 NA 
HETATM   40  H   UNL     1     -11.527   7.387  70.041  1.00  0.00     0.000 HD 
BRANCH  39  41
HETATM   41  O   UNL     1     -11.983   7.590  72.070  1.00  0.00    -0.282 OA 
HETATM   42  C   UNL     1     -13.174   6.952  72.490  1.00  0.00     0.577 C  
ENDBRANCH  39  41
ENDBRANCH  30  39
ENDBRANCH  28  30
ENDBRANCH   6  26
TORSDOF 8
ENDMDL
MODEL      328
REMARK 921   NORMALIZED FREE ENERGY PREDICTED BY IDOCK:   -3.19 KCAL/MOL
REMARK 922        TOTAL FREE ENERGY PREDICTED BY IDOCK:   -5.95 KCAL/MOL
REMARK 923 INTER-LIGAND FREE ENERGY PREDICTED BY IDOCK:   -5.95 KCAL/MOL
REMARK 924 INTRA-LIGAND FREE ENERGY PREDICTED BY IDOCK:    0.00 KCAL/MOL
REMARK 927      BINDING AFFINITY PREDICTED BY RF-SCORE:    0.00 PKD
ROOT
HETATM    1  C   UNL     1     -10.385  11.996  68.828  1.00  0.00    -0.160 C  
HETATM    2  S   UNL     1     -11.802  11.027  68.389  1.00  0.00    -0.070 SA 
HETATM    3  C   UNL     1     -11.116   9.366  68.038  1.00  0.00     0.059 C  
HETATM    4  C   UNL     1      -9.649   9.115  68.245  1.00  0.00    -0.161 C  
HETATM    5  CA  UNL     1      -8.756  10.068  68.652  1.00  0.00    -0.127 C  
HETATM    6  CA  UNL     1      -9.736  13.296  68.187  1.00  0.00    -0.227 C  
HETATM    7  C   UNL     1      -8.422  12.568  68.610  1.00  0.00     0.031 C  
HETATM    8  N   UNL     1      -9.086  11.392  68.766  1.00  0.00    -0.137 N  
HETATM    9  C   UNL     1      -7.346   9.652  68.980  1.00  0.00    -0.073 C  
HETATM   10  O   UNL     1      -7.252  12.854  68.526  1.00  0.00    -0.097 OA 
HETATM   11  O   UNL     1      -6.347  10.487  68.629  1.00  0.00    -0.047 OA 
HETATM   12  OXT UNL     1      -7.095   8.608  69.561  1.00  0.00    -0.053 OA 
ENDROOT
BRANCH   4  13
HETATM   13  C   UNL     1      -9.155   7.681  67.887  1.00  0.00    -0.134 C  
BRANCH  13  14
HETATM   14  S   UNL     1      -7.952   7.424  66.522  1.00  0.00    -0.114 SA 
BRANCH  14  15
HETATM   15  C   UNL     1      -8.353   8.614  65.260  1.00  0.00    -0.168 C  
HETATM   16  N   UNL     1      -9.347   9.383  65.537  1.00  0.00    -0.239 N  
HETATM   17  H   UNL     1      -9.784   9.381  66.459  1.00  0.00     0.000 HD 
HETATM   18  C   UNL     1      -6.673   7.618  63.619  1.00  0.00    -0.058 C  
HETATM   19  C   UNL     1      -9.794  10.210  64.527  1.00  0.00    -0.264 C  
HETATM   20  N   UNL     1      -7.671   8.585  64.040  1.00  0.00    -0.129 NA 
HETATM   21  C   UNL     1      -8.917  10.531  63.318  1.00  0.00    -0.229 C  
HETATM   22  O   UNL     1     -10.944  10.647  64.470  1.00  0.00    -0.005 OA 
HETATM   23  H   UNL     1      -7.616   9.456  62.110  1.00  0.00     0.000 HD 
HETATM   24  N   UNL     1      -8.026   9.527  63.041  1.00  0.00    -0.128 N  
HETATM   25  O   UNL     1      -9.029  11.541  62.642  1.00  0.00    -0.310 OA 
ENDBRANCH  14  15
ENDBRANCH  13  14
ENDBRANCH   4  13
BRANCH   6  26
HETATM   26  N   UNL     1      -9.631  13.866  66.765  1.00  0.00    -0.273 N  
HETATM   27  O   UNL     1      -9.419  15.307  65.014  1.00  0.00     0.051 OA 
HETATM   28  C   UNL     1      -9.377  15.140  66.232  1.00  0.00    -0.313 C  
HETATM   29  H   UNL     1      -9.779  13.159  66.045  1.00  0.00     0.000 HD 
BRANCH  28  30
HETATM   30  C   UNL     1      -8.862  16.279  67.070  1.00  0.00    -0.205 C  
BRANCH  30  31
HETATM   31  C   UNL     1      -9.304  17.674  66.945  1.00  0.00    -0.264 A  
HETATM   32  H2  UNL     1     -11.646  20.901  65.393  1.00  0.00     0.000 HD 
HETATM   33  C   UNL     1      -9.475  18.483  68.057  1.00  0.00    -0.303 A  
HETATM   34  H1  UNL     1     -11.249  19.711  64.153  1.00  0.00     0.000 HD 
HETATM   35  N   UNL     1      -9.906  18.181  65.782  1.00  0.00    -0.501 NA 
HETATM   36  N   UNL     1     -11.184  20.034  65.118  1.00  0.00     0.003 NA 
HETATM   37  S   UNL     1     -10.386  19.873  67.656  1.00  0.00    -0.393 SA 
HETATM   38  C   UNL     1     -10.495  19.330  66.029  1.00  0.00    -0.487 A  
ENDBRANCH  30  31
BRANCH  30  39
HETATM   39  N   UNL     1      -7.821  16.185  67.830  1.00  0.00    -0.139 NA 
HETATM   40  H   UNL     1      -7.931  15.823  68.777  1.00  0.00     0.000 HD 
BRANCH  39  41
HETATM   41  O   UNL     1      -6.551  16.565  67.395  1.00  0.00    -0.132 OA 
HETATM   42  C   UNL     1      -5.807  17.583  68.035  1.00  0.00    -0.148 C  
ENDBRANCH  39  41
ENDBRANCH  30  39
ENDBRANCH  28  30
ENDBRANCH   6  26
TORSDOF 8
ENDMDL
MODEL      329
REMARK 921   NORMALIZED FREE ENERGY PREDICTED BY IDOCK:   -2.91 KCAL/MOL
REMARK 922        TOTAL FREE ENERGY PREDICTED BY IDOCK:   -5.54 KCAL/MOL
REMARK 923 INTER-LIGAND FREE ENERGY PREDICTED BY IDOCK:   -3.16 KCAL/MOL
REMARK 924 INTRA-LIGAND FREE ENERGY PREDICTED BY IDOCK:   -2.38 KCAL/MOL
REMARK 927      BINDING AFFINITY PREDICTED BY RF-SCORE:    0.00 PKD
ROOT
HETATM    1  C   UNL     1      -9.291   7.347  71.729  1.00  0.00    -0.145 C  
HETATM    2  S   UNL     1     -10.488   6.931  70.492  1.00  0.00    -0.216 SA 
HETATM    3  C   UNL     1     -10.770   5.137  70.730  1.00  0.00    -0.062 C  
HETATM    4  C   UNL     1     -10.082   4.426  71.861  1.00  0.00    -0.245 C  
HETATM    5  CA  UNL     1      -9.210   5.025  72.729  1.00  0.00    -0.132 C  
HETATM    6  CA  UNL     1      -7.818   7.935  71.639  1.00  0.00    -0.093 C  
HETATM    7  C   UNL     1      -7.606   6.968  72.845  1.00  0.00    -0.084 C  
HETATM    8  N   UNL     1      -8.758   6.306  72.557  1.00  0.00    -0.121 N  
HETATM    9  C   UNL     1      -8.714   4.245  73.918  1.00  0.00    -0.097 C  
HETATM   10  O   UNL     1      -6.656   6.713  73.546  1.00  0.00    -0.065 OA 
HETATM   11  O   UNL     1      -7.430   4.415  74.289  1.00  0.00    -0.074 OA 
HETATM   12  OXT UNL     1      -9.439   3.493  74.550  1.00  0.00    -0.095 OA 
ENDROOT
BRANCH   4  13
HETATM   13  C   UNL     1     -10.357   2.895  71.960  1.00  0.00     0.069 C  
BRANCH  13  14
HETATM   14  S   UNL     1      -9.084   1.683  71.425  1.00  0.00    -0.087 SA 
BRANCH  14  15
HETATM   15  C   UNL     1      -7.982   2.553  70.330  1.00  0.00    -0.042 C  
HETATM   16  N   UNL     1      -7.035   3.199  70.916  1.00  0.00    -0.033 N  
HETATM   17  H   UNL     1      -6.869   3.112  71.919  1.00  0.00     0.000 HD 
HETATM   18  C   UNL     1      -9.407   2.024  68.282  1.00  0.00    -0.198 C  
HETATM   19  C   UNL     1      -6.256   4.015  70.122  1.00  0.00    -0.027 C  
HETATM   20  N   UNL     1      -8.250   2.582  68.959  1.00  0.00    -0.051 NA 
HETATM   21  C   UNL     1      -6.210   3.838  68.605  1.00  0.00    -0.032 C  
HETATM   22  O   UNL     1      -5.643   4.992  70.554  1.00  0.00    -0.014 OA 
HETATM   23  H   UNL     1      -7.605   3.424  67.125  1.00  0.00     0.000 HD 
HETATM   24  N   UNL     1      -7.372   3.303  68.110  1.00  0.00    -0.050 N  
HETATM   25  O   UNL     1      -5.272   4.182  67.905  1.00  0.00    -0.007 OA 
ENDBRANCH  14  15
ENDBRANCH  13  14
ENDBRANCH   4  13
BRANCH   6  26
HETATM   26  N   UNL     1      -6.670   7.830  70.625  1.00  0.00    -0.038 N  
HETATM   27  O   UNL     1      -5.330   8.187  68.818  1.00  0.00    -0.029 OA 
HETATM   28  C   UNL     1      -6.295   8.559  69.484  1.00  0.00    -0.040 C  
HETATM   29  H   UNL     1      -6.036   7.057  70.825  1.00  0.00     0.000 HD 
BRANCH  28  30
HETATM   30  C   UNL     1      -6.901   9.893  69.142  1.00  0.00    -0.055 C  
BRANCH  30  31
HETATM   31  C   UNL     1      -8.251  10.080  68.594  1.00  0.00    -0.111 A  
HETATM   32  H2  UNL     1     -11.796   8.949  66.482  1.00  0.00     0.000 HD 
HETATM   33  C   UNL     1      -9.248  10.709  69.322  1.00  0.00    -0.104 A  
HETATM   34  H1  UNL     1     -10.340   8.294  65.734  1.00  0.00     0.000 HD 
HETATM   35  N   UNL     1      -8.731   9.360  67.487  1.00  0.00    -0.122 NA 
HETATM   36  N   UNL     1     -10.781   8.853  66.464  1.00  0.00    -0.001 NA 
HETATM   37  S   UNL     1     -10.782  10.405  68.631  1.00  0.00    -0.234 SA 
HETATM   38  C   UNL     1     -10.039   9.463  67.401  1.00  0.00    -0.215 A  
ENDBRANCH  30  31
BRANCH  30  39
HETATM   39  N   UNL     1      -6.219  10.988  69.085  1.00  0.00    -0.045 NA 
HETATM   40  H   UNL     1      -5.964  11.365  68.172  1.00  0.00     0.000 HD 
BRANCH  39  41
HETATM   41  O   UNL     1      -5.818  11.670  70.234  1.00  0.00    -0.135 OA 
HETATM   42  C   UNL     1      -5.457  13.037  70.212  1.00  0.00    -0.132 C  
ENDBRANCH  39  41
ENDBRANCH  30  39
ENDBRANCH  28  30
ENDBRANCH   6  26
TORSDOF 8
ENDMDL
MODEL      330
REMARK 921   NORMALIZED FREE ENERGY PREDICTED BY IDOCK:   -2.90 KCAL/MOL
REMARK 922        TOTAL FREE ENERGY PREDICTED BY IDOCK:   -5.52 KCAL/MOL
REMARK 923 INTER-LIGAND FREE ENERGY PREDICTED BY IDOCK:   -5.32 KCAL/MOL
REMARK 924 INTRA-LIGAND FREE ENERGY PREDICTED BY IDOCK:   -0.19 KCAL/MOL
REMARK 927      BINDING AFFINITY PREDICTED BY RF-SCORE:    0.00 PKD
ROOT
HETATM    1  C   UNL     1      -9.855   9.500  69.376  1.00  0.00    -0.186 C  
HETATM    2  S   UNL     1     -10.760   9.167  67.890  1.00  0.00    -0.097 SA 
HETATM    3  C   UNL     1     -10.485   7.381  67.591  1.00  0.00    -0.241 C  
HETATM    4  C   UNL     1      -9.702   6.578  68.591  1.00  0.00    -0.128 C  
HETATM    5  CA  UNL     1      -9.132   7.100  69.720  1.00  0.00    -0.141 C  
HETATM    6  CA  UNL     1      -8.636  10.469  69.694  1.00  0.00     0.043 C  
HETATM    7  C   UNL     1      -8.229   9.278  70.617  1.00  0.00    -0.190 C  
HETATM    8  N   UNL     1      -9.090   8.445  69.974  1.00  0.00    -0.148 N  
HETATM    9  C   UNL     1      -8.513   6.163  70.724  1.00  0.00    -0.131 C  
HETATM   10  O   UNL     1      -7.307   9.093  71.373  1.00  0.00    -0.261 OA 
HETATM   11  O   UNL     1      -7.380   6.559  71.337  1.00  0.00    -0.081 OA 
HETATM   12  OXT UNL     1      -9.015   5.085  71.002  1.00  0.00    -0.127 OA 
ENDROOT
BRANCH   4  13
HETATM   13  C   UNL     1      -9.492   5.076  68.231  1.00  0.00    -0.133 C  
BRANCH  13  14
HETATM   14  S   UNL     1      -7.927   4.516  67.448  1.00  0.00    -0.101 SA 
BRANCH  14  15
HETATM   15  C   UNL     1      -7.847   5.302  65.852  1.00  0.00    -0.103 C  
HETATM   16  N   UNL     1      -8.367   4.625  64.889  1.00  0.00    -0.123 N  
HETATM   17  H   UNL     1      -8.887   3.764  65.059  1.00  0.00     0.000 HD 
HETATM   18  C   UNL     1      -6.403   7.211  66.733  1.00  0.00    -0.050 C  
HETATM   19  C   UNL     1      -8.187   5.121  63.614  1.00  0.00    -0.118 C  
HETATM   20  N   UNL     1      -7.159   6.510  65.710  1.00  0.00    -0.061 NA 
HETATM   21  C   UNL     1      -7.798   6.579  63.376  1.00  0.00    -0.106 C  
HETATM   22  O   UNL     1      -8.214   4.416  62.605  1.00  0.00    -0.074 OA 
HETATM   23  H   UNL     1      -6.504   7.928  64.279  1.00  0.00     0.000 HD 
HETATM   24  N   UNL     1      -7.088   7.105  64.425  1.00  0.00    -0.055 N  
HETATM   25  O   UNL     1      -8.043   7.193  62.350  1.00  0.00    -0.130 OA 
ENDBRANCH  14  15
ENDBRANCH  13  14
ENDBRANCH   4  13
BRANCH   6  26
HETATM   26  N   UNL     1      -7.437  10.998  68.896  1.00  0.00    -0.114 N  
HETATM   27  O   UNL     1      -6.112  12.292  67.569  1.00  0.00    -0.107 OA 
HETATM   28  C   UNL     1      -7.176  12.175  68.174  1.00  0.00    -0.096 C  
HETATM   29  H   UNL     1      -6.651  10.349  68.887  1.00  0.00     0.000 HD 
BRANCH  28  30
HETATM   30  C   UNL     1      -8.061  13.389  68.263  1.00  0.00    -0.152 C  
BRANCH  30  31
HETATM   31  C   UNL     1      -9.421  13.473  67.717  1.00  0.00    -0.216 A  
HETATM   32  H2  UNL     1     -12.647  12.438  65.103  1.00  0.00     0.000 HD 
HETATM   33  C   UNL     1     -10.527  13.594  68.542  1.00  0.00    -0.244 A  
HETATM   34  H1  UNL     1     -11.086  12.393  64.283  1.00  0.00     0.000 HD 
HETATM   35  N   UNL     1      -9.739  13.096  66.402  1.00  0.00    -0.267 NA 
HETATM   36  N   UNL     1     -11.635  12.564  65.125  1.00  0.00    -0.338 NA 
HETATM   37  S   UNL     1     -11.963  13.239  67.683  1.00  0.00    -0.271 SA 
HETATM   38  C   UNL     1     -11.038  12.952  66.263  1.00  0.00    -0.288 A  
ENDBRANCH  30  31
BRANCH  30  39
HETATM   39  N   UNL     1      -7.633  14.552  68.630  1.00  0.00    -0.124 NA 
HETATM   40  H   UNL     1      -7.082  14.628  69.485  1.00  0.00     0.000 HD 
BRANCH  39  41
HETATM   41  O   UNL     1      -7.902  15.705  67.894  1.00  0.00    -0.125 OA 
HETATM   42  C   UNL     1      -8.352  15.657  66.553  1.00  0.00    -0.241 C  
ENDBRANCH  39  41
ENDBRANCH  30  39
ENDBRANCH  28  30
ENDBRANCH   6  26
TORSDOF 8
ENDMDL
MODEL      331
REMARK 921   NORMALIZED FREE ENERGY PREDICTED BY IDOCK:   -2.38 KCAL/MOL
REMARK 922        TOTAL FREE ENERGY PREDICTED BY IDOCK:   -4.75 KCAL/MOL
REMARK 923 INTER-LIGAND FREE ENERGY PREDICTED BY IDOCK:   -4.24 KCAL/MOL
REMARK 924 INTRA-LIGAND FREE ENERGY PREDICTED BY IDOCK:   -0.51 KCAL/MOL
REMARK 927      BINDING AFFINITY PREDICTED BY RF-SCORE:    0.00 PKD
ROOT
HETATM    1  C   UNL     1     -10.176  11.054  69.159  1.00  0.00    -0.166 C  
HETATM    2  S   UNL     1     -10.700   9.394  69.491  1.00  0.00    -0.205 SA 
HETATM    3  C   UNL     1      -9.430   8.355  68.678  1.00  0.00    -0.147 C  
HETATM    4  C   UNL     1      -8.249   9.012  68.021  1.00  0.00    -0.110 C  
HETATM    5  CA  UNL     1      -8.063  10.365  67.951  1.00  0.00    -0.102 C  
HETATM    6  CA  UNL     1     -10.861  12.258  68.382  1.00  0.00    -0.230 C  
HETATM    7  C   UNL     1      -9.384  12.514  67.948  1.00  0.00    -0.200 C  
HETATM    8  N   UNL     1      -9.019  11.265  68.341  1.00  0.00    -0.162 N  
HETATM    9  C   UNL     1      -6.760  10.895  67.411  1.00  0.00    -0.078 C  
HETATM   10  O   UNL     1      -8.856  13.354  67.259  1.00  0.00    -0.201 OA 
HETATM   11  O   UNL     1      -6.802  12.001  66.642  1.00  0.00    -0.025 OA 
HETATM   12  OXT UNL     1      -5.689  10.366  67.665  1.00  0.00    -0.044 OA 
ENDROOT
BRANCH   4  13
HETATM   13  C   UNL     1      -7.241   8.046  67.328  1.00  0.00    -0.087 C  
BRANCH  13  14
HETATM   14  S   UNL     1      -7.847   6.660  66.284  1.00  0.00    -0.108 SA 
BRANCH  14  15
HETATM   15  C   UNL     1      -7.438   5.158  67.148  1.00  0.00    -0.087 C  
HETATM   16  N   UNL     1      -7.753   5.147  68.395  1.00  0.00    -0.079 N  
HETATM   17  H   UNL     1      -8.302   5.898  68.815  1.00  0.00     0.000 HD 
HETATM   18  C   UNL     1      -6.193   4.201  65.138  1.00  0.00    -0.027 C  
HETATM   19  C   UNL     1      -7.314   4.071  69.139  1.00  0.00    -0.054 C  
HETATM   20  N   UNL     1      -6.728   4.151  66.487  1.00  0.00    -0.049 NA 
HETATM   21  C   UNL     1      -6.876   2.770  68.469  1.00  0.00    -0.047 C  
HETATM   22  O   UNL     1      -7.138   4.118  70.356  1.00  0.00    -0.040 OA 
HETATM   23  H   UNL     1      -5.786   2.275  66.773  1.00  0.00     0.000 HD 
HETATM   24  N   UNL     1      -6.392   2.974  67.203  1.00  0.00    -0.035 N  
HETATM   25  O   UNL     1      -6.902   1.678  69.015  1.00  0.00    -0.032 OA 
ENDBRANCH  14  15
ENDBRANCH  13  14
ENDBRANCH   4  13
BRANCH   6  26
HETATM   26  N   UNL     1     -11.825  12.371  67.193  1.00  0.00    -0.348 N  
HETATM   27  O   UNL     1     -13.100  13.214  65.504  1.00  0.00    -0.522 OA 
HETATM   28  C   UNL     1     -12.241  13.422  66.359  1.00  0.00    -0.376 C  
HETATM   29  H   UNL     1     -12.263  11.482  66.954  1.00  0.00     0.000 HD 
BRANCH  28  30
HETATM   30  C   UNL     1     -11.544  14.756  66.332  1.00  0.00    -0.299 C  
BRANCH  30  31
HETATM   31  C   UNL     1     -11.183  15.532  67.525  1.00  0.00    -0.272 A  
HETATM   32  H2  UNL     1     -10.511  16.186  71.700  1.00  0.00     0.000 HD 
HETATM   33  C   UNL     1     -10.106  16.405  67.523  1.00  0.00    -0.261 A  
HETATM   34  H1  UNL     1     -11.877  15.110  71.407  1.00  0.00     0.000 HD 
HETATM   35  N   UNL     1     -11.646  15.213  68.812  1.00  0.00    -0.333 NA 
HETATM   36  N   UNL     1     -11.125  15.698  71.048  1.00  0.00    -0.346 NA 
HETATM   37  S   UNL     1      -9.669  16.827  69.122  1.00  0.00    -0.153 SA 
HETATM   38  C   UNL     1     -10.937  15.836  69.727  1.00  0.00    -0.316 A  
ENDBRANCH  30  31
BRANCH  30  39
HETATM   39  N   UNL     1     -11.395  15.455  65.257  1.00  0.00    -0.288 NA 
HETATM   40  H   UNL     1     -11.956  16.297  65.132  1.00  0.00     0.000 HD 
BRANCH  39  41
HETATM   41  O   UNL     1     -10.487  15.094  64.260  1.00  0.00     0.191 OA 
HETATM   42  C   UNL     1     -10.346  13.759  63.816  1.00  0.00     1.396 C  
ENDBRANCH  39  41
ENDBRANCH  30  39
ENDBRANCH  28  30
ENDBRANCH   6  26
TORSDOF 8
ENDMDL
MODEL      332
REMARK 921   NORMALIZED FREE ENERGY PREDICTED BY IDOCK:   -2.38 KCAL/MOL
REMARK 922        TOTAL FREE ENERGY PREDICTED BY IDOCK:   -4.75 KCAL/MOL
REMARK 923 INTER-LIGAND FREE ENERGY PREDICTED BY IDOCK:   -4.37 KCAL/MOL
REMARK 924 INTRA-LIGAND FREE ENERGY PREDICTED BY IDOCK:   -0.38 KCAL/MOL
REMARK 927      BINDING AFFINITY PREDICTED BY RF-SCORE:    0.00 PKD
ROOT
HETATM    1  C   UNL     1      -9.788   6.932  69.214  1.00  0.00    -0.157 C  
HETATM    2  S   UNL     1      -9.479   7.603  70.825  1.00  0.00    -0.161 SA 
HETATM    3  C   UNL     1      -8.226   8.906  70.531  1.00  0.00    -0.145 C  
HETATM    4  C   UNL     1      -7.791   9.208  69.125  1.00  0.00    -0.092 C  
HETATM    5  CA  UNL     1      -8.245   8.541  68.020  1.00  0.00    -0.120 C  
HETATM    6  CA  UNL     1      -9.605   5.475  68.607  1.00  0.00    -0.135 C  
HETATM    7  C   UNL     1      -9.192   6.302  67.349  1.00  0.00    -0.116 C  
HETATM    8  N   UNL     1      -9.031   7.424  68.101  1.00  0.00    -0.130 N  
HETATM    9  C   UNL     1      -7.856   9.046  66.655  1.00  0.00    -0.100 C  
HETATM   10  O   UNL     1      -8.851   5.997  66.232  1.00  0.00    -0.132 OA 
HETATM   11  O   UNL     1      -7.592   8.133  65.700  1.00  0.00    -0.078 OA 
HETATM   12  OXT UNL     1      -7.797  10.238  66.395  1.00  0.00    -0.111 OA 
ENDROOT
BRANCH   4  13
HETATM   13  C   UNL     1      -6.696  10.308  68.982  1.00  0.00    -0.055 C  
BRANCH  13  14
HETATM   14  S   UNL     1      -7.026  12.028  69.535  1.00  0.00     0.179 SA 
BRANCH  14  15
HETATM   15  C   UNL     1      -8.163  12.732  68.360  1.00  0.00    -0.128 C  
HETATM   16  N   UNL     1      -9.256  12.071  68.202  1.00  0.00    -0.191 N  
HETATM   17  H   UNL     1      -9.492  11.277  68.797  1.00  0.00     0.000 HD 
HETATM   18  C   UNL     1      -6.493  14.517  67.633  1.00  0.00    -0.132 C  
HETATM   19  C   UNL     1     -10.094  12.489  67.189  1.00  0.00    -0.214 C  
HETATM   20  N   UNL     1      -7.785  13.855  67.618  1.00  0.00    -0.169 NA 
HETATM   21  C   UNL     1      -9.974  13.887  66.586  1.00  0.00    -0.279 C  
HETATM   22  O   UNL     1     -10.905  11.747  66.633  1.00  0.00    -0.251 OA 
HETATM   23  H   UNL     1      -8.404  15.133  66.047  1.00  0.00     0.000 HD 
HETATM   24  N   UNL     1      -8.698  14.382  66.670  1.00  0.00    -0.163 N  
HETATM   25  O   UNL     1     -10.894  14.478  66.042  1.00  0.00    -0.297 OA 
ENDBRANCH  14  15
ENDBRANCH  13  14
ENDBRANCH   4  13
BRANCH   6  26
HETATM   26  N   UNL     1      -8.636   4.312  68.859  1.00  0.00    -0.082 N  
HETATM   27  O   UNL     1      -7.463   2.374  68.622  1.00  0.00    -0.047 OA 
HETATM   28  C   UNL     1      -8.231   3.190  68.116  1.00  0.00    -0.077 C  
HETATM   29  H   UNL     1      -8.184   4.364  69.771  1.00  0.00     0.000 HD 
BRANCH  28  30
HETATM   30  C   UNL     1      -8.540   3.036  66.652  1.00  0.00    -0.117 C  
BRANCH  30  31
HETATM   31  C   UNL     1      -7.529   2.938  65.591  1.00  0.00    -0.073 A  
HETATM   32  H2  UNL     1      -6.074   2.128  61.650  1.00  0.00     0.000 HD 
HETATM   33  C   UNL     1      -6.558   3.912  65.423  1.00  0.00    -0.040 A  
HETATM   34  H1  UNL     1      -7.329   0.990  62.142  1.00  0.00     0.000 HD 
HETATM   35  N   UNL     1      -7.664   2.081  64.486  1.00  0.00    -0.064 NA 
HETATM   36  N   UNL     1      -6.735   1.792  62.351  1.00  0.00    -0.013 NA 
HETATM   37  S   UNL     1      -5.813   3.763  63.891  1.00  0.00    -0.014 SA 
HETATM   38  C   UNL     1      -6.814   2.410  63.539  1.00  0.00    -0.032 A  
ENDBRANCH  30  31
BRANCH  30  39
HETATM   39  N   UNL     1      -9.722   3.199  66.157  1.00  0.00    -0.402 NA 
HETATM   40  H   UNL     1     -10.496   3.414  66.785  1.00  0.00     0.000 HD 
BRANCH  39  41
HETATM   41  O   UNL     1      -9.973   3.089  64.789  1.00  0.00    -0.086 OA 
HETATM   42  C   UNL     1     -10.899   3.924  64.122  1.00  0.00    -0.149 C  
ENDBRANCH  39  41
ENDBRANCH  30  39
ENDBRANCH  28  30
ENDBRANCH   6  26
TORSDOF 8
ENDMDL
MODEL      333
REMARK 921   NORMALIZED FREE ENERGY PREDICTED BY IDOCK:   -2.37 KCAL/MOL
REMARK 922        TOTAL FREE ENERGY PREDICTED BY IDOCK:   -4.74 KCAL/MOL
REMARK 923 INTER-LIGAND FREE ENERGY PREDICTED BY IDOCK:   -4.63 KCAL/MOL
REMARK 924 INTRA-LIGAND FREE ENERGY PREDICTED BY IDOCK:   -0.10 KCAL/MOL
REMARK 927      BINDING AFFINITY PREDICTED BY RF-SCORE:    0.00 PKD
ROOT
HETATM    1  C   UNL     1      -8.740  11.616  68.185  1.00  0.00    -0.159 C  
HETATM    2  S   UNL     1      -7.107  11.684  68.868  1.00  0.00    -0.110 SA 
HETATM    3  C   UNL     1      -6.221  10.310  68.045  1.00  0.00    -0.056 C  
HETATM    4  C   UNL     1      -6.924   9.508  66.987  1.00  0.00    -0.085 C  
HETATM    5  CA  UNL     1      -8.223   9.708  66.606  1.00  0.00    -0.120 C  
HETATM    6  CA  UNL     1     -10.168  11.385  68.842  1.00  0.00    -0.168 C  
HETATM    7  C   UNL     1     -10.400  10.606  67.510  1.00  0.00    -0.214 C  
HETATM    8  N   UNL     1      -9.064  10.565  67.265  1.00  0.00    -0.143 N  
HETATM    9  C   UNL     1      -8.761   8.947  65.423  1.00  0.00    -0.191 C  
HETATM   10  O   UNL     1     -11.345  10.011  67.052  1.00  0.00    -0.062 OA 
HETATM   11  O   UNL     1     -10.035   8.511  65.482  1.00  0.00     0.278 OA 
HETATM   12  OXT UNL     1      -8.089   8.740  64.424  1.00  0.00    -0.139 OA 
ENDROOT
BRANCH   4  13
HETATM   13  C   UNL     1      -6.099   8.338  66.369  1.00  0.00    -0.049 C  
BRANCH  13  14
HETATM   14  S   UNL     1      -6.138   6.667  67.132  1.00  0.00    -0.029 SA 
BRANCH  14  15
HETATM   15  C   UNL     1      -7.679   5.921  66.643  1.00  0.00    -0.100 C  
HETATM   16  N   UNL     1      -8.686   6.221  67.386  1.00  0.00    -0.106 N  
HETATM   17  H   UNL     1      -8.617   6.925  68.121  1.00  0.00     0.000 HD 
HETATM   18  C   UNL     1      -6.558   4.497  64.848  1.00  0.00    -0.044 C  
HETATM   19  C   UNL     1      -9.862   5.543  67.142  1.00  0.00    -0.154 C  
HETATM   20  N   UNL     1      -7.699   5.001  65.590  1.00  0.00    -0.086 NA 
HETATM   21  C   UNL     1     -10.103   4.821  65.817  1.00  0.00    -0.214 C  
HETATM   22  O   UNL     1     -10.736   5.378  67.994  1.00  0.00    -0.140 OA 
HETATM   23  H   UNL     1      -8.954   3.654  64.542  1.00  0.00     0.000 HD 
HETATM   24  N   UNL     1      -8.934   4.402  65.235  1.00  0.00    -0.134 N  
HETATM   25  O   UNL     1     -11.209   4.595  65.354  1.00  0.00    -0.136 OA 
ENDBRANCH  14  15
ENDBRANCH  13  14
ENDBRANCH   4  13
BRANCH   6  26
HETATM   26  N   UNL     1     -10.688  10.598  70.053  1.00  0.00    -0.448 N  
HETATM   27  O   UNL     1     -10.881   9.063  71.725  1.00  0.00    -0.334 OA 
HETATM   28  C   UNL     1     -10.186   9.540  70.829  1.00  0.00    -0.293 C  
HETATM   29  H   UNL     1     -11.607  10.914  70.364  1.00  0.00     0.000 HD 
BRANCH  28  30
HETATM   30  C   UNL     1      -8.754   9.086  70.746  1.00  0.00    -0.224 C  
BRANCH  30  31
HETATM   31  C   UNL     1      -8.294   7.720  71.026  1.00  0.00    -0.114 A  
HETATM   32  H2  UNL     1      -5.781   4.284  70.598  1.00  0.00     0.000 HD 
HETATM   33  C   UNL     1      -8.242   7.223  72.318  1.00  0.00    -0.101 A  
HETATM   34  H1  UNL     1      -6.045   5.109  69.062  1.00  0.00     0.000 HD 
HETATM   35  N   UNL     1      -7.566   6.956  70.099  1.00  0.00    -0.097 NA 
HETATM   36  N   UNL     1      -6.214   5.038  70.065  1.00  0.00    -0.025 NA 
HETATM   37  S   UNL     1      -7.286   5.807  72.382  1.00  0.00    -0.096 SA 
HETATM   38  C   UNL     1      -7.002   5.926  70.690  1.00  0.00    -0.062 A  
ENDBRANCH  30  31
BRANCH  30  39
HETATM   39  N   UNL     1      -7.758   9.901  70.637  1.00  0.00    -0.396 NA 
HETATM   40  H   UNL     1      -7.652  10.441  69.779  1.00  0.00     0.000 HD 
BRANCH  39  41
HETATM   41  O   UNL     1      -6.822  10.066  71.659  1.00  0.00    -0.011 OA 
HETATM   42  C   UNL     1      -5.516   9.529  71.580  1.00  0.00    -0.073 C  
ENDBRANCH  39  41
ENDBRANCH  30  39
ENDBRANCH  28  30
ENDBRANCH   6  26
TORSDOF 8
ENDMDL
MODEL      334
REMARK 921   NORMALIZED FREE ENERGY PREDICTED BY IDOCK:   -2.37 KCAL/MOL
REMARK 922        TOTAL FREE ENERGY PREDICTED BY IDOCK:   -4.74 KCAL/MOL
REMARK 923 INTER-LIGAND FREE ENERGY PREDICTED BY IDOCK:   -4.92 KCAL/MOL
REMARK 924 INTRA-LIGAND FREE ENERGY PREDICTED BY IDOCK:    0.19 KCAL/MOL
REMARK 927      BINDING AFFINITY PREDICTED BY RF-SCORE:    0.00 PKD
ROOT
HETATM    1  C   UNL     1      -9.983   8.195  69.088  1.00  0.00    -0.192 C  
HETATM    2  S   UNL     1      -8.789   7.889  67.815  1.00  0.00    -0.121 SA 
HETATM    3  C   UNL     1      -7.192   7.823  68.708  1.00  0.00    -0.081 C  
HETATM    4  C   UNL     1      -7.179   7.938  70.206  1.00  0.00    -0.057 C  
HETATM    5  CA  UNL     1      -8.296   8.129  70.972  1.00  0.00    -0.120 C  
HETATM    6  CA  UNL     1     -11.004   9.387  69.335  1.00  0.00    -0.145 C  
HETATM    7  C   UNL     1     -10.617   9.104  70.820  1.00  0.00    -0.260 C  
HETATM    8  N   UNL     1      -9.527   8.389  70.433  1.00  0.00    -0.166 N  
HETATM    9  C   UNL     1      -8.170   8.065  72.472  1.00  0.00    -0.146 C  
HETATM   10  O   UNL     1     -10.962   9.585  71.873  1.00  0.00    -0.261 OA 
HETATM   11  O   UNL     1      -8.904   8.928  73.201  1.00  0.00    -0.214 OA 
HETATM   12  OXT UNL     1      -7.449   7.252  73.029  1.00  0.00    -0.072 OA 
ENDROOT
BRANCH   4  13
HETATM   13  C   UNL     1      -5.769   7.906  70.871  1.00  0.00    -0.033 C  
BRANCH  13  14
HETATM   14  S   UNL     1      -5.127   9.376  71.766  1.00  0.00    -0.065 SA 
BRANCH  14  15
HETATM   15  C   UNL     1      -5.470  10.787  70.737  1.00  0.00    -0.112 C  
HETATM   16  N   UNL     1      -5.599  10.525  69.484  1.00  0.00    -0.038 N  
HETATM   17  H   UNL     1      -5.622   9.566  69.137  1.00  0.00     0.000 HD 
HETATM   18  C   UNL     1      -5.149  12.423  72.668  1.00  0.00     0.288 C  
HETATM   19  C   UNL     1      -5.707  11.604  68.631  1.00  0.00    -0.045 C  
HETATM   20  N   UNL     1      -5.473  12.068  71.298  1.00  0.00    -0.372 NA 
HETATM   21  C   UNL     1      -6.095  12.989  69.147  1.00  0.00    -0.095 C  
HETATM   22  O   UNL     1      -5.395  11.558  67.440  1.00  0.00    -0.049 OA 
HETATM   23  H   UNL     1      -5.628  14.126  70.819  1.00  0.00     0.000 HD 
HETATM   24  N   UNL     1      -5.724  13.179  70.453  1.00  0.00    -0.160 N  
HETATM   25  O   UNL     1      -6.626  13.848  68.462  1.00  0.00    -0.084 OA 
ENDBRANCH  14  15
ENDBRANCH  13  14
ENDBRANCH   4  13
BRANCH   6  26
HETATM   26  N   UNL     1     -11.007  10.891  69.031  1.00  0.00    -0.217 N  
HETATM   27  O   UNL     1     -11.618  13.083  68.921  1.00  0.00    -0.269 OA 
HETATM   28  C   UNL     1     -11.842  11.965  69.382  1.00  0.00    -0.327 C  
HETATM   29  H   UNL     1     -10.227  11.176  68.440  1.00  0.00     0.000 HD 
BRANCH  28  30
HETATM   30  C   UNL     1     -12.891  11.855  70.455  1.00  0.00     0.103 C  
BRANCH  30  31
HETATM   31  C   UNL     1     -13.223  12.920  71.410  1.00  0.00    -0.176 A  
HETATM   32  H2  UNL     1     -12.482  15.669  74.604  1.00  0.00     0.000 HD 
HETATM   33  C   UNL     1     -13.962  14.029  71.029  1.00  0.00     0.197 A  
HETATM   34  H1  UNL     1     -11.667  14.125  74.853  1.00  0.00     0.000 HD 
HETATM   35  N   UNL     1     -12.557  13.082  72.635  1.00  0.00     0.238 NA 
HETATM   36  N   UNL     1     -12.274  14.720  74.291  1.00  0.00    -0.456 NA 
HETATM   37  S   UNL     1     -13.826  15.273  72.195  1.00  0.00    -0.567 SA 
HETATM   38  C   UNL     1     -12.802  14.269  73.143  1.00  0.00    -0.296 A  
ENDBRANCH  30  31
BRANCH  30  39
HETATM   39  N   UNL     1     -13.448  10.738  70.790  1.00  0.00     0.155 NA 
HETATM   40  H   UNL     1     -13.896  10.174  70.069  1.00  0.00     0.000 HD 
BRANCH  39  41
HETATM   41  O   UNL     1     -13.454  10.280  72.108  1.00  0.00    -0.401 OA 
HETATM   42  C   UNL     1     -14.138   9.104  72.495  1.00  0.00    -0.311 C  
ENDBRANCH  39  41
ENDBRANCH  30  39
ENDBRANCH  28  30
ENDBRANCH   6  26
TORSDOF 8
ENDMDL
MODEL      335
REMARK 921   NORMALIZED FREE ENERGY PREDICTED BY IDOCK:   -1.41 KCAL/MOL
REMARK 922        TOTAL FREE ENERGY PREDICTED BY IDOCK:   -3.33 KCAL/MOL
REMARK 923 INTER-LIGAND FREE ENERGY PREDICTED BY IDOCK:   -2.78 KCAL/MOL
REMARK 924 INTRA-LIGAND FREE ENERGY PREDICTED BY IDOCK:   -0.55 KCAL/MOL
REMARK 927      BINDING AFFINITY PREDICTED BY RF-SCORE:    0.00 PKD
ROOT
HETATM    1  C   UNL     1      -8.329  10.836  68.229  1.00  0.00    -0.125 C  
HETATM    2  S   UNL     1      -6.753  11.583  67.917  1.00  0.00    -0.069 SA 
HETATM    3  C   UNL     1      -5.977  10.485  66.674  1.00  0.00    -0.071 C  
HETATM    4  C   UNL     1      -6.756   9.322  66.128  1.00  0.00    -0.074 C  
HETATM    5  CA  UNL     1      -8.023   8.990  66.526  1.00  0.00    -0.103 C  
HETATM    6  CA  UNL     1      -8.989  10.237  69.544  1.00  0.00    -0.157 C  
HETATM    7  C   UNL     1      -9.560   9.213  68.513  1.00  0.00    -0.148 C  
HETATM    8  N   UNL     1      -8.651   9.599  67.579  1.00  0.00    -0.125 N  
HETATM    9  C   UNL     1      -8.757   7.902  65.787  1.00  0.00    -0.135 C  
HETATM   10  O   UNL     1     -10.292   8.258  68.612  1.00  0.00    -0.206 OA 
HETATM   11  O   UNL     1      -9.531   7.066  66.507  1.00  0.00    -0.167 OA 
HETATM   12  OXT UNL     1      -8.683   7.776  64.575  1.00  0.00     0.137 OA 
ENDROOT
BRANCH   4  13
HETATM   13  C   UNL     1      -5.999   8.427  65.101  1.00  0.00    -0.045 C  
BRANCH  13  14
HETATM   14  S   UNL     1      -5.288   6.814  65.618  1.00  0.00    -0.026 SA 
BRANCH  14  15
HETATM   15  C   UNL     1      -6.157   5.558  64.703  1.00  0.00    -0.022 C  
HETATM   16  N   UNL     1      -6.786   4.699  65.426  1.00  0.00    -0.059 N  
HETATM   17  H   UNL     1      -6.872   4.810  66.436  1.00  0.00     0.000 HD 
HETATM   18  C   UNL     1      -5.185   6.338  62.478  1.00  0.00    -0.022 C  
HETATM   19  C   UNL     1      -7.340   3.620  64.768  1.00  0.00    -0.068 C  
HETATM   20  N   UNL     1      -6.031   5.504  63.312  1.00  0.00    -0.020 NA 
HETATM   21  C   UNL     1      -7.589   3.652  63.261  1.00  0.00    -0.059 C  
HETATM   22  O   UNL     1      -7.564   2.539  65.313  1.00  0.00    -0.073 OA 
HETATM   23  H   UNL     1      -6.552   4.358  61.608  1.00  0.00     0.000 HD 
HETATM   24  N   UNL     1      -6.713   4.480  62.607  1.00  0.00    -0.030 N  
HETATM   25  O   UNL     1      -8.433   2.977  62.694  1.00  0.00    -0.074 OA 
ENDBRANCH  14  15
ENDBRANCH  13  14
ENDBRANCH   4  13
BRANCH   6  26
HETATM   26  N   UNL     1      -8.456   9.533  70.800  1.00  0.00    -0.176 N  
HETATM   27  O   UNL     1      -7.644   7.951  72.222  1.00  0.00    -0.084 OA 
HETATM   28  C   UNL     1      -7.941   8.254  71.068  1.00  0.00    -0.101 C  
HETATM   29  H   UNL     1      -8.481  10.130  71.626  1.00  0.00     0.000 HD 
BRANCH  28  30
HETATM   30  C   UNL     1      -7.552   7.295  69.976  1.00  0.00    -0.090 C  
BRANCH  30  31
HETATM   31  C   UNL     1      -7.836   5.854  69.991  1.00  0.00    -0.100 A  
HETATM   32  H2  UNL     1      -8.813   2.052  68.290  1.00  0.00     0.000 HD 
HETATM   33  C   UNL     1      -7.097   4.978  70.770  1.00  0.00    -0.056 A  
HETATM   34  H1  UNL     1      -9.660   3.376  67.489  1.00  0.00     0.000 HD 
HETATM   35  N   UNL     1      -8.602   5.218  69.001  1.00  0.00    -0.094 NA 
HETATM   36  N   UNL     1      -9.017   3.048  68.210  1.00  0.00    -0.126 NA 
HETATM   37  S   UNL     1      -7.355   3.363  70.270  1.00  0.00    -0.041 SA 
HETATM   38  C   UNL     1      -8.438   3.915  69.055  1.00  0.00    -0.077 A  
ENDBRANCH  30  31
BRANCH  30  39
HETATM   39  N   UNL     1      -6.735   7.600  69.024  1.00  0.00    -0.048 NA 
HETATM   40  H   UNL     1      -7.041   7.496  68.057  1.00  0.00     0.000 HD 
BRANCH  39  41
HETATM   41  O   UNL     1      -5.445   8.069  69.277  1.00  0.00    -0.029 OA 
HETATM   42  C   UNL     1      -5.161   8.961  70.337  1.00  0.00    -0.021 C  
ENDBRANCH  39  41
ENDBRANCH  30  39
ENDBRANCH  28  30
ENDBRANCH   6  26
TORSDOF 8
ENDMDL
MODEL      336
REMARK 921   NORMALIZED FREE ENERGY PREDICTED BY IDOCK:   -1.30 KCAL/MOL
REMARK 922        TOTAL FREE ENERGY PREDICTED BY IDOCK:   -3.17 KCAL/MOL
REMARK 923 INTER-LIGAND FREE ENERGY PREDICTED BY IDOCK:   -3.13 KCAL/MOL
REMARK 924 INTRA-LIGAND FREE ENERGY PREDICTED BY IDOCK:   -0.04 KCAL/MOL
REMARK 927      BINDING AFFINITY PREDICTED BY RF-SCORE:    0.00 PKD
ROOT
HETATM    1  C   UNL     1      -9.480   4.713  64.982  1.00  0.00    -0.121 C  
HETATM    2  S   UNL     1      -9.579   2.977  64.640  1.00  0.00    -0.106 SA 
HETATM    3  C   UNL     1      -8.862   2.188  66.129  1.00  0.00    -0.122 C  
HETATM    4  C   UNL     1      -8.442   3.046  67.289  1.00  0.00    -0.103 C  
HETATM    5  CA  UNL     1      -8.524   4.412  67.304  1.00  0.00    -0.104 C  
HETATM    6  CA  UNL     1      -8.729   5.907  64.252  1.00  0.00     0.230 C  
HETATM    7  C   UNL     1      -8.533   6.379  65.727  1.00  0.00    -0.148 C  
HETATM    8  N   UNL     1      -8.856   5.146  66.198  1.00  0.00    -0.128 N  
HETATM    9  C   UNL     1      -8.224   5.145  68.586  1.00  0.00    -0.085 C  
HETATM   10  O   UNL     1      -8.006   7.345  66.225  1.00  0.00    -0.102 OA 
HETATM   11  O   UNL     1      -7.563   6.316  68.500  1.00  0.00    -0.089 OA 
HETATM   12  OXT UNL     1      -8.578   4.720  69.675  1.00  0.00    -0.081 OA 
ENDROOT
BRANCH   4  13
HETATM   13  C   UNL     1      -7.811   2.286  68.495  1.00  0.00    -0.053 C  
BRANCH  13  14
HETATM   14  S   UNL     1      -8.866   1.693  69.877  1.00  0.00    -0.070 SA 
BRANCH  14  15
HETATM   15  C   UNL     1      -8.128   2.303  71.378  1.00  0.00    -0.050 C  
HETATM   16  N   UNL     1      -6.854   2.136  71.461  1.00  0.00    -0.026 N  
HETATM   17  H   UNL     1      -6.307   1.791  70.672  1.00  0.00     0.000 HD 
HETATM   18  C   UNL     1     -10.394   2.844  72.414  1.00  0.00    -0.084 C  
HETATM   19  C   UNL     1      -6.264   2.447  72.669  1.00  0.00    -0.009 C  
HETATM   20  N   UNL     1      -8.943   2.810  72.394  1.00  0.00    -0.081 NA 
HETATM   21  C   UNL     1      -6.968   3.341  73.689  1.00  0.00    -0.037 C  
HETATM   22  O   UNL     1      -5.205   1.950  73.051  1.00  0.00     0.000 OA 
HETATM   23  H   UNL     1      -8.914   3.542  74.381  1.00  0.00     0.000 HD 
HETATM   24  N   UNL     1      -8.333   3.267  73.590  1.00  0.00    -0.074 N  
HETATM   25  O   UNL     1      -6.386   4.003  74.533  1.00  0.00    -0.035 OA 
ENDBRANCH  14  15
ENDBRANCH  13  14
ENDBRANCH   4  13
BRANCH   6  26
HETATM   26  N   UNL     1      -7.431   6.036  63.442  1.00  0.00    -0.069 N  
HETATM   27  O   UNL     1      -5.641   6.905  62.334  1.00  0.00    -0.034 OA 
HETATM   28  C   UNL     1      -6.614   7.112  63.057  1.00  0.00    -0.052 C  
HETATM   29  H   UNL     1      -7.083   5.137  63.109  1.00  0.00     0.000 HD 
BRANCH  28  30
HETATM   30  C   UNL     1      -6.760   8.489  63.646  1.00  0.00    -0.084 C  
BRANCH  30  31
HETATM   31  C   UNL     1      -7.934   9.352  63.467  1.00  0.00    -0.141 A  
HETATM   32  H2  UNL     1     -10.951  12.137  64.672  1.00  0.00     0.000 HD 
HETATM   33  C   UNL     1      -8.093  10.132  62.333  1.00  0.00    -0.143 A  
HETATM   34  H1  UNL     1     -10.567  10.979  65.947  1.00  0.00     0.000 HD 
HETATM   35  N   UNL     1      -8.778   9.722  64.527  1.00  0.00    -0.182 NA 
HETATM   36  N   UNL     1     -10.421  11.329  65.000  1.00  0.00    -0.290 NA 
HETATM   37  S   UNL     1      -9.292  11.326  62.585  1.00  0.00    -0.148 SA 
HETATM   38  C   UNL     1      -9.538  10.736  64.181  1.00  0.00    -0.284 A  
ENDBRANCH  30  31
BRANCH  30  39
HETATM   39  N   UNL     1      -5.780   9.137  64.182  1.00  0.00    -0.069 NA 
HETATM   40  H   UNL     1      -4.856   9.080  63.753  1.00  0.00     0.000 HD 
BRANCH  39  41
HETATM   41  O   UNL     1      -5.946   9.915  65.328  1.00  0.00    -0.071 OA 
HETATM   42  C   UNL     1      -5.168  11.069  65.577  1.00  0.00    -0.084 C  
ENDBRANCH  39  41
ENDBRANCH  30  39
ENDBRANCH  28  30
ENDBRANCH   6  26
TORSDOF 8
ENDMDL
MODEL      337
REMARK 921   NORMALIZED FREE ENERGY PREDICTED BY IDOCK:   -0.88 KCAL/MOL
REMARK 922        TOTAL FREE ENERGY PREDICTED BY IDOCK:   -2.55 KCAL/MOL
REMARK 923 INTER-LIGAND FREE ENERGY PREDICTED BY IDOCK:   -2.48 KCAL/MOL
REMARK 924 INTRA-LIGAND FREE ENERGY PREDICTED BY IDOCK:   -0.07 KCAL/MOL
REMARK 927      BINDING AFFINITY PREDICTED BY RF-SCORE:    0.00 PKD
ROOT
HETATM    1  C   UNL     1      -9.942   4.562  64.844  1.00  0.00    -0.056 C  
HETATM    2  S   UNL     1      -9.906   2.838  64.435  1.00  0.00    -0.033 SA 
HETATM    3  C   UNL     1      -9.143   2.049  65.901  1.00  0.00    -0.053 C  
HETATM    4  C   UNL     1      -8.799   2.891  67.097  1.00  0.00    -0.163 C  
HETATM    5  CA  UNL     1      -8.984   4.245  67.163  1.00  0.00    -0.123 C  
HETATM    6  CA  UNL     1      -9.278   5.837  64.167  1.00  0.00     0.781 C  
HETATM    7  C   UNL     1      -9.130   6.265  65.661  1.00  0.00     0.041 C  
HETATM    8  N   UNL     1      -9.363   4.994  66.081  1.00  0.00    -0.146 N  
HETATM    9  C   UNL     1      -8.752   4.949  68.474  1.00  0.00    -0.097 C  
HETATM   10  O   UNL     1      -8.683   7.248  66.200  1.00  0.00    -0.145 OA 
HETATM   11  O   UNL     1      -8.181   6.169  68.440  1.00  0.00    -0.113 OA 
HETATM   12  OXT UNL     1      -9.080   4.457  69.543  1.00  0.00    -0.096 OA 
ENDROOT
BRANCH   4  13
HETATM   13  C   UNL     1      -8.122   2.135  68.280  1.00  0.00    -0.057 C  
BRANCH  13  14
HETATM   14  S   UNL     1      -9.130   1.494  69.676  1.00  0.00    -0.098 SA 
BRANCH  14  15
HETATM   15  C   UNL     1      -8.355   2.073  71.170  1.00  0.00    -0.050 C  
HETATM   16  N   UNL     1      -7.071   1.980  71.185  1.00  0.00    -0.032 N  
HETATM   17  H   UNL     1      -6.545   1.708  70.355  1.00  0.00     0.000 HD 
HETATM   18  C   UNL     1     -10.595   2.424  72.338  1.00  0.00     0.023 C  
HETATM   19  C   UNL     1      -6.442   2.266  72.379  1.00  0.00    -0.014 C  
HETATM   20  N   UNL     1      -9.147   2.479  72.248  1.00  0.00    -0.081 NA 
HETATM   21  C   UNL     1      -7.144   3.063  73.476  1.00  0.00    -0.041 C  
HETATM   22  O   UNL     1      -5.337   1.815  72.685  1.00  0.00     0.000 OA 
HETATM   23  H   UNL     1      -9.063   3.112  74.268  1.00  0.00     0.000 HD 
HETATM   24  N   UNL     1      -8.507   2.912  73.437  1.00  0.00    -0.072 N  
HETATM   25  O   UNL     1      -6.561   3.717  74.326  1.00  0.00    -0.037 OA 
ENDBRANCH  14  15
ENDBRANCH  13  14
ENDBRANCH   4  13
BRANCH   6  26
HETATM   26  N   UNL     1      -7.987   6.095  63.377  1.00  0.00    -0.140 N  
HETATM   27  O   UNL     1      -6.245   7.138  62.347  1.00  0.00    -0.047 OA 
HETATM   28  C   UNL     1      -7.229   7.238  63.077  1.00  0.00    -0.078 C  
HETATM   29  H   UNL     1      -7.590   5.243  62.981  1.00  0.00     0.000 HD 
BRANCH  28  30
HETATM   30  C   UNL     1      -7.451   8.558  63.765  1.00  0.00    -0.118 C  
BRANCH  30  31
HETATM   31  C   UNL     1      -6.539   9.146  64.756  1.00  0.00    -0.074 A  
HETATM   32  H2  UNL     1      -5.240  12.034  67.633  1.00  0.00     0.000 HD 
HETATM   33  C   UNL     1      -5.886   8.363  65.693  1.00  0.00    -0.044 A  
HETATM   34  H1  UNL     1      -6.095  12.780  66.282  1.00  0.00     0.000 HD 
HETATM   35  N   UNL     1      -6.525  10.517  65.059  1.00  0.00    -0.078 NA 
HETATM   36  N   UNL     1      -5.727  11.946  66.740  1.00  0.00    -0.254 NA 
HETATM   37  S   UNL     1      -5.254   9.331  66.953  1.00  0.00    -0.035 SA 
HETATM   38  C   UNL     1      -5.875  10.736  66.180  1.00  0.00    -0.133 A  
ENDBRANCH  30  31
BRANCH  30  39
HETATM   39  N   UNL     1      -8.570   9.200  63.722  1.00  0.00    -0.311 NA 
HETATM   40  H   UNL     1      -9.136   9.266  64.568  1.00  0.00     0.000 HD 
BRANCH  39  41
HETATM   41  O   UNL     1      -9.031   9.807  62.553  1.00  0.00    -0.230 OA 
HETATM   42  C   UNL     1      -9.283  11.196  62.472  1.00  0.00    -0.276 C  
ENDBRANCH  39  41
ENDBRANCH  30  39
ENDBRANCH  28  30
ENDBRANCH   6  26
TORSDOF 8
ENDMDL
MODEL      338
REMARK 921   NORMALIZED FREE ENERGY PREDICTED BY IDOCK:   -0.72 KCAL/MOL
REMARK 922        TOTAL FREE ENERGY PREDICTED BY IDOCK:   -2.32 KCAL/MOL
REMARK 923 INTER-LIGAND FREE ENERGY PREDICTED BY IDOCK:   -3.90 KCAL/MOL
REMARK 924 INTRA-LIGAND FREE ENERGY PREDICTED BY IDOCK:    1.57 KCAL/MOL
REMARK 927      BINDING AFFINITY PREDICTED BY RF-SCORE:    0.00 PKD
ROOT
HETATM    1  C   UNL     1      -9.312   5.673  66.035  1.00  0.00    -0.134 C  
HETATM    2  S   UNL     1     -10.004   4.044  65.948  1.00  0.00    -0.076 SA 
HETATM    3  C   UNL     1      -9.335   3.196  67.427  1.00  0.00    -0.191 C  
HETATM    4  C   UNL     1      -8.484   3.966  68.397  1.00  0.00    -0.107 C  
HETATM    5  CA  UNL     1      -8.131   5.278  68.237  1.00  0.00    -0.094 C  
HETATM    6  CA  UNL     1      -8.355   6.484  65.060  1.00  0.00    -0.075 C  
HETATM    7  C   UNL     1      -7.783   6.992  66.420  1.00  0.00    -0.104 C  
HETATM    8  N   UNL     1      -8.394   5.981  67.091  1.00  0.00    -0.106 N  
HETATM    9  C   UNL     1      -7.411   5.981  69.358  1.00  0.00    -0.088 C  
HETATM   10  O   UNL     1      -6.906   7.770  66.711  1.00  0.00    -0.067 OA 
HETATM   11  O   UNL     1      -6.441   6.856  69.030  1.00  0.00    -0.034 OA 
HETATM   12  OXT UNL     1      -7.696   5.793  70.531  1.00  0.00    -0.094 OA 
ENDROOT
BRANCH   4  13
HETATM   13  C   UNL     1      -7.934   3.149  69.605  1.00  0.00    -0.048 C  
BRANCH  13  14
HETATM   14  S   UNL     1      -9.086   2.311  70.765  1.00  0.00    -0.111 SA 
BRANCH  14  15
HETATM   15  C   UNL     1      -9.486   3.498  72.029  1.00  0.00    -0.132 C  
HETATM   16  N   UNL     1      -8.587   4.396  72.234  1.00  0.00    -0.111 N  
HETATM   17  H   UNL     1      -7.769   4.480  71.631  1.00  0.00     0.000 HD 
HETATM   18  C   UNL     1     -11.602   2.243  72.706  1.00  0.00     0.549 C  
HETATM   19  C   UNL     1      -8.782   5.238  73.310  1.00  0.00    -0.115 C  
HETATM   20  N   UNL     1     -10.656   3.342  72.780  1.00  0.00    -0.126 NA 
HETATM   21  C   UNL     1     -10.161   5.405  73.946  1.00  0.00    -0.215 C  
HETATM   22  O   UNL     1      -7.863   5.815  73.892  1.00  0.00    -0.100 OA 
HETATM   23  H   UNL     1     -11.731   4.134  74.425  1.00  0.00     0.000 HD 
HETATM   24  N   UNL     1     -10.941   4.287  73.798  1.00  0.00    -0.270 N  
HETATM   25  O   UNL     1     -10.512   6.397  74.564  1.00  0.00    -0.274 OA 
ENDBRANCH  14  15
ENDBRANCH  13  14
ENDBRANCH   4  13
BRANCH   6  26
HETATM   26  N   UNL     1      -7.234   6.107  64.082  1.00  0.00    -0.054 N  
HETATM   27  O   UNL     1      -5.699   6.192  62.401  1.00  0.00    -0.021 OA 
HETATM   28  C   UNL     1      -6.525   6.795  63.084  1.00  0.00    -0.043 C  
HETATM   29  H   UNL     1      -6.935   5.136  64.180  1.00  0.00     0.000 HD 
BRANCH  28  30
HETATM   30  C   UNL     1      -6.587   8.292  62.936  1.00  0.00    -0.086 C  
BRANCH  30  31
HETATM   31  C   UNL     1      -7.805   9.096  63.099  1.00  0.00    -0.132 A  
HETATM   32  H2  UNL     1     -10.945  11.025  65.273  1.00  0.00     0.000 HD 
HETATM   33  C   UNL     1      -8.015  10.250  62.362  1.00  0.00    -0.147 A  
HETATM   34  H1  UNL     1     -10.490   9.480  65.992  1.00  0.00     0.000 HD 
HETATM   35  N   UNL     1      -8.655   8.975  64.210  1.00  0.00    -0.178 NA 
HETATM   36  N   UNL     1     -10.372  10.181  65.261  1.00  0.00    -0.195 NA 
HETATM   37  S   UNL     1      -9.270  11.186  63.052  1.00  0.00    -0.302 SA 
HETATM   38  C   UNL     1      -9.470  10.004  64.284  1.00  0.00    -0.273 A  
ENDBRANCH  30  31
BRANCH  30  39
HETATM   39  N   UNL     1      -5.628   8.994  62.432  1.00  0.00    -0.086 NA 
HETATM   40  H   UNL     1      -5.017   8.569  61.734  1.00  0.00     0.000 HD 
BRANCH  39  41
HETATM   41  O   UNL     1      -5.400  10.317  62.813  1.00  0.00    -0.100 OA 
HETATM   42  C   UNL     1      -5.158  10.683  64.158  1.00  0.00    -0.156 C  
ENDBRANCH  39  41
ENDBRANCH  30  39
ENDBRANCH  28  30
ENDBRANCH   6  26
TORSDOF 8
ENDMDL
MODEL      339
REMARK 921   NORMALIZED FREE ENERGY PREDICTED BY IDOCK:   -0.67 KCAL/MOL
REMARK 922        TOTAL FREE ENERGY PREDICTED BY IDOCK:   -2.25 KCAL/MOL
REMARK 923 INTER-LIGAND FREE ENERGY PREDICTED BY IDOCK:   -2.46 KCAL/MOL
REMARK 924 INTRA-LIGAND FREE ENERGY PREDICTED BY IDOCK:    0.21 KCAL/MOL
REMARK 927      BINDING AFFINITY PREDICTED BY RF-SCORE:    0.00 PKD
ROOT
HETATM    1  C   UNL     1      -7.152   9.330  70.978  1.00  0.00    -0.078 C  
HETATM    2  S   UNL     1      -7.966   8.316  72.181  1.00  0.00    -0.134 SA 
HETATM    3  C   UNL     1      -7.956   6.643  71.434  1.00  0.00    -0.107 C  
HETATM    4  C   UNL     1      -7.260   6.427  70.120  1.00  0.00    -0.084 C  
HETATM    5  CA  UNL     1      -6.648   7.417  69.402  1.00  0.00    -0.037 C  
HETATM    6  CA  UNL     1      -7.632  10.592  70.141  1.00  0.00     0.356 C  
HETATM    7  C   UNL     1      -6.750   9.912  69.047  1.00  0.00    -0.053 C  
HETATM    8  N   UNL     1      -6.741   8.741  69.738  1.00  0.00    -0.045 N  
HETATM    9  C   UNL     1      -5.846   7.044  68.183  1.00  0.00    -0.022 C  
HETATM   10  O   UNL     1      -6.463  10.207  67.912  1.00  0.00    -0.061 OA 
HETATM   11  O   UNL     1      -5.905   7.865  67.116  1.00  0.00    -0.039 OA 
HETATM   12  OXT UNL     1      -5.144   6.045  68.148  1.00  0.00    -0.003 OA 
ENDROOT
BRANCH   4  13
HETATM   13  C   UNL     1      -7.336   4.978  69.550  1.00  0.00    -0.057 C  
BRANCH  13  14
HETATM   14  S   UNL     1      -8.713   4.485  68.438  1.00  0.00    -0.103 SA 
BRANCH  14  15
HETATM   15  C   UNL     1      -7.967   3.752  66.998  1.00  0.00    -0.091 C  
HETATM   16  N   UNL     1      -7.954   4.503  65.953  1.00  0.00    -0.098 N  
HETATM   17  H   UNL     1      -8.242   5.481  65.993  1.00  0.00     0.000 HD 
HETATM   18  C   UNL     1      -7.713   1.484  68.137  1.00  0.00    -0.050 C  
HETATM   19  C   UNL     1      -7.532   3.922  64.775  1.00  0.00    -0.076 C  
HETATM   20  N   UNL     1      -7.548   2.419  67.039  1.00  0.00    -0.065 NA 
HETATM   21  C   UNL     1      -6.716   2.630  64.775  1.00  0.00    -0.039 C  
HETATM   22  O   UNL     1      -7.868   4.328  63.662  1.00  0.00    -0.079 OA 
HETATM   23  H   UNL     1      -6.765   0.853  65.846  1.00  0.00     0.000 HD 
HETATM   24  N   UNL     1      -6.979   1.849  65.871  1.00  0.00    -0.038 N  
HETATM   25  O   UNL     1      -5.957   2.302  63.878  1.00  0.00    -0.012 OA 
ENDBRANCH  14  15
ENDBRANCH  13  14
ENDBRANCH   4  13
BRANCH   6  26
HETATM   26  N   UNL     1      -8.975  11.065  69.567  1.00  0.00    -0.347 N  
HETATM   27  O   UNL     1     -10.621  12.370  68.688  1.00  0.00    -0.226 OA 
HETATM   28  C   UNL     1      -9.439  12.269  69.012  1.00  0.00     0.365 C  
HETATM   29  H   UNL     1      -9.693  10.341  69.596  1.00  0.00     0.000 HD 
BRANCH  28  30
HETATM   30  C   UNL     1      -8.512  13.385  68.613  1.00  0.00     0.001 C  
BRANCH  30  31
HETATM   31  C   UNL     1      -8.769  14.334  67.522  1.00  0.00    -0.199 A  
HETATM   32  H2  UNL     1     -10.871  15.934  64.156  1.00  0.00     0.000 HD 
HETATM   33  C   UNL     1      -8.628  15.701  67.702  1.00  0.00    -0.167 A  
HETATM   34  H1  UNL     1     -10.867  14.170  64.160  1.00  0.00     0.000 HD 
HETATM   35  N   UNL     1      -9.488  13.990  66.366  1.00  0.00    -0.279 NA 
HETATM   36  N   UNL     1     -10.590  15.053  64.588  1.00  0.00    -0.272 NA 
HETATM   37  S   UNL     1      -9.391  16.557  66.434  1.00  0.00    -0.306 SA 
HETATM   38  C   UNL     1      -9.859  15.068  65.713  1.00  0.00    -0.353 A  
ENDBRANCH  30  31
BRANCH  30  39
HETATM   39  N   UNL     1      -7.297  13.484  69.041  1.00  0.00    -0.267 NA 
HETATM   40  H   UNL     1      -7.119  13.981  69.914  1.00  0.00     0.000 HD 
BRANCH  39  41
HETATM   41  O   UNL     1      -6.221  12.931  68.347  1.00  0.00    -0.068 OA 
HETATM   42  C   UNL     1      -6.016  13.160  66.966  1.00  0.00     0.677 C  
ENDBRANCH  39  41
ENDBRANCH  30  39
ENDBRANCH  28  30
ENDBRANCH   6  26
TORSDOF 8
ENDMDL
MODEL      340
REMARK 921   NORMALIZED FREE ENERGY PREDICTED BY IDOCK:    1.17 KCAL/MOL
REMARK 922        TOTAL FREE ENERGY PREDICTED BY IDOCK:    0.46 KCAL/MOL
REMARK 923 INTER-LIGAND FREE ENERGY PREDICTED BY IDOCK:   -2.55 KCAL/MOL
REMARK 924 INTRA-LIGAND FREE ENERGY PREDICTED BY IDOCK:    3.01 KCAL/MOL
REMARK 927      BINDING AFFINITY PREDICTED BY RF-SCORE:    0.00 PKD
ROOT
HETATM    1  C   UNL     1     -10.068   8.208  68.549  1.00  0.00    -0.200 C  
HETATM    2  S   UNL     1      -9.109   7.691  67.152  1.00  0.00    -0.131 SA 
HETATM    3  C   UNL     1      -7.471   7.282  67.863  1.00  0.00    -0.102 C  
HETATM    4  C   UNL     1      -7.272   7.362  69.350  1.00  0.00    -0.083 C  
HETATM    5  CA  UNL     1      -8.236   7.762  70.235  1.00  0.00    -0.125 C  
HETATM    6  CA  UNL     1     -10.791   9.577  68.904  1.00  0.00    -0.150 C  
HETATM    7  C   UNL     1     -10.311   9.192  70.338  1.00  0.00    -0.223 C  
HETATM    8  N   UNL     1      -9.440   8.278  69.835  1.00  0.00    -0.166 N  
HETATM    9  C   UNL     1      -7.964   7.643  71.711  1.00  0.00    -0.095 C  
HETATM   10  O   UNL     1     -10.433   9.712  71.421  1.00  0.00    -0.272 OA 
HETATM   11  O   UNL     1      -8.421   8.622  72.516  1.00  0.00    -0.364 OA 
HETATM   12  OXT UNL     1      -7.369   6.689  72.188  1.00  0.00    -0.087 OA 
ENDROOT
BRANCH   4  13
HETATM   13  C   UNL     1      -5.835   7.030  69.855  1.00  0.00    -0.023 C  
BRANCH  13  14
HETATM   14  S   UNL     1      -5.159   5.330  69.686  1.00  0.00    -0.004 SA 
BRANCH  14  15
HETATM   15  C   UNL     1      -6.553   4.249  69.446  1.00  0.00    -0.040 C  
HETATM   16  N   UNL     1      -7.593   4.544  70.145  1.00  0.00    -0.053 N  
HETATM   17  H   UNL     1      -7.642   5.401  70.696  1.00  0.00     0.000 HD 
HETATM   18  C   UNL     1      -5.214   2.652  67.975  1.00  0.00    -0.012 C  
HETATM   19  C   UNL     1      -8.639   3.645  70.112  1.00  0.00    -0.061 C  
HETATM   20  N   UNL     1      -6.422   3.121  68.632  1.00  0.00    -0.029 NA 
HETATM   21  C   UNL     1      -8.759   2.607  68.998  1.00  0.00    -0.084 C  
HETATM   22  O   UNL     1      -9.469   3.540  71.016  1.00  0.00    -0.132 OA 
HETATM   23  H   UNL     1      -7.434   1.380  67.973  1.00  0.00     0.000 HD 
HETATM   24  N   UNL     1      -7.539   2.261  68.476  1.00  0.00    -0.050 N  
HETATM   25  O   UNL     1      -9.812   2.101  68.646  1.00  0.00    -0.010 OA 
ENDBRANCH  14  15
ENDBRANCH  13  14
ENDBRANCH   4  13
BRANCH   6  26
HETATM   26  N   UNL     1     -10.519  11.057  68.598  1.00  0.00    -0.183 N  
HETATM   27  O   UNL     1     -10.745  13.317  68.435  1.00  0.00    -0.242 OA 
HETATM   28  C   UNL     1     -11.188  12.260  68.879  1.00  0.00    -0.273 C  
HETATM   29  H   UNL     1      -9.657  11.199  68.071  1.00  0.00     0.000 HD 
BRANCH  28  30
HETATM   30  C   UNL     1     -12.322  12.342  69.864  1.00  0.00    -0.052 C  
BRANCH  30  31
HETATM   31  C   UNL     1     -12.700  13.553  70.603  1.00  0.00    -0.205 A  
HETATM   32  H2  UNL     1     -12.075  17.399  72.372  1.00  0.00     0.000 HD 
HETATM   33  C   UNL     1     -13.915  14.184  70.389  1.00  0.00     1.324 A  
HETATM   34  H1  UNL     1     -10.661  16.356  72.532  1.00  0.00     0.000 HD 
HETATM   35  N   UNL     1     -11.769  14.346  71.294  1.00  0.00    -0.224 NA 
HETATM   36  N   UNL     1     -11.619  16.500  72.212  1.00  0.00    -0.321 NA 
HETATM   37  S   UNL     1     -13.900  15.762  71.046  1.00  0.00     0.838 SA 
HETATM   38  C   UNL     1     -12.285  15.519  71.585  1.00  0.00    -0.399 A  
ENDBRANCH  30  31
BRANCH  30  39
HETATM   39  N   UNL     1     -12.936  11.303  70.326  1.00  0.00     0.024 NA 
HETATM   40  H   UNL     1     -13.029  10.479  69.733  1.00  0.00     0.000 HD 
BRANCH  39  41
HETATM   41  O   UNL     1     -13.474  11.274  71.613  1.00  0.00    -0.253 OA 
HETATM   42  C   UNL     1     -13.772  12.454  72.333  1.00  0.00    -0.091 C  
ENDBRANCH  39  41
ENDBRANCH  30  39
ENDBRANCH  28  30
ENDBRANCH   6  26
TORSDOF 8
ENDMDL
MODEL      341
REMARK 921   NORMALIZED FREE ENERGY PREDICTED BY IDOCK:    3.00 KCAL/MOL
REMARK 922        TOTAL FREE ENERGY PREDICTED BY IDOCK:    3.14 KCAL/MOL
REMARK 923 INTER-LIGAND FREE ENERGY PREDICTED BY IDOCK:    1.69 KCAL/MOL
REMARK 924 INTRA-LIGAND FREE ENERGY PREDICTED BY IDOCK:    1.45 KCAL/MOL
REMARK 927      BINDING AFFINITY PREDICTED BY RF-SCORE:    0.00 PKD
ROOT
HETATM    1  C   UNL     1     -12.309  15.563  66.963  1.00  0.00     1.173 C  
HETATM    2  S   UNL     1     -12.550  14.207  65.848  1.00  0.00    -0.314 SA 
HETATM    3  C   UNL     1     -12.545  12.732  66.933  1.00  0.00     0.853 C  
HETATM    4  C   UNL     1     -12.439  12.911  68.421  1.00  0.00     0.486 C  
HETATM    5  CA  UNL     1     -12.306  14.123  69.042  1.00  0.00    -0.110 C  
HETATM    6  CA  UNL     1     -11.169  16.663  67.080  1.00  0.00     0.239 C  
HETATM    7  C   UNL     1     -11.442  16.451  68.602  1.00  0.00    -0.224 C  
HETATM    8  N   UNL     1     -12.101  15.289  68.354  1.00  0.00    -0.153 N  
HETATM    9  C   UNL     1     -12.373  14.182  70.546  1.00  0.00    -0.364 C  
HETATM   10  O   UNL     1     -10.984  16.947  69.603  1.00  0.00    -0.236 OA 
HETATM   11  O   UNL     1     -11.551  15.042  71.178  1.00  0.00    -0.307 OA 
HETATM   12  OXT UNL     1     -13.155  13.498  71.188  1.00  0.00    -0.293 OA 
ENDROOT
BRANCH   4  13
HETATM   13  C   UNL     1     -12.408  11.596  69.257  1.00  0.00    -0.025 C  
BRANCH  13  14
HETATM   14  S   UNL     1     -11.753  10.043  68.526  1.00  0.00     0.622 SA 
BRANCH  14  15
HETATM   15  C   UNL     1     -10.393   9.532  69.556  1.00  0.00    -0.217 C  
HETATM   16  N   UNL     1     -10.640   9.533  70.819  1.00  0.00    -0.295 N  
HETATM   17  H   UNL     1     -11.579   9.698  71.180  1.00  0.00     0.000 HD 
HETATM   18  C   UNL     1      -8.779   9.437  67.583  1.00  0.00    -0.116 C  
HETATM   19  C   UNL     1      -9.573   9.298  71.661  1.00  0.00     0.009 C  
HETATM   20  N   UNL     1      -9.147   9.271  68.978  1.00  0.00    -0.144 NA 
HETATM   21  C   UNL     1      -8.289   8.644  71.153  1.00  0.00    -0.164 C  
HETATM   22  O   UNL     1      -9.533   9.691  72.827  1.00  0.00     1.861 OA 
HETATM   23  H   UNL     1      -7.134   8.797  69.435  1.00  0.00     0.000 HD 
HETATM   24  N   UNL     1      -8.073   8.890  69.821  1.00  0.00    -0.104 N  
HETATM   25  O   UNL     1      -7.515   8.020  71.860  1.00  0.00    -0.071 OA 
ENDBRANCH  14  15
ENDBRANCH  13  14
ENDBRANCH   4  13
BRANCH   6  26
HETATM   26  N   UNL     1      -9.664  16.700  66.778  1.00  0.00    -0.250 N  
HETATM   27  O   UNL     1      -7.486  17.359  66.675  1.00  0.00    -0.204 OA 
HETATM   28  C   UNL     1      -8.609  17.556  67.136  1.00  0.00    -0.225 C  
HETATM   29  H   UNL     1      -9.362  15.930  66.182  1.00  0.00     0.000 HD 
BRANCH  28  30
HETATM   30  C   UNL     1      -8.743  18.595  68.217  1.00  0.00    -0.323 C  
BRANCH  30  31
HETATM   31  C   UNL     1      -7.619  19.161  68.973  1.00  0.00    -0.302 A  
HETATM   32  H2  UNL     1      -5.365  20.124  72.481  1.00  0.00     0.000 HD 
HETATM   33  C   UNL     1      -6.311  19.029  68.535  1.00  0.00    -0.235 A  
HETATM   34  H1  UNL     1      -7.104  20.246  72.753  1.00  0.00     0.000 HD 
HETATM   35  N   UNL     1      -7.725  19.556  70.317  1.00  0.00     0.727 NA 
HETATM   36  N   UNL     1      -6.320  20.055  72.129  1.00  0.00    -0.075 NA 
HETATM   37  S   UNL     1      -5.214  19.393  69.796  1.00  0.00    -0.201 SA 
HETATM   38  C   UNL     1      -6.534  19.715  70.848  1.00  0.00     0.176 A  
ENDBRANCH  30  31
BRANCH  30  39
HETATM   39  N   UNL     1      -9.874  18.929  68.742  1.00  0.00    -0.397 NA 
HETATM   40  H   UNL     1     -10.598  18.218  68.850  1.00  0.00     0.000 HD 
BRANCH  39  41
HETATM   41  O   UNL     1     -10.137  20.232  69.165  1.00  0.00    -0.205 OA 
HETATM   42  C   UNL     1     -10.191  21.322  68.265  1.00  0.00     1.095 C  
ENDBRANCH  39  41
ENDBRANCH  30  39
ENDBRANCH  28  30
ENDBRANCH   6  26
TORSDOF 8
ENDMDL
MODEL      342
REMARK 921   NORMALIZED FREE ENERGY PREDICTED BY IDOCK:    3.22 KCAL/MOL
REMARK 922        TOTAL FREE ENERGY PREDICTED BY IDOCK:    3.46 KCAL/MOL
REMARK 923 INTER-LIGAND FREE ENERGY PREDICTED BY IDOCK:   -0.36 KCAL/MOL
REMARK 924 INTRA-LIGAND FREE ENERGY PREDICTED BY IDOCK:    3.82 KCAL/MOL
REMARK 927      BINDING AFFINITY PREDICTED BY RF-SCORE:    0.00 PKD
ROOT
HETATM    1  C   UNL     1     -10.303  12.872  69.099  1.00  0.00     0.190 C  
HETATM    2  S   UNL     1     -12.023  12.505  68.884  1.00  0.00    -0.157 SA 
HETATM    3  C   UNL     1     -12.075  10.680  68.737  1.00  0.00     0.127 C  
HETATM    4  C   UNL     1     -10.806   9.892  68.895  1.00  0.00    -0.239 C  
HETATM    5  CA  UNL     1      -9.575  10.450  69.110  1.00  0.00    -0.213 C  
HETATM    6  CA  UNL     1      -9.276  13.729  68.243  1.00  0.00    -0.204 C  
HETATM    7  C   UNL     1      -8.308  12.589  68.691  1.00  0.00     0.021 C  
HETATM    8  N   UNL     1      -9.354  11.799  69.051  1.00  0.00     0.106 N  
HETATM    9  C   UNL     1      -8.409   9.546  69.414  1.00  0.00    -0.140 C  
HETATM   10  O   UNL     1      -7.135  12.376  68.501  1.00  0.00    -0.087 OA 
HETATM   11  O   UNL     1      -7.210   9.871  68.891  1.00  0.00    -0.072 OA 
HETATM   12  OXT UNL     1      -8.519   8.559  70.124  1.00  0.00    -0.118 OA 
ENDROOT
BRANCH   4  13
HETATM   13  C   UNL     1     -10.946   8.349  68.718  1.00  0.00     0.177 C  
BRANCH  13  14
HETATM   14  S   UNL     1      -9.917   7.455  67.487  1.00  0.00    -0.191 SA 
BRANCH  14  15
HETATM   15  C   UNL     1      -9.318   8.678  66.340  1.00  0.00    -0.211 C  
HETATM   16  N   UNL     1      -9.555   9.898  66.677  1.00  0.00    -0.175 N  
HETATM   17  H   UNL     1      -9.947  10.135  67.588  1.00  0.00     0.000 HD 
HETATM   18  C   UNL     1      -8.627   6.914  64.633  1.00  0.00     0.268 C  
HETATM   19  C   UNL     1      -9.252  10.870  65.746  1.00  0.00    -0.201 C  
HETATM   20  N   UNL     1      -8.744   8.272  65.132  1.00  0.00    -0.110 NA 
HETATM   21  C   UNL     1      -8.299  10.588  64.586  1.00  0.00    -0.114 C  
HETATM   22  O   UNL     1      -9.801  11.972  65.717  1.00  0.00    -0.236 OA 
HETATM   23  H   UNL     1      -7.972   8.995  63.296  1.00  0.00     0.000 HD 
HETATM   24  N   UNL     1      -8.297   9.266  64.224  1.00  0.00    -0.167 N  
HETATM   25  O   UNL     1      -7.653  11.448  64.009  1.00  0.00     1.037 OA 
ENDBRANCH  14  15
ENDBRANCH  13  14
ENDBRANCH   4  13
BRANCH   6  26
HETATM   26  N   UNL     1      -9.113  14.051  66.750  1.00  0.00    -0.325 N  
HETATM   27  O   UNL     1      -8.770  15.167  64.795  1.00  0.00     2.674 OA 
HETATM   28  C   UNL     1      -8.752  15.197  66.024  1.00  0.00     0.236 C  
HETATM   29  H   UNL     1      -9.313  13.251  66.150  1.00  0.00     0.000 HD 
BRANCH  28  30
HETATM   30  C   UNL     1      -8.152  16.412  66.680  1.00  0.00    -0.286 C  
BRANCH  30  31
HETATM   31  C   UNL     1      -7.394  16.393  67.937  1.00  0.00    -0.133 A  
HETATM   32  H2  UNL     1      -4.451  14.970  70.698  1.00  0.00     0.000 HD 
HETATM   33  C   UNL     1      -6.952  17.563  68.535  1.00  0.00    -0.214 A  
HETATM   34  H1  UNL     1      -5.214  13.655  69.802  1.00  0.00     0.000 HD 
HETATM   35  N   UNL     1      -6.770  15.237  68.433  1.00  0.00    -0.108 NA 
HETATM   36  N   UNL     1      -5.129  14.651  70.005  1.00  0.00    -0.093 NA 
HETATM   37  S   UNL     1      -5.760  17.224  69.713  1.00  0.00    -0.234 SA 
HETATM   38  C   UNL     1      -5.903  15.545  69.371  1.00  0.00    -0.115 A  
ENDBRANCH  30  31
BRANCH  30  39
HETATM   39  N   UNL     1      -8.434  17.621  66.322  1.00  0.00    -0.436 NA 
HETATM   40  H   UNL     1      -7.746  18.151  65.787  1.00  0.00     0.000 HD 
BRANCH  39  41
HETATM   41  O   UNL     1      -9.649  18.224  66.646  1.00  0.00    -0.292 OA 
HETATM   42  C   UNL     1      -9.745  19.264  67.600  1.00  0.00    -0.328 C  
ENDBRANCH  39  41
ENDBRANCH  30  39
ENDBRANCH  28  30
ENDBRANCH   6  26
TORSDOF 8
ENDMDL
MODEL      343
REMARK 921   NORMALIZED FREE ENERGY PREDICTED BY IDOCK:    3.67 KCAL/MOL
REMARK 922        TOTAL FREE ENERGY PREDICTED BY IDOCK:    4.12 KCAL/MOL
REMARK 923 INTER-LIGAND FREE ENERGY PREDICTED BY IDOCK:    5.63 KCAL/MOL
REMARK 924 INTRA-LIGAND FREE ENERGY PREDICTED BY IDOCK:   -1.51 KCAL/MOL
REMARK 927      BINDING AFFINITY PREDICTED BY RF-SCORE:    0.00 PKD
ROOT
HETATM    1  C   UNL     1     -12.259   8.328  69.204  1.00  0.00     2.686 C  
HETATM    2  S   UNL     1     -12.311   8.806  70.909  1.00  0.00     0.022 SA 
HETATM    3  C   UNL     1     -12.050  10.619  70.872  1.00  0.00    -0.385 C  
HETATM    4  C   UNL     1     -11.939  11.321  69.548  1.00  0.00    -0.421 C  
HETATM    5  CA  UNL     1     -11.982  10.688  68.336  1.00  0.00     0.187 C  
HETATM    6  CA  UNL     1     -11.303   7.352  68.394  1.00  0.00     0.534 C  
HETATM    7  C   UNL     1     -11.504   8.441  67.295  1.00  0.00     1.781 C  
HETATM    8  N   UNL     1     -11.979   9.324  68.212  1.00  0.00     1.962 N  
HETATM    9  C   UNL     1     -12.024  11.520  67.081  1.00  0.00     0.313 C  
HETATM   10  O   UNL     1     -11.106   8.558  66.161  1.00  0.00     1.324 OA 
HETATM   11  O   UNL     1     -11.331  11.080  66.013  1.00  0.00    -0.043 OA 
HETATM   12  OXT UNL     1     -12.673  12.552  67.007  1.00  0.00     0.295 OA 
ENDROOT
BRANCH   4  13
HETATM   13  C   UNL     1     -11.684  12.857  69.621  1.00  0.00    -0.299 C  
BRANCH  13  14
HETATM   14  S   UNL     1      -9.998  13.506  69.954  1.00  0.00     1.980 SA 
BRANCH  14  15
HETATM   15  C   UNL     1      -9.613  14.626  68.624  1.00  0.00    -0.219 C  
HETATM   16  N   UNL     1     -10.601  14.906  67.849  1.00  0.00    -0.250 N  
HETATM   17  H   UNL     1     -11.551  14.601  68.062  1.00  0.00     0.000 HD 
HETATM   18  C   UNL     1      -7.120  14.602  69.166  1.00  0.00    -0.135 C  
HETATM   19  C   UNL     1     -10.314  15.641  66.717  1.00  0.00    -0.287 C  
HETATM   20  N   UNL     1      -8.292  15.041  68.429  1.00  0.00    -0.147 NA 
HETATM   21  C   UNL     1      -9.023  16.448  66.601  1.00  0.00    -0.258 C  
HETATM   22  O   UNL     1     -11.006  15.609  65.698  1.00  0.00    -0.323 OA 
HETATM   23  H   UNL     1      -7.038  16.144  67.126  1.00  0.00     0.000 HD 
HETATM   24  N   UNL     1      -8.006  15.913  67.348  1.00  0.00    -0.148 N  
HETATM   25  O   UNL     1      -8.892  17.427  65.883  1.00  0.00    -0.526 OA 
ENDBRANCH  14  15
ENDBRANCH  13  14
ENDBRANCH   4  13
BRANCH   6  26
HETATM   26  N   UNL     1      -9.830   6.935  68.511  1.00  0.00    -0.142 N  
HETATM   27  O   UNL     1      -7.789   6.391  69.362  1.00  0.00    -0.101 OA 
HETATM   28  C   UNL     1      -8.972   6.642  69.584  1.00  0.00    -0.142 C  
HETATM   29  H   UNL     1      -9.371   6.852  67.605  1.00  0.00     0.000 HD 
BRANCH  28  30
HETATM   30  C   UNL     1      -9.476   6.430  70.986  1.00  0.00    -0.171 C  
BRANCH  30  31
HETATM   31  C   UNL     1      -8.775   6.868  72.200  1.00  0.00    -0.127 A  
HETATM   32  H2  UNL     1      -5.625   6.883  75.096  1.00  0.00     0.000 HD 
HETATM   33  C   UNL     1      -8.690   8.207  72.545  1.00  0.00    -0.203 A  
HETATM   34  H1  UNL     1      -5.970   5.260  74.497  1.00  0.00     0.000 HD 
HETATM   35  N   UNL     1      -7.868   6.050  72.893  1.00  0.00    -0.106 NA 
HETATM   36  N   UNL     1      -6.170   6.260  74.500  1.00  0.00    -0.069 NA 
HETATM   37  S   UNL     1      -7.483   8.449  73.731  1.00  0.00    -0.045 SA 
HETATM   38  C   UNL     1      -7.144   6.763  73.727  1.00  0.00    -0.078 A  
ENDBRANCH  30  31
BRANCH  30  39
HETATM   39  N   UNL     1     -10.462   5.647  71.273  1.00  0.00    -0.227 NA 
HETATM   40  H   UNL     1     -10.718   4.911  70.615  1.00  0.00     0.000 HD 
BRANCH  39  41
HETATM   41  O   UNL     1     -11.189   5.777  72.457  1.00  0.00    -0.267 OA 
HETATM   42  C   UNL     1     -11.089   4.838  73.511  1.00  0.00    -0.335 C  
ENDBRANCH  39  41
ENDBRANCH  30  39
ENDBRANCH  28  30
ENDBRANCH   6  26
TORSDOF 8
ENDMDL
MODEL      344
REMARK 921   NORMALIZED FREE ENERGY PREDICTED BY IDOCK:    3.68 KCAL/MOL
REMARK 922        TOTAL FREE ENERGY PREDICTED BY IDOCK:    4.14 KCAL/MOL
REMARK 923 INTER-LIGAND FREE ENERGY PREDICTED BY IDOCK:    5.32 KCAL/MOL
REMARK 924 INTRA-LIGAND FREE ENERGY PREDICTED BY IDOCK:   -1.18 KCAL/MOL
REMARK 927      BINDING AFFINITY PREDICTED BY RF-SCORE:    0.00 PKD
ROOT
HETATM    1  C   UNL     1      -8.652  18.166  65.951  1.00  0.00     0.182 C  
HETATM    2  S   UNL     1      -7.455  16.925  65.541  1.00  0.00     2.028 SA 
HETATM    3  C   UNL     1      -7.914  15.498  66.594  1.00  0.00    -0.099 C  
HETATM    4  C   UNL     1      -9.140  15.584  67.459  1.00  0.00    -0.198 C  
HETATM    5  CA  UNL     1      -9.940  16.690  67.551  1.00  0.00    -0.264 C  
HETATM    6  CA  UNL     1      -8.516  19.623  66.570  1.00  0.00    -0.345 C  
HETATM    7  C   UNL     1      -9.839  19.195  67.278  1.00  0.00    -0.334 C  
HETATM    8  N   UNL     1      -9.616  17.889  66.975  1.00  0.00    -0.276 N  
HETATM    9  C   UNL     1     -11.228  16.594  68.326  1.00  0.00    -0.220 C  
HETATM   10  O   UNL     1     -10.585  19.752  68.047  1.00  0.00    -0.418 OA 
HETATM   11  O   UNL     1     -11.600  17.661  69.061  1.00  0.00     1.210 OA 
HETATM   12  OXT UNL     1     -11.937  15.600  68.288  1.00  0.00    -0.246 OA 
ENDROOT
BRANCH   4  13
HETATM   13  C   UNL     1      -9.428  14.333  68.343  1.00  0.00    -0.213 C  
BRANCH  13  14
HETATM   14  S   UNL     1     -10.539  13.001  67.739  1.00  0.00    -0.230 SA 
BRANCH  14  15
HETATM   15  C   UNL     1     -10.273  11.597  68.801  1.00  0.00    -0.177 C  
HETATM   16  N   UNL     1      -9.322  10.811  68.433  1.00  0.00    -0.160 N  
HETATM   17  H   UNL     1      -8.701  11.050  67.660  1.00  0.00     0.000 HD 
HETATM   18  C   UNL     1     -12.331  12.124  70.213  1.00  0.00    -0.191 C  
HETATM   19  C   UNL     1      -9.185   9.631  69.133  1.00  0.00    -0.168 C  
HETATM   20  N   UNL     1     -11.139  11.367  69.874  1.00  0.00    -0.139 NA 
HETATM   21  C   UNL     1      -9.804   9.452  70.518  1.00  0.00    -0.270 C  
HETATM   22  O   UNL     1      -8.663   8.621  68.659  1.00  0.00    -0.136 OA 
HETATM   23  H   UNL     1     -11.601   9.985  71.412  1.00  0.00     0.000 HD 
HETATM   24  N   UNL     1     -10.922  10.228  70.691  1.00  0.00    -0.285 N  
HETATM   25  O   UNL     1      -9.388   8.671  71.357  1.00  0.00    -0.190 OA 
ENDBRANCH  14  15
ENDBRANCH  13  14
ENDBRANCH   4  13
BRANCH   6  26
HETATM   26  N   UNL     1      -7.545  20.297  67.550  1.00  0.00    -0.296 N  
HETATM   27  O   UNL     1      -6.371  20.815  69.431  1.00  0.00    -0.193 OA 
HETATM   28  C   UNL     1      -7.141  20.038  68.870  1.00  0.00    -0.229 C  
HETATM   29  H   UNL     1      -7.091  21.119  67.152  1.00  0.00     0.000 HD 
BRANCH  28  30
HETATM   30  C   UNL     1      -7.455  18.744  69.571  1.00  0.00     0.162 C  
BRANCH  30  31
HETATM   31  C   UNL     1      -6.597  17.553  69.547  1.00  0.00    -0.160 A  
HETATM   32  H2  UNL     1      -5.676  13.396  69.980  1.00  0.00     0.000 HD 
HETATM   33  C   UNL     1      -5.680  17.340  68.530  1.00  0.00    -0.150 A  
HETATM   34  H1  UNL     1      -6.826  13.953  71.197  1.00  0.00     0.000 HD 
HETATM   35  N   UNL     1      -6.861  16.406  70.314  1.00  0.00     0.539 NA 
HETATM   36  N   UNL     1      -6.227  14.148  70.394  1.00  0.00    -0.169 NA 
HETATM   37  S   UNL     1      -5.148  15.715  68.527  1.00  0.00    -0.099 SA 
HETATM   38  C   UNL     1      -6.157  15.385  69.879  1.00  0.00    -0.152 A  
ENDBRANCH  30  31
BRANCH  30  39
HETATM   39  N   UNL     1      -8.612  18.476  70.079  1.00  0.00     1.497 NA 
HETATM   40  H   UNL     1      -9.178  17.739  69.658  1.00  0.00     0.000 HD 
BRANCH  39  41
HETATM   41  O   UNL     1      -9.112  19.163  71.185  1.00  0.00     3.279 OA 
HETATM   42  C   UNL     1     -10.303  19.923  71.127  1.00  0.00     2.430 C  
ENDBRANCH  39  41
ENDBRANCH  30  39
ENDBRANCH  28  30
ENDBRANCH   6  26
TORSDOF 8
ENDMDL
MODEL      345
REMARK 921   NORMALIZED FREE ENERGY PREDICTED BY IDOCK:    5.26 KCAL/MOL
REMARK 922        TOTAL FREE ENERGY PREDICTED BY IDOCK:    6.46 KCAL/MOL
REMARK 923 INTER-LIGAND FREE ENERGY PREDICTED BY IDOCK:    3.05 KCAL/MOL
REMARK 924 INTRA-LIGAND FREE ENERGY PREDICTED BY IDOCK:    3.41 KCAL/MOL
REMARK 927      BINDING AFFINITY PREDICTED BY RF-SCORE:    0.00 PKD
ROOT
HETATM    1  C   UNL     1      -9.580   6.518  71.046  1.00  0.00    -0.175 C  
HETATM    2  S   UNL     1      -8.841   6.740  72.641  1.00  0.00    -0.121 SA 
HETATM    3  C   UNL     1      -7.606   8.067  72.379  1.00  0.00    -0.112 C  
HETATM    4  C   UNL     1      -7.504   8.724  71.032  1.00  0.00    -0.105 C  
HETATM    5  CA  UNL     1      -8.259   8.374  69.946  1.00  0.00    -0.122 C  
HETATM    6  CA  UNL     1      -9.655   5.270  70.065  1.00  0.00    -0.174 C  
HETATM    7  C   UNL     1      -9.501   6.395  68.995  1.00  0.00    -0.129 C  
HETATM    8  N   UNL     1      -9.082   7.279  69.939  1.00  0.00    -0.142 N  
HETATM    9  C   UNL     1      -8.178   9.217  68.701  1.00  0.00    -0.114 C  
HETATM   10  O   UNL     1      -9.463   6.392  67.788  1.00  0.00    -0.118 OA 
HETATM   11  O   UNL     1      -8.220   8.585  67.511  1.00  0.00    -0.115 OA 
HETATM   12  OXT UNL     1      -8.098  10.434  68.744  1.00  0.00    -0.109 OA 
ENDROOT
BRANCH   4  13
HETATM   13  C   UNL     1      -6.400   9.816  70.898  1.00  0.00    -0.073 C  
BRANCH  13  14
HETATM   14  S   UNL     1      -6.646  11.484  71.629  1.00  0.00     4.017 SA 
BRANCH  14  15
HETATM   15  C   UNL     1      -6.711  12.630  70.268  1.00  0.00     0.721 C  
HETATM   16  N   UNL     1      -7.321  12.194  69.221  1.00  0.00    -0.330 N  
HETATM   17  H   UNL     1      -7.826  11.308  69.227  1.00  0.00     0.000 HD 
HETATM   18  C   UNL     1      -5.184  14.300  71.445  1.00  0.00    -0.160 C  
HETATM   19  C   UNL     1      -7.258  12.983  68.091  1.00  0.00    -0.116 C  
HETATM   20  N   UNL     1      -6.035  13.850  70.357  1.00  0.00    -0.157 NA 
HETATM   21  C   UNL     1      -6.887  14.463  68.176  1.00  0.00    -0.123 C  
HETATM   22  O   UNL     1      -7.381  12.539  66.949  1.00  0.00    -0.038 OA 
HETATM   23  H   UNL     1      -5.510  15.581  69.254  1.00  0.00     0.000 HD 
HETATM   24  N   UNL     1      -6.081  14.736  69.251  1.00  0.00    -0.102 N  
HETATM   25  O   UNL     1      -7.224  15.299  67.353  1.00  0.00    -0.185 OA 
ENDBRANCH  14  15
ENDBRANCH  13  14
ENDBRANCH   4  13
BRANCH   6  26
HETATM   26  N   UNL     1      -8.741   4.075  69.761  1.00  0.00    -0.071 N  
HETATM   27  O   UNL     1      -7.756   2.304  68.721  1.00  0.00    -0.049 OA 
HETATM   28  C   UNL     1      -8.537   3.251  68.642  1.00  0.00    -0.088 C  
HETATM   29  H   UNL     1      -8.147   3.822  70.550  1.00  0.00     0.000 HD 
BRANCH  28  30
HETATM   30  C   UNL     1      -9.086   3.586  67.282  1.00  0.00    -0.170 C  
BRANCH  30  31
HETATM   31  C   UNL     1      -8.342   3.445  66.024  1.00  0.00    -0.103 A  
HETATM   32  H2  UNL     1      -4.912   3.655  63.474  1.00  0.00     0.000 HD 
HETATM   33  C   UNL     1      -8.511   2.344  65.201  1.00  0.00    -0.099 A  
HETATM   34  H1  UNL     1      -4.964   4.988  64.629  1.00  0.00     0.000 HD 
HETATM   35  N   UNL     1      -7.190   4.194  65.731  1.00  0.00    -0.070 NA 
HETATM   36  N   UNL     1      -5.380   4.142  64.239  1.00  0.00    -0.012 NA 
HETATM   37  S   UNL     1      -7.238   2.238  64.064  1.00  0.00    -0.057 SA 
HETATM   38  C   UNL     1      -6.538   3.664  64.721  1.00  0.00    -0.039 A  
ENDBRANCH  30  31
BRANCH  30  39
HETATM   39  N   UNL     1     -10.185   4.241  67.103  1.00  0.00    -0.155 NA 
HETATM   40  H   UNL     1     -10.427   4.989  67.753  1.00  0.00     0.000 HD 
BRANCH  39  41
HETATM   41  O   UNL     1     -11.053   3.956  66.048  1.00  0.00     1.252 OA 
HETATM   42  C   UNL     1     -11.320   4.888  65.018  1.00  0.00     0.797 C  
ENDBRANCH  39  41
ENDBRANCH  30  39
ENDBRANCH  28  30
ENDBRANCH   6  26
TORSDOF 8
ENDMDL
MODEL      346
REMARK 921   NORMALIZED FREE ENERGY PREDICTED BY IDOCK:    6.31 KCAL/MOL
REMARK 922        TOTAL FREE ENERGY PREDICTED BY IDOCK:    8.00 KCAL/MOL
REMARK 923 INTER-LIGAND FREE ENERGY PREDICTED BY IDOCK:    5.64 KCAL/MOL
REMARK 924 INTRA-LIGAND FREE ENERGY PREDICTED BY IDOCK:    2.36 KCAL/MOL
REMARK 927      BINDING AFFINITY PREDICTED BY RF-SCORE:    0.00 PKD
ROOT
HETATM    1  C   UNL     1      -7.174   8.941  68.685  1.00  0.00    -0.072 C  
HETATM    2  S   UNL     1      -5.792   9.930  68.184  1.00  0.00    -0.042 SA 
HETATM    3  C   UNL     1      -6.398  11.651  68.334  1.00  0.00    -0.051 C  
HETATM    4  C   UNL     1      -7.776  11.903  68.877  1.00  0.00    -0.016 C  
HETATM    5  CA  UNL     1      -8.650  10.917  69.245  1.00  0.00     0.020 C  
HETATM    6  CA  UNL     1      -8.033   7.839  67.928  1.00  0.00    -0.125 C  
HETATM    7  C   UNL     1      -9.183   8.503  68.748  1.00  0.00    -0.142 C  
HETATM    8  N   UNL     1      -8.410   9.590  69.010  1.00  0.00    -0.121 N  
HETATM    9  C   UNL     1      -9.937  11.302  69.927  1.00  0.00     0.936 C  
HETATM   10  O   UNL     1     -10.367   8.285  68.841  1.00  0.00    -0.214 OA 
HETATM   11  O   UNL     1     -11.046  10.603  69.616  1.00  0.00    -0.245 OA 
HETATM   12  OXT UNL     1      -9.992  12.200  70.753  1.00  0.00     4.579 OA 
ENDROOT
BRANCH   4  13
HETATM   13  C   UNL     1      -8.214  13.398  68.933  1.00  0.00     0.177 C  
BRANCH  13  14
HETATM   14  S   UNL     1      -9.326  14.092  67.646  1.00  0.00    -0.217 SA 
BRANCH  14  15
HETATM   15  C   UNL     1     -10.829  14.567  68.475  1.00  0.00    -0.249 C  
HETATM   16  N   UNL     1     -10.666  15.049  69.657  1.00  0.00    -0.272 N  
HETATM   17  H   UNL     1      -9.738  15.251  70.029  1.00  0.00     0.000 HD 
HETATM   18  C   UNL     1     -12.296  13.594  66.629  1.00  0.00    -0.331 C  
HETATM   19  C   UNL     1     -11.808  15.281  70.396  1.00  0.00    -0.324 C  
HETATM   20  N   UNL     1     -12.063  14.303  67.874  1.00  0.00    -0.319 NA 
HETATM   21  C   UNL     1     -13.177  15.390  69.729  1.00  0.00     0.624 C  
HETATM   22  O   UNL     1     -11.822  15.305  71.627  1.00  0.00    -0.322 OA 
HETATM   23  H   UNL     1     -14.156  14.391  68.195  1.00  0.00     0.000 HD 
HETATM   24  N   UNL     1     -13.247  14.667  68.565  1.00  0.00     2.240 N  
HETATM   25  O   UNL     1     -14.121  16.003  70.201  1.00  0.00     1.119 OA 
ENDBRANCH  14  15
ENDBRANCH  13  14
ENDBRANCH   4  13
BRANCH   6  26
HETATM   26  N   UNL     1      -8.446   7.601  66.469  1.00  0.00    -0.127 N  
HETATM   27  O   UNL     1      -9.144   7.940  64.328  1.00  0.00     0.701 OA 
HETATM   28  C   UNL     1      -8.786   8.438  65.393  1.00  0.00    -0.141 C  
HETATM   29  H   UNL     1      -8.482   6.612  66.225  1.00  0.00     0.000 HD 
BRANCH  28  30
HETATM   30  C   UNL     1      -8.546   9.923  65.419  1.00  0.00    -0.152 C  
BRANCH  30  31
HETATM   31  C   UNL     1      -9.478  10.928  64.891  1.00  0.00    -0.235 A  
HETATM   32  H2  UNL     1     -13.281  12.462  63.669  1.00  0.00     0.000 HD 
HETATM   33  C   UNL     1      -9.403  12.258  65.272  1.00  0.00     0.185 A  
HETATM   34  H1  UNL     1     -13.093  10.754  63.267  1.00  0.00     0.000 HD 
HETATM   35  N   UNL     1     -10.690  10.590  64.266  1.00  0.00     0.115 NA 
HETATM   36  N   UNL     1     -12.714  11.614  63.665  1.00  0.00    -0.327 NA 
HETATM   37  S   UNL     1     -10.838  13.088  64.854  1.00  0.00    -0.342 SA 
HETATM   38  C   UNL     1     -11.477  11.639  64.183  1.00  0.00    -0.280 A  
ENDBRANCH  30  31
BRANCH  30  39
HETATM   39  N   UNL     1      -7.402  10.452  65.703  1.00  0.00    -0.148 NA 
HETATM   40  H   UNL     1      -7.324  11.050  66.525  1.00  0.00     0.000 HD 
BRANCH  39  41
HETATM   41  O   UNL     1      -6.269  10.228  64.920  1.00  0.00    -0.121 OA 
HETATM   42  C   UNL     1      -6.355   9.798  63.575  1.00  0.00    -0.116 C  
ENDBRANCH  39  41
ENDBRANCH  30  39
ENDBRANCH  28  30
ENDBRANCH   6  26
TORSDOF 8
ENDMDL
MODEL      347
REMARK 921   NORMALIZED FREE ENERGY PREDICTED BY IDOCK:   21.24 KCAL/MOL
REMARK 922        TOTAL FREE ENERGY PREDICTED BY IDOCK:   29.91 KCAL/MOL
REMARK 923 INTER-LIGAND FREE ENERGY PREDICTED BY IDOCK:   17.99 KCAL/MOL
REMARK 924 INTRA-LIGAND FREE ENERGY PREDICTED BY IDOCK:   11.93 KCAL/MOL
REMARK 927      BINDING AFFINITY PREDICTED BY RF-SCORE:    0.00 PKD
ROOT
HETATM    1  C   UNL     1     -11.332  11.167  66.460  1.00  0.00     0.044 C  
HETATM    2  S   UNL     1     -12.215  12.667  66.129  1.00  0.00    -0.040 SA 
HETATM    3  C   UNL     1     -11.134  13.980  66.808  1.00  0.00    -0.306 C  
HETATM    4  C   UNL     1      -9.796  13.609  67.384  1.00  0.00    -0.234 C  
HETATM    5  CA  UNL     1      -9.327  12.328  67.475  1.00  0.00    -0.183 C  
HETATM    6  CA  UNL     1     -11.690   9.881  67.321  1.00  0.00     1.898 C  
HETATM    7  C   UNL     1     -10.164   9.954  67.641  1.00  0.00    -0.208 C  
HETATM    8  N   UNL     1     -10.099  11.234  67.187  1.00  0.00    -0.189 N  
HETATM    9  C   UNL     1      -7.906  12.102  67.921  1.00  0.00    -0.147 C  
HETATM   10  O   UNL     1      -9.423   9.272  68.306  1.00  0.00    -0.138 OA 
HETATM   11  O   UNL     1      -7.658  11.045  68.719  1.00  0.00    -0.110 OA 
HETATM   12  OXT UNL     1      -6.991  12.829  67.567  1.00  0.00    -0.130 OA 
ENDROOT
BRANCH   4  13
HETATM   13  C   UNL     1      -8.965  14.791  67.968  1.00  0.00    -0.174 C  
BRANCH  13  14
HETATM   14  S   UNL     1      -8.629  14.892  69.772  1.00  0.00     0.376 SA 
BRANCH  14  15
HETATM   15  C   UNL     1      -9.130  16.519  70.292  1.00  0.00     1.891 C  
HETATM   16  N   UNL     1      -8.334  17.468  69.944  1.00  0.00     1.361 N  
HETATM   17  H   UNL     1      -7.547  17.303  69.317  1.00  0.00     0.000 HD 
HETATM   18  C   UNL     1     -11.071  15.609  71.675  1.00  0.00    -0.140 C  
HETATM   19  C   UNL     1      -8.598  18.721  70.459  1.00  0.00     3.204 C  
HETATM   20  N   UNL     1     -10.255  16.668  71.109  1.00  0.00     1.983 NA 
HETATM   21  C   UNL     1      -9.970  19.071  71.032  1.00  0.00     2.713 C  
HETATM   22  O   UNL     1      -7.737  19.590  70.595  1.00  0.00     1.008 OA 
HETATM   23  H   UNL     1     -11.372  18.092  72.210  1.00  0.00     0.000 HD 
HETATM   24  N   UNL     1     -10.620  17.972  71.531  1.00  0.00     2.580 N  
HETATM   25  O   UNL     1     -10.417  20.205  71.091  1.00  0.00     1.559 OA 
ENDBRANCH  14  15
ENDBRANCH  13  14
ENDBRANCH   4  13
BRANCH   6  26
HETATM   26  N   UNL     1     -12.519   9.622  68.587  1.00  0.00     2.003 N  
HETATM   27  O   UNL     1     -13.167   8.898  70.647  1.00  0.00     0.237 OA 
HETATM   28  C   UNL     1     -12.258   9.018  69.828  1.00  0.00     1.061 C  
HETATM   29  H   UNL     1     -13.476   9.966  68.510  1.00  0.00     0.000 HD 
BRANCH  28  30
HETATM   30  C   UNL     1     -10.864   8.682  70.285  1.00  0.00    -0.235 C  
BRANCH  30  31
HETATM   31  C   UNL     1     -10.546   7.764  71.387  1.00  0.00    -0.213 A  
HETATM   32  H2  UNL     1      -9.130   6.678  75.276  1.00  0.00     0.000 HD 
HETATM   33  C   UNL     1     -11.400   6.732  71.740  1.00  0.00    -0.269 A  
HETATM   34  H1  UNL     1      -8.180   7.981  74.563  1.00  0.00     0.000 HD 
HETATM   35  N   UNL     1      -9.576   8.050  72.362  1.00  0.00    -0.207 NA 
HETATM   36  N   UNL     1      -8.944   7.310  74.497  1.00  0.00    -0.173 NA 
HETATM   37  S   UNL     1     -10.997   6.118  73.284  1.00  0.00    -0.138 SA 
HETATM   38  C   UNL     1      -9.708   7.249  73.395  1.00  0.00    -0.251 A  
ENDBRANCH  30  31
BRANCH  30  39
HETATM   39  N   UNL     1      -9.817   9.335  69.904  1.00  0.00    -0.187 NA 
HETATM   40  H   UNL     1      -9.740  10.325  70.136  1.00  0.00     0.000 HD 
BRANCH  39  41
HETATM   41  O   UNL     1      -8.787   8.728  69.185  1.00  0.00    -0.134 OA 
HETATM   42  C   UNL     1      -8.100   7.589  69.666  1.00  0.00    -0.127 C  
ENDBRANCH  39  41
ENDBRANCH  30  39
ENDBRANCH  28  30
ENDBRANCH   6  26
TORSDOF 8
ENDMDL
MODEL      348
REMARK 921   NORMALIZED FREE ENERGY PREDICTED BY IDOCK:   21.71 KCAL/MOL
REMARK 922        TOTAL FREE ENERGY PREDICTED BY IDOCK:   30.61 KCAL/MOL
REMARK 923 INTER-LIGAND FREE ENERGY PREDICTED BY IDOCK:   21.61 KCAL/MOL
REMARK 924 INTRA-LIGAND FREE ENERGY PREDICTED BY IDOCK:    9.00 KCAL/MOL
REMARK 927      BINDING AFFINITY PREDICTED BY RF-SCORE:    0.00 PKD
ROOT
HETATM    1  C   UNL     1     -13.024  15.878  67.253  1.00  0.00     3.584 C  
HETATM    2  S   UNL     1     -13.356  14.854  65.846  1.00  0.00     2.201 SA 
HETATM    3  C   UNL     1     -12.809  13.186  66.370  1.00  0.00     0.664 C  
HETATM    4  C   UNL     1     -12.312  12.980  67.773  1.00  0.00     0.131 C  
HETATM    5  CA  UNL     1     -12.200  13.977  68.704  1.00  0.00    -0.183 C  
HETATM    6  CA  UNL     1     -12.086  17.144  67.459  1.00  0.00     2.175 C  
HETATM    7  C   UNL     1     -11.876  16.474  68.853  1.00  0.00     0.227 C  
HETATM    8  N   UNL     1     -12.387  15.298  68.399  1.00  0.00     0.123 N  
HETATM    9  C   UNL     1     -11.844  13.613  70.122  1.00  0.00    -0.281 C  
HETATM   10  O   UNL     1     -11.236  16.777  69.830  1.00  0.00    -0.150 OA 
HETATM   11  O   UNL     1     -11.022  14.441  70.795  1.00  0.00     0.121 OA 
HETATM   12  OXT UNL     1     -12.291  12.617  70.668  1.00  0.00    -0.359 OA 
ENDROOT
BRANCH   4  13
HETATM   13  C   UNL     1     -11.837  11.535  68.113  1.00  0.00    -0.236 C  
BRANCH  13  14
HETATM   14  S   UNL     1     -11.680  10.270  66.790  1.00  0.00     2.362 SA 
BRANCH  14  15
HETATM   15  C   UNL     1      -9.961   9.812  66.726  1.00  0.00    -0.218 C  
HETATM   16  N   UNL     1      -9.410   9.615  67.872  1.00  0.00    -0.128 N  
HETATM   17  H   UNL     1      -9.956   9.607  68.734  1.00  0.00     0.000 HD 
HETATM   18  C   UNL     1      -9.831  10.189  64.207  1.00  0.00    -0.200 C  
HETATM   19  C   UNL     1      -8.045   9.415  67.880  1.00  0.00    -0.103 C  
HETATM   20  N   UNL     1      -9.294   9.795  65.497  1.00  0.00    -0.220 NA 
HETATM   21  C   UNL     1      -7.296   9.007  66.613  1.00  0.00    -0.086 C  
HETATM   22  O   UNL     1      -7.332   9.654  68.855  1.00  0.00    -0.071 OA 
HETATM   23  H   UNL     1      -7.390   9.534  64.607  1.00  0.00     0.000 HD 
HETATM   24  N   UNL     1      -7.919   9.451  65.475  1.00  0.00    -0.108 N  
HETATM   25  O   UNL     1      -6.235   8.402  66.611  1.00  0.00    -0.052 OA 
ENDBRANCH  14  15
ENDBRANCH  13  14
ENDBRANCH   4  13
BRANCH   6  26
HETATM   26  N   UNL     1     -10.756  17.617  66.856  1.00  0.00    -0.219 N  
HETATM   27  O   UNL     1      -8.686  18.535  66.615  1.00  0.00    -0.271 OA 
HETATM   28  C   UNL     1      -9.589  18.198  67.378  1.00  0.00    -0.275 C  
HETATM   29  H   UNL     1     -10.709  17.476  65.847  1.00  0.00     0.000 HD 
BRANCH  28  30
HETATM   30  C   UNL     1      -9.307  18.254  68.855  1.00  0.00    -0.186 C  
BRANCH  30  31
HETATM   31  C   UNL     1      -8.031  18.678  69.445  1.00  0.00     0.251 A  
HETATM   32  H2  UNL     1      -4.815  18.591  72.266  1.00  0.00     0.000 HD 
HETATM   33  C   UNL     1      -6.931  18.975  68.656  1.00  0.00    -0.287 A  
HETATM   34  H1  UNL     1      -6.374  18.268  73.025  1.00  0.00     0.000 HD 
HETATM   35  N   UNL     1      -7.716  18.487  70.800  1.00  0.00     3.350 NA 
HETATM   36  N   UNL     1      -5.827  18.488  72.193  1.00  0.00     0.464 NA 
HETATM   37  S   UNL     1      -5.505  19.015  69.600  1.00  0.00    -0.214 SA 
HETATM   38  C   UNL     1      -6.427  18.644  71.003  1.00  0.00     1.319 A  
ENDBRANCH  30  31
BRANCH  30  39
HETATM   39  N   UNL     1     -10.079  17.724  69.745  1.00  0.00     0.153 NA 
HETATM   40  H   UNL     1     -10.947  17.280  69.445  1.00  0.00     0.000 HD 
BRANCH  39  41
HETATM   41  O   UNL     1      -9.762  17.739  71.103  1.00  0.00     4.109 OA 
HETATM   42  C   UNL     1     -10.253  18.732  71.982  1.00  0.00     4.221 C  
ENDBRANCH  39  41
ENDBRANCH  30  39
ENDBRANCH  28  30
ENDBRANCH   6  26
TORSDOF 8
ENDMDL
