MODEL        1
REMARK 921   NORMALIZED FREE ENERGY PREDICTED BY IDOCK:   -7.55 KCAL/MOL
REMARK 922        TOTAL FREE ENERGY PREDICTED BY IDOCK:  -10.52 KCAL/MOL
REMARK 923 INTER-LIGAND FREE ENERGY PREDICTED BY IDOCK:   -9.76 KCAL/MOL
REMARK 924 INTRA-LIGAND FREE ENERGY PREDICTED BY IDOCK:   -0.76 KCAL/MOL
REMARK 927      BINDING AFFINITY PREDICTED BY RF-SCORE:    0.00 PKD
ROOT
HETATM    1  CE  UNL     1     -11.849  13.981  70.296  1.00  0.00    -0.303 C  
HETATM    2  SD  UNL     1     -12.896  15.177  71.049  1.00  0.00    -0.446 SA 
HETATM    3  CG  UNL     1     -13.927  14.181  72.171  1.00  0.00    -0.531 C  
HETATM    4  CB  UNL     1     -13.654  12.720  72.233  1.00  0.00    -0.563 C  
HETATM    5  CA  UNL     1     -12.852  11.991  71.440  1.00  0.00    -0.288 C  
HETATM    6  N   UNL     1     -12.165  12.598  70.428  1.00  0.00    -0.335 N  
HETATM    7  C   UNL     1     -12.870  10.508  71.657  1.00  0.00    -0.475 C  
HETATM    8  C   UNL     1     -11.560  12.194  69.276  1.00  0.00    -0.318 C  
HETATM    9  O   UNL     1     -12.142   9.742  70.861  1.00  0.00    -0.296 OA 
HETATM   10  OXT UNL     1     -13.530   9.990  72.561  1.00  0.00    -0.274 OA 
HETATM   11  CA  UNL     1     -11.624  13.665  68.744  1.00  0.00    -0.324 C  
HETATM   12  O   UNL     1     -11.321  11.107  68.864  1.00  0.00    -0.227 OA 
ENDROOT
BRANCH  11  13
HETATM   13  N   UNL     1     -12.527  13.751  67.534  1.00  0.00    -0.357 N  
HETATM   14  C   UNL     1     -12.356  14.038  66.172  1.00  0.00    -0.458 C  
HETATM   15  H   UNL     1     -13.500  13.552  67.766  1.00  0.00     0.000 HD 
HETATM   16  O   UNL     1     -13.370  14.104  65.477  1.00  0.00    -0.656 OA 
BRANCH  14  17
HETATM   17  C   UNL     1     -11.000  14.091  65.486  1.00  0.00    -0.309 C  
BRANCH  17  18
HETATM   18  C   UNL     1     -10.300  12.864  65.075  1.00  0.00    -0.315 A  
HETATM   19  N   UNL     1     -10.253  12.492  63.736  1.00  0.00    -0.395 NA 
HETATM   20  C   UNL     1      -9.914  11.847  65.944  1.00  0.00    -0.234 A  
HETATM   21  N   UNL     1     -10.238  10.550  62.466  1.00  0.00    -0.718 NA 
HETATM   22  H2  UNL     1     -10.115   9.537  62.448  1.00  0.00     0.000 HD 
HETATM   23  S   UNL     1      -9.660  10.389  65.074  1.00  0.00    -0.307 SA 
HETATM   24  H1  UNL     1     -10.483  11.033  61.603  1.00  0.00     0.000 HD 
HETATM   25  C   UNL     1     -10.073  11.203  63.623  1.00  0.00    -0.379 A  
ENDBRANCH  17  18
BRANCH  17  26
HETATM   26  N   UNL     1     -10.202  15.121  65.409  1.00  0.00    -0.360 NA 
HETATM   27  H   UNL     1      -9.202  14.949  65.524  1.00  0.00     0.000 HD 
BRANCH  26  28
HETATM   28  O   UNL     1     -10.607  16.440  65.181  1.00  0.00    -0.610 OA 
HETATM   29  C   UNL     1     -10.481  17.403  66.205  1.00  0.00    -0.284 C  
ENDBRANCH  26  28
ENDBRANCH  17  26
ENDBRANCH  14  17
ENDBRANCH  11  13
TORSDOF 5
ENDMDL
MODEL        2
REMARK 921   NORMALIZED FREE ENERGY PREDICTED BY IDOCK:   -7.48 KCAL/MOL
REMARK 922        TOTAL FREE ENERGY PREDICTED BY IDOCK:  -10.43 KCAL/MOL
REMARK 923 INTER-LIGAND FREE ENERGY PREDICTED BY IDOCK:   -9.39 KCAL/MOL
REMARK 924 INTRA-LIGAND FREE ENERGY PREDICTED BY IDOCK:   -1.04 KCAL/MOL
REMARK 927      BINDING AFFINITY PREDICTED BY RF-SCORE:    0.00 PKD
ROOT
HETATM    1  CE  UNL     1      -9.536  15.172  66.442  1.00  0.00    -0.296 C  
HETATM    2  SD  UNL     1      -9.371  14.428  68.028  1.00  0.00    -0.207 SA 
HETATM    3  CG  UNL     1     -10.714  13.200  68.053  1.00  0.00    -0.233 C  
HETATM    4  CB  UNL     1     -11.548  13.074  66.828  1.00  0.00    -0.420 C  
HETATM    5  CA  UNL     1     -11.558  13.869  65.745  1.00  0.00    -0.338 C  
HETATM    6  N   UNL     1     -10.724  14.949  65.689  1.00  0.00    -0.321 N  
HETATM    7  C   UNL     1     -12.601  13.572  64.711  1.00  0.00    -0.301 C  
HETATM    8  C   UNL     1     -10.670  16.108  64.975  1.00  0.00    -0.337 C  
HETATM    9  O   UNL     1     -12.690  14.364  63.655  1.00  0.00    -0.773 OA 
HETATM   10  OXT UNL     1     -13.362  12.607  64.811  1.00  0.00    -0.787 OA 
HETATM   11  CA  UNL     1      -9.718  16.714  66.060  1.00  0.00    -0.278 C  
HETATM   12  O   UNL     1     -11.301  16.473  64.038  1.00  0.00    -1.064 OA 
ENDROOT
BRANCH  11  13
HETATM   13  N   UNL     1     -10.385  17.876  66.760  1.00  0.00    -0.357 N  
HETATM   14  C   UNL     1      -9.970  18.904  67.619  1.00  0.00    -0.349 C  
HETATM   15  H   UNL     1     -11.384  17.924  66.558  1.00  0.00     0.000 HD 
HETATM   16  O   UNL     1     -10.840  19.644  68.077  1.00  0.00    -0.317 OA 
BRANCH  14  17
HETATM   17  C   UNL     1      -8.511  19.257  67.866  1.00  0.00    -0.308 C  
BRANCH  17  18
HETATM   18  C   UNL     1      -7.703  19.939  66.843  1.00  0.00    -0.286 A  
HETATM   19  N   UNL     1      -7.572  19.396  65.569  1.00  0.00    -0.412 NA 
HETATM   20  C   UNL     1      -6.787  20.953  67.107  1.00  0.00    -0.354 A  
HETATM   21  N   UNL     1      -5.977  19.259  63.890  1.00  0.00    -0.437 NA 
HETATM   22  H2  UNL     1      -5.096  19.608  63.512  1.00  0.00     0.000 HD 
HETATM   23  S   UNL     1      -5.668  21.093  65.814  1.00  0.00    -0.214 SA 
HETATM   24  H1  UNL     1      -6.454  18.498  63.407  1.00  0.00     0.000 HD 
HETATM   25  C   UNL     1      -6.471  19.814  65.003  1.00  0.00    -0.276 A  
ENDBRANCH  17  18
BRANCH  17  26
HETATM   26  N   UNL     1      -7.750  18.810  68.827  1.00  0.00    -0.331 NA 
HETATM   27  H   UNL     1      -7.396  19.490  69.501  1.00  0.00     0.000 HD 
BRANCH  26  28
HETATM   28  O   UNL     1      -7.381  17.472  69.007  1.00  0.00    -0.250 OA 
HETATM   29  C   UNL     1      -6.440  16.877  68.140  1.00  0.00    -0.145 C  
ENDBRANCH  26  28
ENDBRANCH  17  26
ENDBRANCH  14  17
ENDBRANCH  11  13
TORSDOF 5
ENDMDL
MODEL        3
REMARK 921   NORMALIZED FREE ENERGY PREDICTED BY IDOCK:   -7.32 KCAL/MOL
REMARK 922        TOTAL FREE ENERGY PREDICTED BY IDOCK:  -10.22 KCAL/MOL
REMARK 923 INTER-LIGAND FREE ENERGY PREDICTED BY IDOCK:   -9.31 KCAL/MOL
REMARK 924 INTRA-LIGAND FREE ENERGY PREDICTED BY IDOCK:   -0.91 KCAL/MOL
REMARK 927      BINDING AFFINITY PREDICTED BY RF-SCORE:    0.00 PKD
ROOT
HETATM    1  CE  UNL     1     -10.836  13.586  68.786  1.00  0.00    -0.253 C  
HETATM    2  SD  UNL     1     -10.764  15.334  68.601  1.00  0.00    -0.255 SA 
HETATM    3  CG  UNL     1     -11.806  15.941  69.964  1.00  0.00    -0.311 C  
HETATM    4  CB  UNL     1     -12.397  14.925  70.876  1.00  0.00    -0.392 C  
HETATM    5  CA  UNL     1     -12.409  13.589  70.736  1.00  0.00    -0.363 C  
HETATM    6  N   UNL     1     -11.821  13.018  69.643  1.00  0.00    -0.320 N  
HETATM    7  C   UNL     1     -13.195  12.820  71.753  1.00  0.00    -0.374 C  
HETATM    8  C   UNL     1     -11.905  11.817  69.003  1.00  0.00    -0.317 C  
HETATM    9  O   UNL     1     -13.285  11.506  71.623  1.00  0.00    -0.411 OA 
HETATM   10  OXT UNL     1     -13.742  13.373  72.710  1.00  0.00    -0.697 OA 
HETATM   11  CA  UNL     1     -11.279  12.472  67.727  1.00  0.00    -0.269 C  
HETATM   12  O   UNL     1     -12.447  10.808  69.313  1.00  0.00    -0.356 OA 
ENDROOT
BRANCH  11  13
HETATM   13  N   UNL     1     -12.275  12.472  66.589  1.00  0.00    -0.123 N  
HETATM   14  C   UNL     1     -12.218  12.684  65.204  1.00  0.00    -0.481 C  
HETATM   15  H   UNL     1     -13.222  12.266  66.908  1.00  0.00     0.000 HD 
HETATM   16  O   UNL     1     -13.284  12.690  64.589  1.00  0.00    -0.828 OA 
BRANCH  14  17
HETATM   17  C   UNL     1     -10.921  12.726  64.411  1.00  0.00    -0.361 C  
BRANCH  17  18
HETATM   18  C   UNL     1     -10.267  11.494  63.944  1.00  0.00    -0.362 A  
HETATM   19  N   UNL     1     -10.193  10.377  64.769  1.00  0.00    -0.318 NA 
HETATM   20  C   UNL     1      -9.430  11.417  62.835  1.00  0.00    -0.345 A  
HETATM   21  N   UNL     1      -8.738   8.622  65.198  1.00  0.00    -0.301 NA 
HETATM   22  H2  UNL     1      -7.927   8.084  64.891  1.00  0.00     0.000 HD 
HETATM   23  S   UNL     1      -8.440  10.018  62.935  1.00  0.00    -0.197 SA 
HETATM   24  H1  UNL     1      -9.182   8.383  66.084  1.00  0.00     0.000 HD 
HETATM   25  C   UNL     1      -9.187   9.618  64.426  1.00  0.00    -0.200 A  
ENDBRANCH  17  18
BRANCH  17  26
HETATM   26  N   UNL     1     -10.123  13.749  64.271  1.00  0.00    -0.734 NA 
HETATM   27  H   UNL     1      -9.441  13.712  63.512  1.00  0.00     0.000 HD 
BRANCH  26  28
HETATM   28  O   UNL     1     -10.127  14.892  65.078  1.00  0.00    -0.360 OA 
HETATM   29  C   UNL     1     -11.037  15.938  64.816  1.00  0.00    -0.384 C  
ENDBRANCH  26  28
ENDBRANCH  17  26
ENDBRANCH  14  17
ENDBRANCH  11  13
TORSDOF 5
ENDMDL
MODEL        4
REMARK 921   NORMALIZED FREE ENERGY PREDICTED BY IDOCK:   -7.22 KCAL/MOL
REMARK 922        TOTAL FREE ENERGY PREDICTED BY IDOCK:  -10.09 KCAL/MOL
REMARK 923 INTER-LIGAND FREE ENERGY PREDICTED BY IDOCK:   -9.14 KCAL/MOL
REMARK 924 INTRA-LIGAND FREE ENERGY PREDICTED BY IDOCK:   -0.95 KCAL/MOL
REMARK 927      BINDING AFFINITY PREDICTED BY RF-SCORE:    0.00 PKD
ROOT
HETATM    1  CE  UNL     1     -10.883  14.691  67.898  1.00  0.00    -0.259 C  
HETATM    2  SD  UNL     1      -9.737  15.998  67.628  1.00  0.00    -0.225 SA 
HETATM    3  CG  UNL     1      -9.878  16.314  65.841  1.00  0.00    -0.334 C  
HETATM    4  CB  UNL     1     -10.870  15.506  65.081  1.00  0.00    -0.452 C  
HETATM    5  CA  UNL     1     -11.571  14.440  65.502  1.00  0.00    -0.347 C  
HETATM    6  N   UNL     1     -11.406  13.983  66.779  1.00  0.00    -0.322 N  
HETATM    7  C   UNL     1     -12.406  13.743  64.473  1.00  0.00    -0.358 C  
HETATM    8  C   UNL     1     -11.654  12.817  67.440  1.00  0.00    -0.356 C  
HETATM    9  O   UNL     1     -13.068  12.653  64.825  1.00  0.00    -0.852 OA 
HETATM   10  OXT UNL     1     -12.505  14.166  63.318  1.00  0.00    -0.758 OA 
HETATM   11  CA  UNL     1     -10.643  13.252  68.553  1.00  0.00    -0.256 C  
HETATM   12  O   UNL     1     -12.248  11.846  67.106  1.00  0.00    -0.501 OA 
ENDROOT
BRANCH  11  13
HETATM   13  N   UNL     1      -9.453  12.319  68.581  1.00  0.00    -0.391 N  
HETATM   14  C   UNL     1      -9.237  10.977  68.925  1.00  0.00    -0.129 C  
HETATM   15  H   UNL     1      -8.596  12.780  68.274  1.00  0.00     0.000 HD 
HETATM   16  O   UNL     1      -8.076  10.569  68.906  1.00  0.00    -0.119 OA 
BRANCH  14  17
HETATM   17  C   UNL     1     -10.357   9.972  69.141  1.00  0.00    -0.216 C  
BRANCH  17  18
HETATM   18  C   UNL     1     -11.136   9.947  70.389  1.00  0.00    -0.319 A  
HETATM   19  N   UNL     1     -10.848   9.017  71.382  1.00  0.00    -0.301 NA 
HETATM   20  C   UNL     1     -12.360  10.585  70.568  1.00  0.00    -0.343 A  
HETATM   21  N   UNL     1     -11.975   7.781  72.990  1.00  0.00    -0.629 NA 
HETATM   22  H2  UNL     1     -12.835   7.645  73.521  1.00  0.00     0.000 HD 
HETATM   23  S   UNL     1     -13.204   9.888  71.889  1.00  0.00    -0.447 SA 
HETATM   24  H1  UNL     1     -11.199   7.135  73.133  1.00  0.00     0.000 HD 
HETATM   25  C   UNL     1     -11.900   8.802  72.128  1.00  0.00    -0.366 A  
ENDBRANCH  17  18
BRANCH  17  26
HETATM   26  N   UNL     1     -10.598   8.903  68.431  1.00  0.00    -0.363 NA 
HETATM   27  H   UNL     1     -10.828   8.046  68.935  1.00  0.00     0.000 HD 
BRANCH  26  28
HETATM   28  O   UNL     1     -10.565   8.839  67.033  1.00  0.00    -0.282 OA 
HETATM   29  C   UNL     1      -9.392   8.418  66.373  1.00  0.00    -0.214 C  
ENDBRANCH  26  28
ENDBRANCH  17  26
ENDBRANCH  14  17
ENDBRANCH  11  13
TORSDOF 5
ENDMDL
MODEL        5
REMARK 921   NORMALIZED FREE ENERGY PREDICTED BY IDOCK:   -7.20 KCAL/MOL
REMARK 922        TOTAL FREE ENERGY PREDICTED BY IDOCK:  -10.07 KCAL/MOL
REMARK 923 INTER-LIGAND FREE ENERGY PREDICTED BY IDOCK:   -9.56 KCAL/MOL
REMARK 924 INTRA-LIGAND FREE ENERGY PREDICTED BY IDOCK:   -0.51 KCAL/MOL
REMARK 927      BINDING AFFINITY PREDICTED BY RF-SCORE:    0.00 PKD
ROOT
HETATM    1  CE  UNL     1     -11.812  13.906  70.299  1.00  0.00    -0.290 C  
HETATM    2  SD  UNL     1     -12.891  15.114  70.985  1.00  0.00    -0.446 SA 
HETATM    3  CG  UNL     1     -14.000  14.131  72.042  1.00  0.00    -0.513 C  
HETATM    4  CB  UNL     1     -13.746  12.667  72.122  1.00  0.00    -0.406 C  
HETATM    5  CA  UNL     1     -12.903  11.929  71.381  1.00  0.00    -0.307 C  
HETATM    6  N   UNL     1     -12.149  12.528  70.413  1.00  0.00    -0.350 N  
HETATM    7  C   UNL     1     -12.950  10.447  71.598  1.00  0.00    -0.475 C  
HETATM    8  C   UNL     1     -11.477  12.115  69.301  1.00  0.00    -0.302 C  
HETATM    9  O   UNL     1     -12.182   9.672  70.850  1.00  0.00    -0.298 OA 
HETATM   10  OXT UNL     1     -13.669   9.936  72.460  1.00  0.00    -0.285 OA 
HETATM   11  CA  UNL     1     -11.494  13.586  68.765  1.00  0.00    -0.311 C  
HETATM   12  O   UNL     1     -11.224  11.025  68.906  1.00  0.00    -0.220 OA 
ENDROOT
BRANCH  11  13
HETATM   13  N   UNL     1     -12.319  13.679  67.501  1.00  0.00    -0.366 N  
HETATM   14  C   UNL     1     -12.075  14.032  66.166  1.00  0.00    -0.446 C  
HETATM   15  H   UNL     1     -13.293  13.422  67.659  1.00  0.00     0.000 HD 
HETATM   16  O   UNL     1     -13.043  14.078  65.408  1.00  0.00    -0.763 OA 
BRANCH  14  17
HETATM   17  C   UNL     1     -10.681  14.183  65.576  1.00  0.00    -0.324 C  
BRANCH  17  18
HETATM   18  C   UNL     1      -9.646  14.983  66.248  1.00  0.00    -0.307 A  
HETATM   19  N   UNL     1      -9.482  16.329  65.939  1.00  0.00    -0.440 NA 
HETATM   20  C   UNL     1      -8.585  14.451  66.974  1.00  0.00    -0.203 A  
HETATM   21  N   UNL     1      -7.767  17.885  65.782  1.00  0.00    -0.551 NA 
HETATM   22  H2  UNL     1      -6.799  18.119  65.998  1.00  0.00     0.000 HD 
HETATM   23  S   UNL     1      -7.322  15.606  67.112  1.00  0.00    -0.180 SA 
HETATM   24  H1  UNL     1      -8.328  18.547  65.245  1.00  0.00     0.000 HD 
HETATM   25  C   UNL     1      -8.265  16.718  66.210  1.00  0.00    -0.324 A  
ENDBRANCH  17  18
BRANCH  17  26
HETATM   26  N   UNL     1     -10.308  13.878  64.363  1.00  0.00    -0.673 NA 
HETATM   27  H   UNL     1      -9.629  14.493  63.912  1.00  0.00     0.000 HD 
BRANCH  26  28
HETATM   28  O   UNL     1     -10.764  12.776  63.631  1.00  0.00    -0.407 OA 
HETATM   29  C   UNL     1     -10.294  11.482  63.939  1.00  0.00    -0.371 C  
ENDBRANCH  26  28
ENDBRANCH  17  26
ENDBRANCH  14  17
ENDBRANCH  11  13
TORSDOF 5
ENDMDL
MODEL        6
REMARK 921   NORMALIZED FREE ENERGY PREDICTED BY IDOCK:   -7.13 KCAL/MOL
REMARK 922        TOTAL FREE ENERGY PREDICTED BY IDOCK:   -9.97 KCAL/MOL
REMARK 923 INTER-LIGAND FREE ENERGY PREDICTED BY IDOCK:   -9.04 KCAL/MOL
REMARK 924 INTRA-LIGAND FREE ENERGY PREDICTED BY IDOCK:   -0.93 KCAL/MOL
REMARK 927      BINDING AFFINITY PREDICTED BY RF-SCORE:    0.00 PKD
ROOT
HETATM    1  CE  UNL     1      -9.608   9.530  69.497  1.00  0.00    -0.188 C  
HETATM    2  SD  UNL     1      -8.235   9.031  70.477  1.00  0.00    -0.186 SA 
HETATM    3  CG  UNL     1      -8.988   8.657  72.091  1.00  0.00    -0.200 C  
HETATM    4  CB  UNL     1     -10.465   8.798  72.204  1.00  0.00    -0.384 C  
HETATM    5  CA  UNL     1     -11.319   9.334  71.316  1.00  0.00    -0.353 C  
HETATM    6  N   UNL     1     -10.845   9.830  70.136  1.00  0.00    -0.268 N  
HETATM    7  C   UNL     1     -12.745   9.459  71.756  1.00  0.00    -0.390 C  
HETATM    8  C   UNL     1     -11.299  10.696  69.186  1.00  0.00    -0.273 C  
HETATM    9  O   UNL     1     -13.613  10.034  70.940  1.00  0.00    -0.297 OA 
HETATM   10  OXT UNL     1     -13.132   9.029  72.846  1.00  0.00    -0.334 OA 
HETATM   11  CA  UNL     1      -9.831  10.887  68.680  1.00  0.00    -0.190 C  
HETATM   12  O   UNL     1     -12.366  11.195  69.036  1.00  0.00    -0.479 OA 
ENDROOT
BRANCH  11  13
HETATM   13  N   UNL     1      -9.374  12.311  68.905  1.00  0.00    -0.385 N  
HETATM   14  C   UNL     1      -9.781  13.578  68.463  1.00  0.00    -0.168 C  
HETATM   15  H   UNL     1      -8.572  12.362  69.534  1.00  0.00     0.000 HD 
HETATM   16  O   UNL     1      -9.092  14.541  68.797  1.00  0.00    -0.190 OA 
BRANCH  14  17
HETATM   17  C   UNL     1     -11.102  13.840  67.757  1.00  0.00    -0.268 C  
BRANCH  17  18
HETATM   18  C   UNL     1     -11.187  13.914  66.290  1.00  0.00    -0.309 A  
HETATM   19  N   UNL     1     -10.975  15.120  65.630  1.00  0.00    -0.345 NA 
HETATM   20  C   UNL     1     -11.761  12.937  65.482  1.00  0.00    -0.383 A  
HETATM   21  N   UNL     1     -11.742  16.231  63.743  1.00  0.00    -1.488 NA 
HETATM   22  H2  UNL     1     -12.247  16.173  62.859  1.00  0.00     0.000 HD 
HETATM   23  S   UNL     1     -12.180  13.600  63.956  1.00  0.00    -0.321 SA 
HETATM   24  H1  UNL     1     -11.382  17.135  64.048  1.00  0.00     0.000 HD 
HETATM   25  C   UNL     1     -11.574  15.119  64.469  1.00  0.00    -0.329 A  
ENDBRANCH  17  18
BRANCH  17  26
HETATM   26  N   UNL     1     -12.209  14.268  68.301  1.00  0.00    -0.591 NA 
HETATM   27  H   UNL     1     -12.949  14.583  67.673  1.00  0.00     0.000 HD 
BRANCH  26  28
HETATM   28  O   UNL     1     -12.460  14.330  69.676  1.00  0.00    -0.308 OA 
HETATM   29  C   UNL     1     -12.330  15.556  70.362  1.00  0.00    -0.413 C  
ENDBRANCH  26  28
ENDBRANCH  17  26
ENDBRANCH  14  17
ENDBRANCH  11  13
TORSDOF 5
ENDMDL
MODEL        7
REMARK 921   NORMALIZED FREE ENERGY PREDICTED BY IDOCK:   -7.03 KCAL/MOL
REMARK 922        TOTAL FREE ENERGY PREDICTED BY IDOCK:   -9.85 KCAL/MOL
REMARK 923 INTER-LIGAND FREE ENERGY PREDICTED BY IDOCK:   -8.96 KCAL/MOL
REMARK 924 INTRA-LIGAND FREE ENERGY PREDICTED BY IDOCK:   -0.89 KCAL/MOL
REMARK 927      BINDING AFFINITY PREDICTED BY RF-SCORE:    0.00 PKD
ROOT
HETATM    1  CE  UNL     1     -10.889  14.539  67.961  1.00  0.00    -0.244 C  
HETATM    2  SD  UNL     1      -9.727  15.837  67.715  1.00  0.00    -0.216 SA 
HETATM    3  CG  UNL     1      -9.857  16.180  65.933  1.00  0.00    -0.353 C  
HETATM    4  CB  UNL     1     -10.853  15.394  65.157  1.00  0.00    -0.447 C  
HETATM    5  CA  UNL     1     -11.568  14.330  65.559  1.00  0.00    -0.338 C  
HETATM    6  N   UNL     1     -11.415  13.853  66.829  1.00  0.00    -0.336 N  
HETATM    7  C   UNL     1     -12.406  13.658  64.515  1.00  0.00    -0.356 C  
HETATM    8  C   UNL     1     -11.678  12.680  67.472  1.00  0.00    -0.368 C  
HETATM    9  O   UNL     1     -13.081  12.570  64.849  1.00  0.00    -0.833 OA 
HETATM   10  OXT UNL     1     -12.495  14.098  63.367  1.00  0.00    -0.797 OA 
HETATM   11  CA  UNL     1     -10.668  13.088  68.596  1.00  0.00    -0.248 C  
HETATM   12  O   UNL     1     -12.281  11.720  67.121  1.00  0.00    -0.446 OA 
ENDROOT
BRANCH  11  13
HETATM   13  N   UNL     1      -9.488  12.142  68.616  1.00  0.00    -0.389 N  
HETATM   14  C   UNL     1      -9.265  10.823  69.038  1.00  0.00    -0.146 C  
HETATM   15  H   UNL     1      -8.647  12.568  68.227  1.00  0.00     0.000 HD 
HETATM   16  O   UNL     1      -8.112  10.397  68.977  1.00  0.00    -0.118 OA 
BRANCH  14  17
HETATM   17  C   UNL     1     -10.381   9.851  69.390  1.00  0.00    -0.222 C  
BRANCH  17  18
HETATM   18  C   UNL     1     -10.277   8.418  69.076  1.00  0.00    -0.207 A  
HETATM   19  N   UNL     1     -10.342   7.976  67.759  1.00  0.00    -0.225 NA 
HETATM   20  C   UNL     1     -10.417   7.393  70.008  1.00  0.00    -0.226 A  
HETATM   21  N   UNL     1     -11.131   6.146  66.571  1.00  0.00    -0.749 NA 
HETATM   22  H2  UNL     1     -11.467   5.183  66.601  1.00  0.00     0.000 HD 
HETATM   23  S   UNL     1     -10.795   5.918  69.216  1.00  0.00    -0.318 SA 
HETATM   24  H1  UNL     1     -11.101   6.631  65.675  1.00  0.00     0.000 HD 
HETATM   25  C   UNL     1     -10.744   6.734  67.709  1.00  0.00    -0.268 A  
ENDBRANCH  17  18
BRANCH  17  26
HETATM   26  N   UNL     1     -11.600  10.154  69.744  1.00  0.00    -0.386 NA 
HETATM   27  H   UNL     1     -12.303  10.213  69.006  1.00  0.00     0.000 HD 
BRANCH  26  28
HETATM   28  O   UNL     1     -12.020  10.406  71.055  1.00  0.00    -0.339 OA 
HETATM   29  C   UNL     1     -12.822  11.532  71.335  1.00  0.00    -0.384 C  
ENDBRANCH  26  28
ENDBRANCH  17  26
ENDBRANCH  14  17
ENDBRANCH  11  13
TORSDOF 5
ENDMDL
MODEL        8
REMARK 921   NORMALIZED FREE ENERGY PREDICTED BY IDOCK:   -7.01 KCAL/MOL
REMARK 922        TOTAL FREE ENERGY PREDICTED BY IDOCK:   -9.82 KCAL/MOL
REMARK 923 INTER-LIGAND FREE ENERGY PREDICTED BY IDOCK:   -8.93 KCAL/MOL
REMARK 924 INTRA-LIGAND FREE ENERGY PREDICTED BY IDOCK:   -0.90 KCAL/MOL
REMARK 927      BINDING AFFINITY PREDICTED BY RF-SCORE:    0.00 PKD
ROOT
HETATM    1  CE  UNL     1      -9.262  10.683  66.249  1.00  0.00    -0.170 C  
HETATM    2  SD  UNL     1      -8.267   9.854  65.059  1.00  0.00    -0.152 SA 
HETATM    3  CG  UNL     1      -9.057  10.290  63.479  1.00  0.00    -0.264 C  
HETATM    4  CB  UNL     1     -10.232  11.201  63.531  1.00  0.00    -0.446 C  
HETATM    5  CA  UNL     1     -10.908  11.623  64.612  1.00  0.00    -0.314 C  
HETATM    6  N   UNL     1     -10.527  11.206  65.855  1.00  0.00    -0.257 N  
HETATM    7  C   UNL     1     -12.137  12.440  64.352  1.00  0.00    -0.426 C  
HETATM    8  C   UNL     1     -11.109  11.136  67.086  1.00  0.00    -0.287 C  
HETATM    9  O   UNL     1     -12.869  12.829  65.382  1.00  0.00    -0.586 OA 
HETATM   10  OXT UNL     1     -12.470  12.771  63.211  1.00  0.00    -0.665 OA 
HETATM   11  CA  UNL     1     -10.031  10.087  67.519  1.00  0.00    -0.190 C  
HETATM   12  O   UNL     1     -12.138  11.573  67.484  1.00  0.00    -0.614 OA 
ENDROOT
BRANCH  11  13
HETATM   13  N   UNL     1     -10.677   8.749  67.797  1.00  0.00    -0.462 N  
HETATM   14  C   UNL     1     -10.763   7.884  68.898  1.00  0.00    -0.073 C  
HETATM   15  H   UNL     1     -11.172   8.384  66.983  1.00  0.00     0.000 HD 
HETATM   16  O   UNL     1     -11.318   6.799  68.723  1.00  0.00    -0.151 OA 
BRANCH  14  17
HETATM   17  C   UNL     1     -10.375   8.281  70.314  1.00  0.00    -0.209 C  
BRANCH  17  18
HETATM   18  C   UNL     1     -11.250   9.128  71.140  1.00  0.00    -0.325 A  
HETATM   19  N   UNL     1     -12.000   8.573  72.171  1.00  0.00    -0.361 NA 
HETATM   20  C   UNL     1     -11.644  10.419  70.804  1.00  0.00    -0.358 A  
HETATM   21  N   UNL     1     -14.058   8.890  73.194  1.00  0.00    -1.225 NA 
HETATM   22  H2  UNL     1     -14.863   9.502  73.332  1.00  0.00     0.000 HD 
HETATM   23  S   UNL     1     -13.058  10.853  71.675  1.00  0.00    -0.377 SA 
HETATM   24  H1  UNL     1     -14.051   7.974  73.643  1.00  0.00     0.000 HD 
HETATM   25  C   UNL     1     -13.045   9.313  72.429  1.00  0.00    -0.406 A  
ENDBRANCH  17  18
BRANCH  17  26
HETATM   26  N   UNL     1      -9.196   8.170  70.862  1.00  0.00    -0.148 NA 
HETATM   27  H   UNL     1      -8.859   7.228  71.064  1.00  0.00     0.000 HD 
BRANCH  26  28
HETATM   28  O   UNL     1      -8.357   9.239  71.196  1.00  0.00    -0.291 OA 
HETATM   29  C   UNL     1      -7.539   9.829  70.208  1.00  0.00    -0.172 C  
ENDBRANCH  26  28
ENDBRANCH  17  26
ENDBRANCH  14  17
ENDBRANCH  11  13
TORSDOF 5
ENDMDL
MODEL        9
REMARK 921   NORMALIZED FREE ENERGY PREDICTED BY IDOCK:   -6.80 KCAL/MOL
REMARK 922        TOTAL FREE ENERGY PREDICTED BY IDOCK:   -9.55 KCAL/MOL
REMARK 923 INTER-LIGAND FREE ENERGY PREDICTED BY IDOCK:   -8.51 KCAL/MOL
REMARK 924 INTRA-LIGAND FREE ENERGY PREDICTED BY IDOCK:   -1.04 KCAL/MOL
REMARK 927      BINDING AFFINITY PREDICTED BY RF-SCORE:    0.00 PKD
ROOT
HETATM    1  CE  UNL     1     -11.889  12.035  68.440  1.00  0.00    -0.300 C  
HETATM    2  SD  UNL     1     -11.249  10.482  68.962  1.00  0.00    -0.257 SA 
HETATM    3  CG  UNL     1     -11.604  10.464  70.747  1.00  0.00    -0.358 C  
HETATM    4  CB  UNL     1     -12.328  11.634  71.311  1.00  0.00    -0.286 C  
HETATM    5  CA  UNL     1     -12.616  12.801  70.711  1.00  0.00    -0.225 C  
HETATM    6  N   UNL     1     -12.228  13.012  69.418  1.00  0.00    -0.188 N  
HETATM    7  C   UNL     1     -13.248  13.854  71.570  1.00  0.00    -0.352 C  
HETATM    8  C   UNL     1     -12.040  14.100  68.618  1.00  0.00    -0.285 C  
HETATM    9  O   UNL     1     -13.496  15.040  71.039  1.00  0.00    -0.409 OA 
HETATM   10  OXT UNL     1     -13.555  13.639  72.745  1.00  0.00    -0.672 OA 
HETATM   11  CA  UNL     1     -11.153  13.227  67.669  1.00  0.00    -0.269 C  
HETATM   12  O   UNL     1     -12.308  15.243  68.786  1.00  0.00    -0.110 OA 
ENDROOT
BRANCH  11  13
HETATM   13  N   UNL     1      -9.726  13.728  67.670  1.00  0.00    -0.221 N  
HETATM   14  C   UNL     1      -8.997  14.687  66.952  1.00  0.00    -0.253 C  
HETATM   15  H   UNL     1      -9.152  13.250  68.365  1.00  0.00     0.000 HD 
HETATM   16  O   UNL     1      -7.789  14.761  67.173  1.00  0.00    -0.200 OA 
BRANCH  14  17
HETATM   17  C   UNL     1      -9.639  15.742  66.064  1.00  0.00    -0.353 C  
BRANCH  17  18
HETATM   18  C   UNL     1     -10.026  17.058  66.594  1.00  0.00    -0.302 A  
HETATM   19  N   UNL     1     -10.332  18.105  65.731  1.00  0.00    -0.615 NA 
HETATM   20  C   UNL     1      -9.831  17.468  67.910  1.00  0.00    -0.293 A  
HETATM   21  N   UNL     1     -10.120  20.414  65.648  1.00  0.00    -0.493 NA 
HETATM   22  H2  UNL     1      -9.934  21.278  66.159  1.00  0.00     0.000 HD 
HETATM   23  S   UNL     1      -9.870  19.181  68.010  1.00  0.00    -0.381 SA 
HETATM   24  H1  UNL     1     -10.282  20.460  64.643  1.00  0.00     0.000 HD 
HETATM   25  C   UNL     1     -10.142  19.256  66.319  1.00  0.00    -0.442 A  
ENDBRANCH  17  18
BRANCH  17  26
HETATM   26  N   UNL     1     -10.146  15.560  64.875  1.00  0.00    -0.423 NA 
HETATM   27  H   UNL     1     -10.036  16.316  64.197  1.00  0.00     0.000 HD 
BRANCH  26  28
HETATM   28  O   UNL     1     -10.829  14.413  64.455  1.00  0.00    -0.366 OA 
HETATM   29  C   UNL     1     -12.238  14.414  64.393  1.00  0.00    -0.458 C  
ENDBRANCH  26  28
ENDBRANCH  17  26
ENDBRANCH  14  17
ENDBRANCH  11  13
TORSDOF 5
ENDMDL
MODEL       10
REMARK 921   NORMALIZED FREE ENERGY PREDICTED BY IDOCK:   -6.80 KCAL/MOL
REMARK 922        TOTAL FREE ENERGY PREDICTED BY IDOCK:   -9.55 KCAL/MOL
REMARK 923 INTER-LIGAND FREE ENERGY PREDICTED BY IDOCK:   -8.63 KCAL/MOL
REMARK 924 INTRA-LIGAND FREE ENERGY PREDICTED BY IDOCK:   -0.92 KCAL/MOL
REMARK 927      BINDING AFFINITY PREDICTED BY RF-SCORE:    0.00 PKD
ROOT
HETATM    1  CE  UNL     1     -10.791  13.213  67.329  1.00  0.00    -0.257 C  
HETATM    2  SD  UNL     1      -9.213  13.724  67.915  1.00  0.00    -0.208 SA 
HETATM    3  CG  UNL     1      -8.825  15.160  66.867  1.00  0.00    -0.256 C  
HETATM    4  CB  UNL     1      -9.848  15.575  65.870  1.00  0.00    -0.385 C  
HETATM    5  CA  UNL     1     -10.969  14.928  65.512  1.00  0.00    -0.350 C  
HETATM    6  N   UNL     1     -11.276  13.731  66.095  1.00  0.00    -0.297 N  
HETATM    7  C   UNL     1     -11.751  15.525  64.383  1.00  0.00    -0.242 C  
HETATM    8  C   UNL     1     -12.079  12.672  65.791  1.00  0.00    -0.423 C  
HETATM    9  O   UNL     1     -12.831  14.892  63.954  1.00  0.00    -0.697 OA 
HETATM   10  OXT UNL     1     -11.426  16.592  63.857  1.00  0.00    -1.186 OA 
HETATM   11  CA  UNL     1     -11.255  11.784  66.782  1.00  0.00    -0.328 C  
HETATM   12  O   UNL     1     -12.901  12.538  64.946  1.00  0.00    -0.758 OA 
ENDROOT
BRANCH  11  13
HETATM   13  N   UNL     1     -10.535  10.685  66.033  1.00  0.00    -0.217 N  
HETATM   14  C   UNL     1     -10.019   9.421  66.355  1.00  0.00    -0.276 C  
HETATM   15  H   UNL     1     -10.388  10.922  65.052  1.00  0.00     0.000 HD 
HETATM   16  O   UNL     1      -9.397   8.824  65.476  1.00  0.00    -0.192 OA 
BRANCH  14  17
HETATM   17  C   UNL     1     -10.337   8.686  67.648  1.00  0.00    -0.254 C  
BRANCH  17  18
HETATM   18  C   UNL     1      -9.649   9.017  68.906  1.00  0.00    -0.156 A  
HETATM   19  N   UNL     1      -8.931  10.201  69.029  1.00  0.00    -0.156 NA 
HETATM   20  C   UNL     1      -9.390   8.107  69.927  1.00  0.00    -0.159 A  
HETATM   21  N   UNL     1      -7.026  10.981  70.100  1.00  0.00    -0.461 NA 
HETATM   22  H2  UNL     1      -6.319  10.821  70.818  1.00  0.00     0.000 HD 
HETATM   23  S   UNL     1      -8.123   8.685  70.930  1.00  0.00    -0.151 SA 
HETATM   24  H1  UNL     1      -6.960  11.815  69.518  1.00  0.00     0.000 HD 
HETATM   25  C   UNL     1      -8.012  10.088  69.951  1.00  0.00    -0.171 A  
ENDBRANCH  17  18
BRANCH  17  26
HETATM   26  N   UNL     1     -11.006   7.573  67.772  1.00  0.00    -0.502 NA 
HETATM   27  H   UNL     1     -11.312   7.311  68.709  1.00  0.00     0.000 HD 
BRANCH  26  28
HETATM   28  O   UNL     1     -11.338   6.710  66.721  1.00  0.00    -0.270 OA 
HETATM   29  C   UNL     1     -10.545   5.571  66.467  1.00  0.00    -0.279 C  
ENDBRANCH  26  28
ENDBRANCH  17  26
ENDBRANCH  14  17
ENDBRANCH  11  13
TORSDOF 5
ENDMDL
MODEL       11
REMARK 921   NORMALIZED FREE ENERGY PREDICTED BY IDOCK:   -6.77 KCAL/MOL
REMARK 922        TOTAL FREE ENERGY PREDICTED BY IDOCK:   -9.51 KCAL/MOL
REMARK 923 INTER-LIGAND FREE ENERGY PREDICTED BY IDOCK:   -8.76 KCAL/MOL
REMARK 924 INTRA-LIGAND FREE ENERGY PREDICTED BY IDOCK:   -0.75 KCAL/MOL
REMARK 927      BINDING AFFINITY PREDICTED BY RF-SCORE:    0.00 PKD
ROOT
HETATM    1  CE  UNL     1     -11.577  13.623  67.667  1.00  0.00    -0.346 C  
HETATM    2  SD  UNL     1     -10.251  14.351  68.565  1.00  0.00    -0.246 SA 
HETATM    3  CG  UNL     1      -9.686  15.686  67.464  1.00  0.00    -0.222 C  
HETATM    4  CB  UNL     1     -10.428  15.880  66.189  1.00  0.00    -0.336 C  
HETATM    5  CA  UNL     1     -11.367  15.088  65.646  1.00  0.00    -0.297 C  
HETATM    6  N   UNL     1     -11.743  13.943  66.289  1.00  0.00    -0.365 N  
HETATM    7  C   UNL     1     -11.852  15.469  64.281  1.00  0.00    -0.173 C  
HETATM    8  C   UNL     1     -12.366  12.783  65.938  1.00  0.00    -0.252 C  
HETATM    9  O   UNL     1     -12.733  14.688  63.680  1.00  0.00    -0.735 OA 
HETATM   10  OXT UNL     1     -11.465  16.494  63.714  1.00  0.00    -1.065 OA 
HETATM   11  CA  UNL     1     -11.785  12.101  67.222  1.00  0.00    -0.299 C  
HETATM   12  O   UNL     1     -12.919  12.471  64.936  1.00  0.00    -0.821 OA 
ENDROOT
BRANCH  11  13
HETATM   13  N   UNL     1     -10.821  10.998  66.845  1.00  0.00    -0.276 N  
HETATM   14  C   UNL     1      -9.868  10.222  67.521  1.00  0.00    -0.173 C  
HETATM   15  H   UNL     1     -10.878  10.760  65.855  1.00  0.00     0.000 HD 
HETATM   16  O   UNL     1      -9.184   9.453  66.847  1.00  0.00    -0.135 OA 
BRANCH  14  17
HETATM   17  C   UNL     1      -9.763  10.150  69.037  1.00  0.00    -0.206 C  
BRANCH  17  18
HETATM   18  C   UNL     1     -10.906   9.738  69.867  1.00  0.00    -0.272 A  
HETATM   19  N   UNL     1     -11.847  10.672  70.286  1.00  0.00    -0.312 NA 
HETATM   20  C   UNL     1     -10.993   8.525  70.543  1.00  0.00    -0.241 A  
HETATM   21  N   UNL     1     -13.206  11.070  72.124  1.00  0.00    -0.583 NA 
HETATM   22  H2  UNL     1     -13.621  10.703  72.980  1.00  0.00     0.000 HD 
HETATM   23  S   UNL     1     -12.146   8.634  71.810  1.00  0.00    -0.366 SA 
HETATM   24  H1  UNL     1     -13.385  12.040  71.865  1.00  0.00     0.000 HD 
HETATM   25  C   UNL     1     -12.445  10.265  71.374  1.00  0.00    -0.424 A  
ENDBRANCH  17  18
BRANCH  17  26
HETATM   26  N   UNL     1      -8.816  10.656  69.780  1.00  0.00    -0.347 NA 
HETATM   27  H   UNL     1      -9.091  11.330  70.496  1.00  0.00     0.000 HD 
BRANCH  26  28
HETATM   28  O   UNL     1      -7.456  10.348  69.674  1.00  0.00    -0.136 OA 
HETATM   29  C   UNL     1      -6.486  11.340  69.929  1.00  0.00    -0.132 C  
ENDBRANCH  26  28
ENDBRANCH  17  26
ENDBRANCH  14  17
ENDBRANCH  11  13
TORSDOF 5
ENDMDL
MODEL       12
REMARK 921   NORMALIZED FREE ENERGY PREDICTED BY IDOCK:   -6.75 KCAL/MOL
REMARK 922        TOTAL FREE ENERGY PREDICTED BY IDOCK:   -9.49 KCAL/MOL
REMARK 923 INTER-LIGAND FREE ENERGY PREDICTED BY IDOCK:   -8.40 KCAL/MOL
REMARK 924 INTRA-LIGAND FREE ENERGY PREDICTED BY IDOCK:   -1.09 KCAL/MOL
REMARK 927      BINDING AFFINITY PREDICTED BY RF-SCORE:    0.00 PKD
ROOT
HETATM    1  CE  UNL     1     -11.191  11.887  63.897  1.00  0.00    -0.420 C  
HETATM    2  SD  UNL     1      -9.680  11.440  63.114  1.00  0.00    -0.372 SA 
HETATM    3  CG  UNL     1      -8.793  10.525  64.413  1.00  0.00    -0.197 C  
HETATM    4  CB  UNL     1      -9.491  10.334  65.712  1.00  0.00    -0.255 C  
HETATM    5  CA  UNL     1     -10.638  10.895  66.129  1.00  0.00    -0.206 C  
HETATM    6  N   UNL     1     -11.305  11.761  65.311  1.00  0.00    -0.267 N  
HETATM    7  C   UNL     1     -11.039  10.617  67.546  1.00  0.00    -0.300 C  
HETATM    8  C   UNL     1     -12.249  12.731  65.473  1.00  0.00    -0.463 C  
HETATM    9  O   UNL     1     -12.130  11.195  68.021  1.00  0.00    -0.635 OA 
HETATM   10  OXT UNL     1     -10.393   9.855  68.269  1.00  0.00    -0.181 OA 
HETATM   11  CA  UNL     1     -11.845  13.334  64.087  1.00  0.00    -0.443 C  
HETATM   12  O   UNL     1     -12.903  13.028  66.418  1.00  0.00    -0.067 OA 
ENDROOT
BRANCH  11  13
HETATM   13  N   UNL     1     -11.255  14.715  64.262  1.00  0.00    -0.622 N  
HETATM   14  C   UNL     1     -10.556  15.389  65.276  1.00  0.00    -0.428 C  
HETATM   15  H   UNL     1     -11.400  15.303  63.441  1.00  0.00     0.000 HD 
HETATM   16  O   UNL     1     -10.303  16.579  65.093  1.00  0.00    -0.618 OA 
BRANCH  14  17
HETATM   17  C   UNL     1      -9.950  14.694  66.485  1.00  0.00    -0.281 C  
BRANCH  17  18
HETATM   18  C   UNL     1     -10.482  14.909  67.840  1.00  0.00    -0.250 A  
HETATM   19  N   UNL     1     -10.498  13.872  68.765  1.00  0.00    -0.237 NA 
HETATM   20  C   UNL     1     -11.263  15.997  68.217  1.00  0.00    -0.350 A  
HETATM   21  N   UNL     1     -11.822  13.121  70.517  1.00  0.00    -0.535 NA 
HETATM   22  H2  UNL     1     -12.573  13.328  71.175  1.00  0.00     0.000 HD 
HETATM   23  S   UNL     1     -12.139  15.631  69.647  1.00  0.00    -0.229 SA 
HETATM   24  H1  UNL     1     -11.398  12.194  70.528  1.00  0.00     0.000 HD 
HETATM   25  C   UNL     1     -11.425  14.073  69.665  1.00  0.00    -0.258 A  
ENDBRANCH  17  18
BRANCH  17  26
HETATM   26  N   UNL     1      -8.804  14.072  66.537  1.00  0.00    -0.466 NA 
HETATM   27  H   UNL     1      -8.735  13.174  66.056  1.00  0.00     0.000 HD 
BRANCH  26  28
HETATM   28  O   UNL     1      -7.662  14.538  67.199  1.00  0.00    -0.184 OA 
HETATM   29  C   UNL     1      -6.905  13.659  68.002  1.00  0.00    -0.138 C  
ENDBRANCH  26  28
ENDBRANCH  17  26
ENDBRANCH  14  17
ENDBRANCH  11  13
TORSDOF 5
ENDMDL
MODEL       13
REMARK 921   NORMALIZED FREE ENERGY PREDICTED BY IDOCK:   -6.71 KCAL/MOL
REMARK 922        TOTAL FREE ENERGY PREDICTED BY IDOCK:   -9.44 KCAL/MOL
REMARK 923 INTER-LIGAND FREE ENERGY PREDICTED BY IDOCK:   -8.57 KCAL/MOL
REMARK 924 INTRA-LIGAND FREE ENERGY PREDICTED BY IDOCK:   -0.87 KCAL/MOL
REMARK 927      BINDING AFFINITY PREDICTED BY RF-SCORE:    0.00 PKD
ROOT
HETATM    1  CE  UNL     1     -11.695  12.756  68.140  1.00  0.00    -0.345 C  
HETATM    2  SD  UNL     1     -10.642  11.605  67.327  1.00  0.00    -0.239 SA 
HETATM    3  CG  UNL     1     -10.637  10.177  68.456  1.00  0.00    -0.216 C  
HETATM    4  CB  UNL     1     -11.480  10.270  69.679  1.00  0.00    -0.297 C  
HETATM    5  CA  UNL     1     -12.126  11.344  70.163  1.00  0.00    -0.357 C  
HETATM    6  N   UNL     1     -12.047  12.536  69.502  1.00  0.00    -0.235 N  
HETATM    7  C   UNL     1     -12.797  11.175  71.492  1.00  0.00    -0.437 C  
HETATM    8  C   UNL     1     -12.258  13.846  69.817  1.00  0.00    -0.332 C  
HETATM    9  O   UNL     1     -13.395  12.220  72.037  1.00  0.00    -0.506 OA 
HETATM   10  OXT UNL     1     -12.819  10.089  72.077  1.00  0.00    -0.408 OA 
HETATM   11  CA  UNL     1     -11.399  14.266  68.578  1.00  0.00    -0.282 C  
HETATM   12  O   UNL     1     -12.733  14.345  70.783  1.00  0.00    -0.331 OA 
ENDROOT
BRANCH  11  13
HETATM   13  N   UNL     1     -10.143  14.981  69.023  1.00  0.00    -0.234 N  
HETATM   14  C   UNL     1      -9.102  15.674  68.386  1.00  0.00    -0.190 C  
HETATM   15  H   UNL     1     -10.023  14.953  70.036  1.00  0.00     0.000 HD 
HETATM   16  O   UNL     1      -8.168  16.060  69.089  1.00  0.00    -0.226 OA 
BRANCH  14  17
HETATM   17  C   UNL     1      -9.153  16.122  66.934  1.00  0.00    -0.218 C  
BRANCH  17  18
HETATM   18  C   UNL     1      -9.408  17.525  66.572  1.00  0.00    -0.265 A  
HETATM   19  N   UNL     1      -8.405  18.299  65.998  1.00  0.00    -0.507 NA 
HETATM   20  C   UNL     1     -10.491  18.272  67.025  1.00  0.00    -0.385 A  
HETATM   21  N   UNL     1      -7.691  20.507  66.002  1.00  0.00    -0.524 NA 
HETATM   22  H2  UNL     1      -7.906  21.478  66.228  1.00  0.00     0.000 HD 
HETATM   23  S   UNL     1     -10.160  19.949  66.873  1.00  0.00    -0.480 SA 
HETATM   24  H1  UNL     1      -6.775  20.281  65.616  1.00  0.00     0.000 HD 
HETATM   25  C   UNL     1      -8.619  19.569  66.223  1.00  0.00    -0.361 A  
ENDBRANCH  17  18
BRANCH  17  26
HETATM   26  N   UNL     1      -9.242  15.355  65.881  1.00  0.00    -0.409 NA 
HETATM   27  H   UNL     1      -8.585  14.577  65.811  1.00  0.00     0.000 HD 
BRANCH  26  28
HETATM   28  O   UNL     1     -10.166  15.514  64.843  1.00  0.00    -0.374 OA 
HETATM   29  C   UNL     1     -11.370  14.780  64.851  1.00  0.00    -0.410 C  
ENDBRANCH  26  28
ENDBRANCH  17  26
ENDBRANCH  14  17
ENDBRANCH  11  13
TORSDOF 5
ENDMDL
MODEL       14
REMARK 921   NORMALIZED FREE ENERGY PREDICTED BY IDOCK:   -6.70 KCAL/MOL
REMARK 922        TOTAL FREE ENERGY PREDICTED BY IDOCK:   -9.42 KCAL/MOL
REMARK 923 INTER-LIGAND FREE ENERGY PREDICTED BY IDOCK:   -8.56 KCAL/MOL
REMARK 924 INTRA-LIGAND FREE ENERGY PREDICTED BY IDOCK:   -0.86 KCAL/MOL
REMARK 927      BINDING AFFINITY PREDICTED BY RF-SCORE:    0.00 PKD
ROOT
HETATM    1  CE  UNL     1      -8.888  16.816  67.563  1.00  0.00    -0.200 C  
HETATM    2  SD  UNL     1      -7.446  15.931  67.082  1.00  0.00    -0.228 SA 
HETATM    3  CG  UNL     1      -6.226  17.250  66.790  1.00  0.00    -0.200 C  
HETATM    4  CB  UNL     1      -6.660  18.650  67.042  1.00  0.00    -0.201 C  
HETATM    5  CA  UNL     1      -7.899  19.102  67.299  1.00  0.00    -0.253 C  
HETATM    6  N   UNL     1      -8.943  18.223  67.352  1.00  0.00    -0.255 N  
HETATM    7  C   UNL     1      -8.061  20.589  67.385  1.00  0.00    -0.295 C  
HETATM    8  C   UNL     1     -10.300  18.309  67.255  1.00  0.00    -0.390 C  
HETATM    9  O   UNL     1      -9.272  21.085  67.577  1.00  0.00    -0.237 OA 
HETATM   10  OXT UNL     1      -7.099  21.356  67.298  1.00  0.00    -0.565 OA 
HETATM   11  CA  UNL     1     -10.357  16.779  66.933  1.00  0.00    -0.294 C  
HETATM   12  O   UNL     1     -11.019  19.253  67.231  1.00  0.00    -0.483 OA 
ENDROOT
BRANCH  11  13
HETATM   13  N   UNL     1     -10.870  16.553  65.528  1.00  0.00    -0.256 N  
HETATM   14  C   UNL     1     -11.535  15.517  64.855  1.00  0.00    -0.279 C  
HETATM   15  H   UNL     1     -10.686  17.351  64.919  1.00  0.00     0.000 HD 
HETATM   16  O   UNL     1     -11.720  15.656  63.646  1.00  0.00    -0.215 OA 
BRANCH  14  17
HETATM   17  C   UNL     1     -12.188  14.338  65.560  1.00  0.00    -0.402 C  
BRANCH  17  18
HETATM   18  C   UNL     1     -11.559  13.698  66.726  1.00  0.00    -0.364 A  
HETATM   19  N   UNL     1     -12.096  13.864  67.998  1.00  0.00    -0.343 NA 
HETATM   20  C   UNL     1     -10.274  13.164  66.736  1.00  0.00    -0.252 A  
HETATM   21  N   UNL     1     -11.360  14.031  70.192  1.00  0.00    -0.483 NA 
HETATM   22  H2  UNL     1     -10.594  13.900  70.852  1.00  0.00     0.000 HD 
HETATM   23  S   UNL     1      -9.697  13.036  68.347  1.00  0.00    -0.147 SA 
HETATM   24  H1  UNL     1     -12.241  14.420  70.528  1.00  0.00     0.000 HD 
HETATM   25  C   UNL     1     -11.178  13.689  68.911  1.00  0.00    -0.270 A  
ENDBRANCH  17  18
BRANCH  17  26
HETATM   26  N   UNL     1     -13.175  13.610  65.116  1.00  0.00    -0.667 NA 
HETATM   27  H   UNL     1     -14.110  14.020  65.141  1.00  0.00     0.000 HD 
BRANCH  26  28
HETATM   28  O   UNL     1     -13.056  12.311  64.608  1.00  0.00    -0.770 OA 
HETATM   29  C   UNL     1     -12.489  12.102  63.333  1.00  0.00    -0.512 C  
ENDBRANCH  26  28
ENDBRANCH  17  26
ENDBRANCH  14  17
ENDBRANCH  11  13
TORSDOF 5
ENDMDL
MODEL       15
REMARK 921   NORMALIZED FREE ENERGY PREDICTED BY IDOCK:   -6.69 KCAL/MOL
REMARK 922        TOTAL FREE ENERGY PREDICTED BY IDOCK:   -9.41 KCAL/MOL
REMARK 923 INTER-LIGAND FREE ENERGY PREDICTED BY IDOCK:   -8.61 KCAL/MOL
REMARK 924 INTRA-LIGAND FREE ENERGY PREDICTED BY IDOCK:   -0.80 KCAL/MOL
REMARK 927      BINDING AFFINITY PREDICTED BY RF-SCORE:    0.00 PKD
ROOT
HETATM    1  CE  UNL     1      -9.247  16.734  68.561  1.00  0.00    -0.243 C  
HETATM    2  SD  UNL     1      -8.472  15.187  68.239  1.00  0.00    -0.158 SA 
HETATM    3  CG  UNL     1      -6.706  15.617  68.155  1.00  0.00    -0.125 C  
HETATM    4  CB  UNL     1      -6.335  17.037  68.398  1.00  0.00    -0.150 C  
HETATM    5  CA  UNL     1      -7.149  18.100  68.508  1.00  0.00    -0.257 C  
HETATM    6  N   UNL     1      -8.500  17.934  68.395  1.00  0.00    -0.291 N  
HETATM    7  C   UNL     1      -6.485  19.438  68.625  1.00  0.00    -0.258 C  
HETATM    8  C   UNL     1      -9.566  18.740  68.126  1.00  0.00    -0.332 C  
HETATM    9  O   UNL     1      -7.244  20.521  68.676  1.00  0.00    -0.087 OA 
HETATM   10  OXT UNL     1      -5.259  19.554  68.690  1.00  0.00    -0.188 OA 
HETATM   11  CA  UNL     1     -10.406  17.475  67.745  1.00  0.00    -0.367 C  
HETATM   12  O   UNL     1      -9.645  19.921  68.043  1.00  0.00    -0.354 OA 
ENDROOT
BRANCH  11  13
HETATM   13  N   UNL     1     -10.774  17.507  66.279  1.00  0.00    -0.169 N  
HETATM   14  C   UNL     1     -11.130  16.556  65.311  1.00  0.00    -0.076 C  
HETATM   15  H   UNL     1     -10.760  18.454  65.900  1.00  0.00     0.000 HD 
HETATM   16  O   UNL     1     -11.280  16.953  64.156  1.00  0.00    -1.176 OA 
BRANCH  14  17
HETATM   17  C   UNL     1     -11.508  15.120  65.641  1.00  0.00    -0.192 C  
BRANCH  17  18
HETATM   18  C   UNL     1     -11.319  14.034  64.666  1.00  0.00    -0.375 A  
HETATM   19  N   UNL     1     -12.401  13.530  63.952  1.00  0.00    -0.690 NA 
HETATM   20  C   UNL     1     -10.185  13.231  64.590  1.00  0.00    -0.313 A  
HETATM   21  N   UNL     1     -13.120  11.504  63.079  1.00  0.00    -0.683 NA 
HETATM   22  H2  UNL     1     -12.880  10.547  62.822  1.00  0.00     0.000 HD 
HETATM   23  S   UNL     1     -10.546  11.772  63.761  1.00  0.00    -0.462 SA 
HETATM   24  H1  UNL     1     -14.082  11.822  62.960  1.00  0.00     0.000 HD 
HETATM   25  C   UNL     1     -12.164  12.306  63.562  1.00  0.00    -0.568 A  
ENDBRANCH  17  18
BRANCH  17  26
HETATM   26  N   UNL     1     -12.240  14.714  66.642  1.00  0.00    -0.377 NA 
HETATM   27  H   UNL     1     -12.998  15.326  66.948  1.00  0.00     0.000 HD 
BRANCH  26  28
HETATM   28  O   UNL     1     -12.069  13.507  67.330  1.00  0.00    -0.368 OA 
HETATM   29  C   UNL     1     -11.752  13.518  68.704  1.00  0.00    -0.354 C  
ENDBRANCH  26  28
ENDBRANCH  17  26
ENDBRANCH  14  17
ENDBRANCH  11  13
TORSDOF 5
ENDMDL
MODEL       16
REMARK 921   NORMALIZED FREE ENERGY PREDICTED BY IDOCK:   -6.67 KCAL/MOL
REMARK 922        TOTAL FREE ENERGY PREDICTED BY IDOCK:   -9.38 KCAL/MOL
REMARK 923 INTER-LIGAND FREE ENERGY PREDICTED BY IDOCK:   -8.74 KCAL/MOL
REMARK 924 INTRA-LIGAND FREE ENERGY PREDICTED BY IDOCK:   -0.64 KCAL/MOL
REMARK 927      BINDING AFFINITY PREDICTED BY RF-SCORE:    0.00 PKD
ROOT
HETATM    1  CE  UNL     1     -10.141  12.682  66.063  1.00  0.00    -0.262 C  
HETATM    2  SD  UNL     1     -11.271  11.621  65.230  1.00  0.00    -0.140 SA 
HETATM    3  CG  UNL     1     -12.225  12.766  64.185  1.00  0.00    -0.429 C  
HETATM    4  CB  UNL     1     -11.846  14.204  64.226  1.00  0.00    -0.420 C  
HETATM    5  CA  UNL     1     -10.994  14.815  65.066  1.00  0.00    -0.414 C  
HETATM    6  N   UNL     1     -10.356  14.089  66.031  1.00  0.00    -0.297 N  
HETATM    7  C   UNL     1     -10.905  16.307  64.956  1.00  0.00    -0.320 C  
HETATM    8  C   UNL     1      -9.724  14.366  67.206  1.00  0.00    -0.233 C  
HETATM    9  O   UNL     1     -10.125  16.960  65.801  1.00  0.00    -0.502 OA 
HETATM   10  OXT UNL     1     -11.523  16.935  64.092  1.00  0.00    -1.174 OA 
HETATM   11  CA  UNL     1      -9.896  12.869  67.632  1.00  0.00    -0.211 C  
HETATM   12  O   UNL     1      -9.408  15.400  67.694  1.00  0.00    -0.201 OA 
ENDROOT
BRANCH  11  13
HETATM   13  N   UNL     1     -10.805  12.763  68.836  1.00  0.00    -0.342 N  
HETATM   14  C   UNL     1     -11.523  11.735  69.465  1.00  0.00    -0.295 C  
HETATM   15  H   UNL     1     -10.925  13.660  69.307  1.00  0.00     0.000 HD 
HETATM   16  O   UNL     1     -12.251  12.049  70.406  1.00  0.00    -0.334 OA 
BRANCH  14  17
HETATM   17  C   UNL     1     -11.315  10.258  69.167  1.00  0.00    -0.186 C  
BRANCH  17  18
HETATM   18  C   UNL     1     -10.799   9.335  70.190  1.00  0.00    -0.242 A  
HETATM   19  N   UNL     1     -11.672   8.578  70.963  1.00  0.00    -0.283 NA 
HETATM   20  C   UNL     1      -9.498   9.352  70.683  1.00  0.00    -0.262 A  
HETATM   21  N   UNL     1     -11.805   7.737  73.122  1.00  0.00    -0.634 NA 
HETATM   22  H2  UNL     1     -11.317   7.528  73.993  1.00  0.00     0.000 HD 
HETATM   23  S   UNL     1      -9.429   8.556  72.202  1.00  0.00    -0.304 SA 
HETATM   24  H1  UNL     1     -12.806   7.553  73.060  1.00  0.00     0.000 HD 
HETATM   25  C   UNL     1     -11.112   8.246  72.097  1.00  0.00    -0.328 A  
ENDBRANCH  17  18
BRANCH  17  26
HETATM   26  N   UNL     1     -11.306   9.691  67.992  1.00  0.00    -0.485 NA 
HETATM   27  H   UNL     1     -12.197   9.615  67.500  1.00  0.00     0.000 HD 
BRANCH  26  28
HETATM   28  O   UNL     1     -10.172   9.177  67.353  1.00  0.00    -0.212 OA 
HETATM   29  C   UNL     1     -10.246   7.947  66.666  1.00  0.00    -0.233 C  
ENDBRANCH  26  28
ENDBRANCH  17  26
ENDBRANCH  14  17
ENDBRANCH  11  13
TORSDOF 5
ENDMDL
MODEL       17
REMARK 921   NORMALIZED FREE ENERGY PREDICTED BY IDOCK:   -6.62 KCAL/MOL
REMARK 922        TOTAL FREE ENERGY PREDICTED BY IDOCK:   -9.32 KCAL/MOL
REMARK 923 INTER-LIGAND FREE ENERGY PREDICTED BY IDOCK:   -8.41 KCAL/MOL
REMARK 924 INTRA-LIGAND FREE ENERGY PREDICTED BY IDOCK:   -0.91 KCAL/MOL
REMARK 927      BINDING AFFINITY PREDICTED BY RF-SCORE:    0.00 PKD
ROOT
HETATM    1  CE  UNL     1     -11.783  12.582  66.731  1.00  0.00    -0.384 C  
HETATM    2  SD  UNL     1     -12.370  14.012  65.892  1.00  0.00    -0.467 SA 
HETATM    3  CG  UNL     1     -11.774  13.770  64.189  1.00  0.00    -0.364 C  
HETATM    4  CB  UNL     1     -11.032  12.514  63.898  1.00  0.00    -0.471 C  
HETATM    5  CA  UNL     1     -10.584  11.593  64.767  1.00  0.00    -0.304 C  
HETATM    6  N   UNL     1     -10.803  11.761  66.105  1.00  0.00    -0.281 N  
HETATM    7  C   UNL     1      -9.750  10.487  64.195  1.00  0.00    -0.327 C  
HETATM    8  C   UNL     1     -10.259  11.270  67.254  1.00  0.00    -0.194 C  
HETATM    9  O   UNL     1      -9.237   9.589  65.019  1.00  0.00    -0.230 OA 
HETATM   10  OXT UNL     1      -9.545  10.385  62.983  1.00  0.00    -0.313 OA 
HETATM   11  CA  UNL     1     -10.870  12.478  68.040  1.00  0.00    -0.225 C  
HETATM   12  O   UNL     1      -9.479  10.394  67.432  1.00  0.00    -0.148 OA 
ENDROOT
BRANCH  11  13
HETATM   13  N   UNL     1      -9.772  13.354  68.601  1.00  0.00    -0.390 N  
HETATM   14  C   UNL     1      -9.698  14.639  69.160  1.00  0.00    -0.103 C  
HETATM   15  H   UNL     1      -8.860  12.898  68.564  1.00  0.00     0.000 HD 
HETATM   16  O   UNL     1      -8.580  15.072  69.434  1.00  0.00    -0.192 OA 
BRANCH  14  17
HETATM   17  C   UNL     1     -10.915  15.436  69.602  1.00  0.00    -0.284 C  
BRANCH  17  18
HETATM   18  C   UNL     1     -11.551  15.204  70.909  1.00  0.00    -0.338 A  
HETATM   19  N   UNL     1     -12.204  14.005  71.173  1.00  0.00    -0.354 NA 
HETATM   20  C   UNL     1     -11.829  16.201  71.839  1.00  0.00    -0.525 A  
HETATM   21  N   UNL     1     -14.038  13.250  72.379  1.00  0.00    -0.649 NA 
HETATM   22  H2  UNL     1     -14.733  13.449  73.098  1.00  0.00     0.000 HD 
HETATM   23  S   UNL     1     -13.037  15.669  72.935  1.00  0.00    -0.571 SA 
HETATM   24  H1  UNL     1     -14.077  12.358  71.887  1.00  0.00     0.000 HD 
HETATM   25  C   UNL     1     -13.103  14.169  72.108  1.00  0.00    -0.401 A  
ENDBRANCH  17  18
BRANCH  17  26
HETATM   26  N   UNL     1     -11.675  16.186  68.851  1.00  0.00    -0.323 NA 
HETATM   27  H   UNL     1     -12.664  16.246  69.095  1.00  0.00     0.000 HD 
BRANCH  26  28
HETATM   28  O   UNL     1     -11.240  16.914  67.737  1.00  0.00    -0.201 OA 
HETATM   29  C   UNL     1     -10.553  18.133  67.916  1.00  0.00    -0.371 C  
ENDBRANCH  26  28
ENDBRANCH  17  26
ENDBRANCH  14  17
ENDBRANCH  11  13
TORSDOF 5
ENDMDL
MODEL       18
REMARK 921   NORMALIZED FREE ENERGY PREDICTED BY IDOCK:   -6.61 KCAL/MOL
REMARK 922        TOTAL FREE ENERGY PREDICTED BY IDOCK:   -9.31 KCAL/MOL
REMARK 923 INTER-LIGAND FREE ENERGY PREDICTED BY IDOCK:   -8.65 KCAL/MOL
REMARK 924 INTRA-LIGAND FREE ENERGY PREDICTED BY IDOCK:   -0.66 KCAL/MOL
REMARK 927      BINDING AFFINITY PREDICTED BY RF-SCORE:    0.00 PKD
ROOT
HETATM    1  CE  UNL     1      -9.287  14.884  66.060  1.00  0.00    -0.241 C  
HETATM    2  SD  UNL     1      -8.863  13.891  67.449  1.00  0.00    -0.217 SA 
HETATM    3  CG  UNL     1     -10.210  12.668  67.514  1.00  0.00    -0.215 C  
HETATM    4  CB  UNL     1     -11.250  12.741  66.452  1.00  0.00    -0.339 C  
HETATM    5  CA  UNL     1     -11.432  13.703  65.533  1.00  0.00    -0.305 C  
HETATM    6  N   UNL     1     -10.594  14.781  65.505  1.00  0.00    -0.333 N  
HETATM    7  C   UNL     1     -12.648  13.574  64.666  1.00  0.00    -0.251 C  
HETATM    8  C   UNL     1     -10.640  16.043  64.991  1.00  0.00    -0.316 C  
HETATM    9  O   UNL     1     -12.902  14.528  63.786  1.00  0.00    -0.669 OA 
HETATM   10  OXT UNL     1     -13.402  12.602  64.742  1.00  0.00    -0.787 OA 
HETATM   11  CA  UNL     1      -9.497  16.467  65.972  1.00  0.00    -0.310 C  
HETATM   12  O   UNL     1     -11.417  16.553  64.253  1.00  0.00    -1.000 OA 
ENDROOT
BRANCH  11  13
HETATM   13  N   UNL     1     -10.002  17.494  66.960  1.00  0.00    -0.299 N  
HETATM   14  C   UNL     1      -9.540  18.040  68.167  1.00  0.00    -0.301 C  
HETATM   15  H   UNL     1     -10.900  17.888  66.679  1.00  0.00     0.000 HD 
HETATM   16  O   UNL     1     -10.288  18.819  68.757  1.00  0.00    -0.323 OA 
BRANCH  14  17
HETATM   17  C   UNL     1      -8.120  17.863  68.683  1.00  0.00    -0.278 C  
BRANCH  17  18
HETATM   18  C   UNL     1      -7.091  18.892  68.464  1.00  0.00    -0.278 A  
HETATM   19  N   UNL     1      -6.320  19.355  69.524  1.00  0.00    -0.301 NA 
HETATM   20  C   UNL     1      -7.001  19.688  67.326  1.00  0.00    -0.207 A  
HETATM   21  N   UNL     1      -5.313  21.329  70.214  1.00  0.00    -0.495 NA 
HETATM   22  H2  UNL     1      -5.009  22.270  69.964  1.00  0.00     0.000 HD 
HETATM   23  S   UNL     1      -6.080  21.097  67.660  1.00  0.00    -0.361 SA 
HETATM   24  H1  UNL     1      -5.187  21.007  71.173  1.00  0.00     0.000 HD 
HETATM   25  C   UNL     1      -5.868  20.555  69.273  1.00  0.00    -0.363 A  
ENDBRANCH  17  18
BRANCH  17  26
HETATM   26  N   UNL     1      -7.578  16.759  69.118  1.00  0.00    -0.221 NA 
HETATM   27  H   UNL     1      -8.091  16.231  69.826  1.00  0.00     0.000 HD 
BRANCH  26  28
HETATM   28  O   UNL     1      -6.350  16.240  68.693  1.00  0.00    -0.118 OA 
HETATM   29  C   UNL     1      -5.298  16.071  69.617  1.00  0.00    -0.118 C  
ENDBRANCH  26  28
ENDBRANCH  17  26
ENDBRANCH  14  17
ENDBRANCH  11  13
TORSDOF 5
ENDMDL
MODEL       19
REMARK 921   NORMALIZED FREE ENERGY PREDICTED BY IDOCK:   -6.61 KCAL/MOL
REMARK 922        TOTAL FREE ENERGY PREDICTED BY IDOCK:   -9.30 KCAL/MOL
REMARK 923 INTER-LIGAND FREE ENERGY PREDICTED BY IDOCK:   -8.47 KCAL/MOL
REMARK 924 INTRA-LIGAND FREE ENERGY PREDICTED BY IDOCK:   -0.83 KCAL/MOL
REMARK 927      BINDING AFFINITY PREDICTED BY RF-SCORE:    0.00 PKD
ROOT
HETATM    1  CE  UNL     1      -9.672   9.334  69.400  1.00  0.00    -0.172 C  
HETATM    2  SD  UNL     1      -8.254   8.858  70.326  1.00  0.00    -0.147 SA 
HETATM    3  CG  UNL     1      -8.935   8.508  71.978  1.00  0.00    -0.231 C  
HETATM    4  CB  UNL     1     -10.406   8.643  72.153  1.00  0.00    -0.403 C  
HETATM    5  CA  UNL     1     -11.301   9.159  71.294  1.00  0.00    -0.336 C  
HETATM    6  N   UNL     1     -10.882   9.638  70.086  1.00  0.00    -0.259 N  
HETATM    7  C   UNL     1     -12.708   9.285  71.794  1.00  0.00    -0.381 C  
HETATM    8  C   UNL     1     -11.382  10.486  69.143  1.00  0.00    -0.257 C  
HETATM    9  O   UNL     1     -13.613   9.841  71.007  1.00  0.00    -0.320 OA 
HETATM   10  OXT UNL     1     -13.044   8.871  72.906  1.00  0.00    -0.339 OA 
HETATM   11  CA  UNL     1      -9.938  10.675  68.571  1.00  0.00    -0.167 C  
HETATM   12  O   UNL     1     -12.457  10.976  69.031  1.00  0.00    -0.449 OA 
ENDROOT
BRANCH  11  13
HETATM   13  N   UNL     1      -9.480  12.105  68.752  1.00  0.00    -0.405 N  
HETATM   14  C   UNL     1      -9.853  13.353  68.231  1.00  0.00    -0.235 C  
HETATM   15  H   UNL     1      -8.710  12.181  69.417  1.00  0.00     0.000 HD 
HETATM   16  O   UNL     1      -9.173  14.326  68.554  1.00  0.00    -0.199 OA 
BRANCH  14  17
HETATM   17  C   UNL     1     -11.136  13.590  67.449  1.00  0.00    -0.281 C  
BRANCH  17  18
HETATM   18  C   UNL     1     -11.337  13.011  66.112  1.00  0.00    -0.314 A  
HETATM   19  N   UNL     1     -10.293  12.366  65.457  1.00  0.00    -0.266 NA 
HETATM   20  C   UNL     1     -12.414  13.302  65.280  1.00  0.00    -0.489 A  
HETATM   21  N   UNL     1      -9.517  12.065  63.291  1.00  0.00    -0.667 NA 
HETATM   22  H2  UNL     1      -9.712  12.133  62.293  1.00  0.00     0.000 HD 
HETATM   23  S   UNL     1     -12.030  12.912  63.654  1.00  0.00    -0.549 SA 
HETATM   24  H1  UNL     1      -8.595  11.753  63.595  1.00  0.00     0.000 HD 
HETATM   25  C   UNL     1     -10.479  12.388  64.164  1.00  0.00    -0.389 A  
ENDBRANCH  17  18
BRANCH  17  26
HETATM   26  N   UNL     1     -12.055  14.481  67.705  1.00  0.00    -0.588 NA 
HETATM   27  H   UNL     1     -12.775  14.629  66.997  1.00  0.00     0.000 HD 
BRANCH  26  28
HETATM   28  O   UNL     1     -12.131  15.250  68.872  1.00  0.00    -0.286 OA 
HETATM   29  C   UNL     1     -12.384  14.626  70.112  1.00  0.00    -0.336 C  
ENDBRANCH  26  28
ENDBRANCH  17  26
ENDBRANCH  14  17
ENDBRANCH  11  13
TORSDOF 5
ENDMDL
MODEL       20
REMARK 921   NORMALIZED FREE ENERGY PREDICTED BY IDOCK:   -6.57 KCAL/MOL
REMARK 922        TOTAL FREE ENERGY PREDICTED BY IDOCK:   -9.26 KCAL/MOL
REMARK 923 INTER-LIGAND FREE ENERGY PREDICTED BY IDOCK:   -9.09 KCAL/MOL
REMARK 924 INTRA-LIGAND FREE ENERGY PREDICTED BY IDOCK:   -0.17 KCAL/MOL
REMARK 927      BINDING AFFINITY PREDICTED BY RF-SCORE:    0.00 PKD
ROOT
HETATM    1  CE  UNL     1     -10.175  12.649  66.179  1.00  0.00    -0.258 C  
HETATM    2  SD  UNL     1     -11.323  11.532  65.452  1.00  0.00     0.010 SA 
HETATM    3  CG  UNL     1     -12.296  12.597  64.343  1.00  0.00    -0.446 C  
HETATM    4  CB  UNL     1     -11.914  14.033  64.266  1.00  0.00    -0.463 C  
HETATM    5  CA  UNL     1     -11.044  14.703  65.040  1.00  0.00    -0.394 C  
HETATM    6  N   UNL     1     -10.388  14.051  66.044  1.00  0.00    -0.297 N  
HETATM    7  C   UNL     1     -10.954  16.182  64.815  1.00  0.00    -0.313 C  
HETATM    8  C   UNL     1      -9.732  14.414  67.183  1.00  0.00    -0.248 C  
HETATM    9  O   UNL     1     -10.156  16.894  65.592  1.00  0.00    -0.546 OA 
HETATM   10  OXT UNL     1     -11.589  16.745  63.919  1.00  0.00    -1.122 OA 
HETATM   11  CA  UNL     1      -9.898  12.955  67.724  1.00  0.00    -0.221 C  
HETATM   12  O   UNL     1      -9.404  15.481  67.583  1.00  0.00    -0.201 OA 
ENDROOT
BRANCH  11  13
HETATM   13  N   UNL     1     -10.782  12.943  68.951  1.00  0.00    -0.374 N  
HETATM   14  C   UNL     1     -11.488  11.968  69.672  1.00  0.00    -0.252 C  
HETATM   15  H   UNL     1     -10.893  13.874  69.353  1.00  0.00     0.000 HD 
HETATM   16  O   UNL     1     -12.197  12.356  70.600  1.00  0.00    -0.368 OA 
BRANCH  14  17
HETATM   17  C   UNL     1     -11.287  10.473  69.485  1.00  0.00    -0.278 C  
BRANCH  17  18
HETATM   18  C   UNL     1     -11.771   9.504  70.481  1.00  0.00    -0.222 A  
HETATM   19  N   UNL     1     -13.052   9.615  71.010  1.00  0.00    -0.288 NA 
HETATM   20  C   UNL     1     -10.956   8.627  71.190  1.00  0.00    -0.260 A  
HETATM   21  N   UNL     1     -14.150   9.216  73.015  1.00  0.00    -1.124 NA 
HETATM   22  H2  UNL     1     -14.128   8.767  73.931  1.00  0.00     0.000 HD 
HETATM   23  S   UNL     1     -11.758   8.086  72.608  1.00  0.00    -0.277 SA 
HETATM   24  H1  UNL     1     -14.958   9.784  72.762  1.00  0.00     0.000 HD 
HETATM   25  C   UNL     1     -13.117   9.041  72.182  1.00  0.00    -0.435 A  
ENDBRANCH  17  18
BRANCH  17  26
HETATM   26  N   UNL     1     -10.490   9.891  68.631  1.00  0.00    -0.198 NA 
HETATM   27  H   UNL     1      -9.486  10.019  68.762  1.00  0.00     0.000 HD 
BRANCH  26  28
HETATM   28  O   UNL     1     -10.903   9.106  67.549  1.00  0.00    -0.242 OA 
HETATM   29  C   UNL     1     -10.524   7.749  67.477  1.00  0.00    -0.268 C  
ENDBRANCH  26  28
ENDBRANCH  17  26
ENDBRANCH  14  17
ENDBRANCH  11  13
TORSDOF 5
ENDMDL
MODEL       21
REMARK 921   NORMALIZED FREE ENERGY PREDICTED BY IDOCK:   -6.54 KCAL/MOL
REMARK 922        TOTAL FREE ENERGY PREDICTED BY IDOCK:   -9.22 KCAL/MOL
REMARK 923 INTER-LIGAND FREE ENERGY PREDICTED BY IDOCK:   -8.27 KCAL/MOL
REMARK 924 INTRA-LIGAND FREE ENERGY PREDICTED BY IDOCK:   -0.95 KCAL/MOL
REMARK 927      BINDING AFFINITY PREDICTED BY RF-SCORE:    0.00 PKD
ROOT
HETATM    1  CE  UNL     1     -11.990  12.435  65.809  1.00  0.00    -0.372 C  
HETATM    2  SD  UNL     1     -12.215  12.745  64.091  1.00  0.00    -0.438 SA 
HETATM    3  CG  UNL     1     -10.732  12.006  63.338  1.00  0.00    -0.417 C  
HETATM    4  CB  UNL     1      -9.769  11.328  64.247  1.00  0.00    -0.295 C  
HETATM    5  CA  UNL     1      -9.754  11.328  65.590  1.00  0.00    -0.230 C  
HETATM    6  N   UNL     1     -10.713  12.015  66.278  1.00  0.00    -0.257 N  
HETATM    7  C   UNL     1      -8.583  10.660  66.243  1.00  0.00    -0.153 C  
HETATM    8  C   UNL     1     -10.846  12.510  67.541  1.00  0.00    -0.232 C  
HETATM    9  O   UNL     1      -8.493  10.686  67.562  1.00  0.00    -0.121 OA 
HETATM   10  OXT UNL     1      -7.716  10.077  65.587  1.00  0.00    -0.123 OA 
HETATM   11  CA  UNL     1     -11.973  13.467  67.030  1.00  0.00    -0.394 C  
HETATM   12  O   UNL     1     -10.177  12.356  68.510  1.00  0.00    -0.226 OA 
ENDROOT
BRANCH  11  13
HETATM   13  N   UNL     1     -11.538  14.910  67.154  1.00  0.00    -0.348 N  
HETATM   14  C   UNL     1     -11.214  15.776  68.209  1.00  0.00    -0.356 C  
HETATM   15  H   UNL     1     -11.461  15.367  66.245  1.00  0.00     0.000 HD 
HETATM   16  O   UNL     1     -10.982  16.950  67.926  1.00  0.00    -0.342 OA 
BRANCH  14  17
HETATM   17  C   UNL     1     -10.964  15.308  69.635  1.00  0.00    -0.284 C  
BRANCH  17  18
HETATM   18  C   UNL     1     -12.066  15.166  70.599  1.00  0.00    -0.329 A  
HETATM   19  N   UNL     1     -12.215  16.076  71.641  1.00  0.00    -0.469 NA 
HETATM   20  C   UNL     1     -12.831  14.014  70.759  1.00  0.00    -0.285 A  
HETATM   21  N   UNL     1     -12.930  16.095  73.848  1.00  0.00    -0.857 NA 
HETATM   22  H2  UNL     1     -13.427  15.607  74.593  1.00  0.00     0.000 HD 
HETATM   23  S   UNL     1     -13.595  14.019  72.296  1.00  0.00    -0.572 SA 
HETATM   24  H1  UNL     1     -12.497  16.996  74.050  1.00  0.00     0.000 HD 
HETATM   25  C   UNL     1     -12.866  15.533  72.635  1.00  0.00    -0.425 A  
ENDBRANCH  17  18
BRANCH  17  26
HETATM   26  N   UNL     1      -9.812  15.231  70.242  1.00  0.00    -0.426 NA 
HETATM   27  H   UNL     1      -9.807  14.866  71.195  1.00  0.00     0.000 HD 
BRANCH  26  28
HETATM   28  O   UNL     1      -8.582  15.607  69.690  1.00  0.00    -0.230 OA 
HETATM   29  C   UNL     1      -7.664  14.620  69.273  1.00  0.00    -0.091 C  
ENDBRANCH  26  28
ENDBRANCH  17  26
ENDBRANCH  14  17
ENDBRANCH  11  13
TORSDOF 5
ENDMDL
MODEL       22
REMARK 921   NORMALIZED FREE ENERGY PREDICTED BY IDOCK:   -6.53 KCAL/MOL
REMARK 922        TOTAL FREE ENERGY PREDICTED BY IDOCK:   -9.19 KCAL/MOL
REMARK 923 INTER-LIGAND FREE ENERGY PREDICTED BY IDOCK:   -8.66 KCAL/MOL
REMARK 924 INTRA-LIGAND FREE ENERGY PREDICTED BY IDOCK:   -0.54 KCAL/MOL
REMARK 927      BINDING AFFINITY PREDICTED BY RF-SCORE:    0.00 PKD
ROOT
HETATM    1  CE  UNL     1      -8.905  17.707  66.961  1.00  0.00    -0.246 C  
HETATM    2  SD  UNL     1      -9.872  18.987  66.237  1.00  0.00    -0.351 SA 
HETATM    3  CG  UNL     1      -9.202  20.497  67.000  1.00  0.00    -0.312 C  
HETATM    4  CB  UNL     1      -8.063  20.339  67.943  1.00  0.00    -0.206 C  
HETATM    5  CA  UNL     1      -7.557  19.202  68.451  1.00  0.00    -0.312 C  
HETATM    6  N   UNL     1      -8.105  18.001  68.102  1.00  0.00    -0.264 N  
HETATM    7  C   UNL     1      -6.484  19.355  69.485  1.00  0.00    -0.320 C  
HETATM    8  C   UNL     1      -8.107  16.739  68.617  1.00  0.00    -0.251 C  
HETATM    9  O   UNL     1      -5.996  18.267  70.058  1.00  0.00    -0.232 OA 
HETATM   10  OXT UNL     1      -6.036  20.460  69.802  1.00  0.00    -0.340 OA 
HETATM   11  CA  UNL     1      -9.381  16.412  67.770  1.00  0.00    -0.213 C  
HETATM   12  O   UNL     1      -7.478  16.261  69.503  1.00  0.00    -0.203 OA 
ENDROOT
BRANCH  11  13
HETATM   13  N   UNL     1     -10.562  16.139  68.674  1.00  0.00    -0.266 N  
HETATM   14  C   UNL     1     -11.600  15.196  68.715  1.00  0.00    -0.349 C  
HETATM   15  H   UNL     1     -10.617  16.806  69.445  1.00  0.00     0.000 HD 
HETATM   16  O   UNL     1     -12.462  15.343  69.581  1.00  0.00    -0.261 OA 
BRANCH  14  17
HETATM   17  C   UNL     1     -11.617  13.926  67.879  1.00  0.00    -0.342 C  
BRANCH  17  18
HETATM   18  C   UNL     1     -11.496  13.972  66.413  1.00  0.00    -0.352 A  
HETATM   19  N   UNL     1     -11.244  15.174  65.762  1.00  0.00    -0.321 NA 
HETATM   20  C   UNL     1     -11.909  12.956  65.556  1.00  0.00    -0.411 A  
HETATM   21  N   UNL     1     -11.782  16.218  63.761  1.00  0.00    -1.488 NA 
HETATM   22  H2  UNL     1     -12.153  16.123  62.816  1.00  0.00     0.000 HD 
HETATM   23  S   UNL     1     -12.135  13.574  63.971  1.00  0.00    -0.398 SA 
HETATM   24  H1  UNL     1     -11.506  17.142  64.092  1.00  0.00     0.000 HD 
HETATM   25  C   UNL     1     -11.672  15.128  64.528  1.00  0.00    -0.328 A  
ENDBRANCH  17  18
BRANCH  17  26
HETATM   26  N   UNL     1     -11.980  12.736  68.271  1.00  0.00    -0.293 NA 
HETATM   27  H   UNL     1     -12.783  12.312  67.805  1.00  0.00     0.000 HD 
BRANCH  26  28
HETATM   28  O   UNL     1     -11.356  11.994  69.280  1.00  0.00    -0.251 OA 
HETATM   29  C   UNL     1     -12.043  11.719  70.481  1.00  0.00    -0.347 C  
ENDBRANCH  26  28
ENDBRANCH  17  26
ENDBRANCH  14  17
ENDBRANCH  11  13
TORSDOF 5
ENDMDL
MODEL       23
REMARK 921   NORMALIZED FREE ENERGY PREDICTED BY IDOCK:   -6.51 KCAL/MOL
REMARK 922        TOTAL FREE ENERGY PREDICTED BY IDOCK:   -9.18 KCAL/MOL
REMARK 923 INTER-LIGAND FREE ENERGY PREDICTED BY IDOCK:   -8.44 KCAL/MOL
REMARK 924 INTRA-LIGAND FREE ENERGY PREDICTED BY IDOCK:   -0.74 KCAL/MOL
REMARK 927      BINDING AFFINITY PREDICTED BY RF-SCORE:    0.00 PKD
ROOT
HETATM    1  CE  UNL     1     -10.862  10.407  69.401  1.00  0.00    -0.248 C  
HETATM    2  SD  UNL     1      -9.141  10.541  69.061  1.00  0.00    -0.164 SA 
HETATM    3  CG  UNL     1      -8.377   9.551  70.383  1.00  0.00    -0.192 C  
HETATM    4  CB  UNL     1      -9.290   8.873  71.342  1.00  0.00    -0.338 C  
HETATM    5  CA  UNL     1     -10.617   9.026  71.475  1.00  0.00    -0.345 C  
HETATM    6  N   UNL     1     -11.285   9.895  70.661  1.00  0.00    -0.319 N  
HETATM    7  C   UNL     1     -11.260   8.303  72.620  1.00  0.00    -0.340 C  
HETATM    8  C   UNL     1     -12.483  10.544  70.694  1.00  0.00    -0.366 C  
HETATM    9  O   UNL     1     -12.555   8.470  72.828  1.00  0.00    -0.307 OA 
HETATM   10  OXT UNL     1     -10.619   7.551  73.358  1.00  0.00    -0.375 OA 
HETATM   11  CA  UNL     1     -11.942  11.563  69.636  1.00  0.00    -0.339 C  
HETATM   12  O   UNL     1     -13.410  10.425  71.424  1.00  0.00    -0.349 OA 
ENDROOT
BRANCH  11  13
HETATM   13  N   UNL     1     -11.852  12.949  70.234  1.00  0.00    -0.535 N  
HETATM   14  C   UNL     1     -11.533  14.230  69.759  1.00  0.00    -0.261 C  
HETATM   15  H   UNL     1     -12.080  12.954  71.229  1.00  0.00     0.000 HD 
HETATM   16  O   UNL     1     -11.477  15.141  70.585  1.00  0.00    -0.266 OA 
BRANCH  14  17
HETATM   17  C   UNL     1     -11.432  14.580  68.283  1.00  0.00    -0.311 C  
BRANCH  17  18
HETATM   18  C   UNL     1     -10.417  15.521  67.785  1.00  0.00    -0.273 A  
HETATM   19  N   UNL     1     -10.769  16.822  67.440  1.00  0.00    -0.288 NA 
HETATM   20  C   UNL     1      -9.155  15.153  67.331  1.00  0.00    -0.191 A  
HETATM   21  N   UNL     1     -10.157  18.441  65.895  1.00  0.00    -0.569 NA 
HETATM   22  H2  UNL     1      -9.471  18.757  65.210  1.00  0.00     0.000 HD 
HETATM   23  S   UNL     1      -8.499  16.387  66.335  1.00  0.00    -0.343 SA 
HETATM   24  H1  UNL     1     -11.003  18.992  66.038  1.00  0.00     0.000 HD 
HETATM   25  C   UNL     1      -9.921  17.314  66.577  1.00  0.00    -0.305 A  
ENDBRANCH  17  18
BRANCH  17  26
HETATM   26  N   UNL     1     -12.319  14.332  67.358  1.00  0.00    -0.591 NA 
HETATM   27  H   UNL     1     -13.160  14.911  67.346  1.00  0.00     0.000 HD 
BRANCH  26  28
HETATM   28  O   UNL     1     -12.209  13.336  66.380  1.00  0.00    -0.402 OA 
HETATM   29  C   UNL     1     -12.232  13.684  65.013  1.00  0.00    -0.421 C  
ENDBRANCH  26  28
ENDBRANCH  17  26
ENDBRANCH  14  17
ENDBRANCH  11  13
TORSDOF 5
ENDMDL
MODEL       24
REMARK 921   NORMALIZED FREE ENERGY PREDICTED BY IDOCK:   -6.40 KCAL/MOL
REMARK 922        TOTAL FREE ENERGY PREDICTED BY IDOCK:   -9.03 KCAL/MOL
REMARK 923 INTER-LIGAND FREE ENERGY PREDICTED BY IDOCK:   -8.32 KCAL/MOL
REMARK 924 INTRA-LIGAND FREE ENERGY PREDICTED BY IDOCK:   -0.71 KCAL/MOL
REMARK 927      BINDING AFFINITY PREDICTED BY RF-SCORE:    0.00 PKD
ROOT
HETATM    1  CE  UNL     1     -11.244  10.237  70.658  1.00  0.00    -0.325 C  
HETATM    2  SD  UNL     1     -12.787  10.459  71.474  1.00  0.00    -0.496 SA 
HETATM    3  CG  UNL     1     -13.315   8.755  71.835  1.00  0.00    -0.389 C  
HETATM    4  CB  UNL     1     -12.394   7.655  71.440  1.00  0.00    -0.358 C  
HETATM    5  CA  UNL     1     -11.283   7.733  70.690  1.00  0.00    -0.268 C  
HETATM    6  N   UNL     1     -10.883   8.940  70.192  1.00  0.00    -0.230 N  
HETATM    7  C   UNL     1     -10.620   6.434  70.345  1.00  0.00    -0.241 C  
HETATM    8  C   UNL     1     -10.069   9.363  69.185  1.00  0.00    -0.195 C  
HETATM    9  O   UNL     1      -9.557   6.453  69.559  1.00  0.00    -0.144 OA 
HETATM   10  OXT UNL     1     -11.029   5.356  70.785  1.00  0.00    -0.184 OA 
HETATM   11  CA  UNL     1     -10.773  10.760  69.222  1.00  0.00    -0.229 C  
HETATM   12  O   UNL     1      -9.315   8.762  68.491  1.00  0.00    -0.141 OA 
ENDROOT
BRANCH  11  13
HETATM   13  N   UNL     1     -11.510  11.015  67.927  1.00  0.00    -0.303 N  
HETATM   14  C   UNL     1     -11.403  11.936  66.873  1.00  0.00    -0.330 C  
HETATM   15  H   UNL     1     -12.275  10.355  67.783  1.00  0.00     0.000 HD 
HETATM   16  O   UNL     1     -12.264  11.894  65.996  1.00  0.00    -0.449 OA 
BRANCH  14  17
HETATM   17  C   UNL     1     -10.201  12.844  66.669  1.00  0.00    -0.247 C  
BRANCH  17  18
HETATM   18  C   UNL     1     -10.363  14.281  66.397  1.00  0.00    -0.286 A  
HETATM   19  N   UNL     1     -11.285  14.721  65.453  1.00  0.00    -0.336 NA 
HETATM   20  C   UNL     1      -9.458  15.265  66.785  1.00  0.00    -0.245 A  
HETATM   21  N   UNL     1     -11.506  16.431  63.900  1.00  0.00    -1.618 NA 
HETATM   22  H2  UNL     1     -11.172  17.335  63.565  1.00  0.00     0.000 HD 
HETATM   23  S   UNL     1      -9.675  16.678  65.835  1.00  0.00    -0.180 SA 
HETATM   24  H1  UNL     1     -12.259  15.964  63.395  1.00  0.00     0.000 HD 
HETATM   25  C   UNL     1     -10.941  15.893  64.987  1.00  0.00    -0.412 A  
ENDBRANCH  17  18
BRANCH  17  26
HETATM   26  N   UNL     1      -8.967  12.475  66.455  1.00  0.00    -0.402 NA 
HETATM   27  H   UNL     1      -8.296  13.201  66.203  1.00  0.00     0.000 HD 
BRANCH  26  28
HETATM   28  O   UNL     1      -8.492  11.161  66.543  1.00  0.00    -0.155 OA 
HETATM   29  C   UNL     1      -8.192  10.440  65.368  1.00  0.00    -0.159 C  
ENDBRANCH  26  28
ENDBRANCH  17  26
ENDBRANCH  14  17
ENDBRANCH  11  13
TORSDOF 5
ENDMDL
MODEL       25
REMARK 921   NORMALIZED FREE ENERGY PREDICTED BY IDOCK:   -6.38 KCAL/MOL
REMARK 922        TOTAL FREE ENERGY PREDICTED BY IDOCK:   -9.01 KCAL/MOL
REMARK 923 INTER-LIGAND FREE ENERGY PREDICTED BY IDOCK:   -8.02 KCAL/MOL
REMARK 924 INTRA-LIGAND FREE ENERGY PREDICTED BY IDOCK:   -0.99 KCAL/MOL
REMARK 927      BINDING AFFINITY PREDICTED BY RF-SCORE:    0.00 PKD
ROOT
HETATM    1  CE  UNL     1     -10.752  14.563  67.849  1.00  0.00    -0.245 C  
HETATM    2  SD  UNL     1      -9.585  15.835  67.512  1.00  0.00    -0.224 SA 
HETATM    3  CG  UNL     1      -9.765  16.101  65.721  1.00  0.00    -0.290 C  
HETATM    4  CB  UNL     1     -10.793  15.295  65.010  1.00  0.00    -0.457 C  
HETATM    5  CA  UNL     1     -11.506  14.258  65.480  1.00  0.00    -0.329 C  
HETATM    6  N   UNL     1     -11.319  13.834  66.765  1.00  0.00    -0.319 N  
HETATM    7  C   UNL     1     -12.382  13.550  64.492  1.00  0.00    -0.355 C  
HETATM    8  C   UNL     1     -11.575  12.694  67.466  1.00  0.00    -0.359 C  
HETATM    9  O   UNL     1     -13.059  12.486  64.893  1.00  0.00    -0.833 OA 
HETATM   10  OXT UNL     1     -12.501  13.941  63.328  1.00  0.00    -0.817 OA 
HETATM   11  CA  UNL     1     -10.527  13.138  68.540  1.00  0.00    -0.251 C  
HETATM   12  O   UNL     1     -12.199  11.727  67.176  1.00  0.00    -0.446 OA 
ENDROOT
BRANCH  11  13
HETATM   13  N   UNL     1      -9.358  12.180  68.567  1.00  0.00    -0.345 N  
HETATM   14  C   UNL     1      -9.098  10.928  69.143  1.00  0.00    -0.042 C  
HETATM   15  H   UNL     1      -8.562  12.531  68.034  1.00  0.00     0.000 HD 
HETATM   16  O   UNL     1      -7.961  10.474  69.019  1.00  0.00    -0.116 OA 
BRANCH  14  17
HETATM   17  C   UNL     1     -10.174  10.038  69.744  1.00  0.00    -0.250 C  
BRANCH  17  18
HETATM   18  C   UNL     1      -9.831   8.816  70.489  1.00  0.00    -0.188 A  
HETATM   19  N   UNL     1     -10.014   7.563  69.912  1.00  0.00    -0.187 NA 
HETATM   20  C   UNL     1      -9.609   8.764  71.861  1.00  0.00    -0.302 A  
HETATM   21  N   UNL     1     -10.592   5.413  70.565  1.00  0.00    -0.266 NA 
HETATM   22  H2  UNL     1     -10.715   4.753  71.333  1.00  0.00     0.000 HD 
HETATM   23  S   UNL     1      -9.800   7.157  72.433  1.00  0.00    -0.152 SA 
HETATM   24  H1  UNL     1     -10.805   5.110  69.615  1.00  0.00     0.000 HD 
HETATM   25  C   UNL     1     -10.157   6.649  70.835  1.00  0.00    -0.187 A  
ENDBRANCH  17  18
BRANCH  17  26
HETATM   26  N   UNL     1     -11.453  10.071  69.485  1.00  0.00    -0.419 NA 
HETATM   27  H   UNL     1     -11.738   9.940  68.513  1.00  0.00     0.000 HD 
BRANCH  26  28
HETATM   28  O   UNL     1     -12.463  10.273  70.432  1.00  0.00    -0.276 OA 
HETATM   29  C   UNL     1     -12.483  11.456  71.201  1.00  0.00    -0.360 C  
ENDBRANCH  26  28
ENDBRANCH  17  26
ENDBRANCH  14  17
ENDBRANCH  11  13
TORSDOF 5
ENDMDL
MODEL       26
REMARK 921   NORMALIZED FREE ENERGY PREDICTED BY IDOCK:   -6.37 KCAL/MOL
REMARK 922        TOTAL FREE ENERGY PREDICTED BY IDOCK:   -8.99 KCAL/MOL
REMARK 923 INTER-LIGAND FREE ENERGY PREDICTED BY IDOCK:   -8.29 KCAL/MOL
REMARK 924 INTRA-LIGAND FREE ENERGY PREDICTED BY IDOCK:   -0.70 KCAL/MOL
REMARK 927      BINDING AFFINITY PREDICTED BY RF-SCORE:    0.00 PKD
ROOT
HETATM    1  CE  UNL     1     -11.345  12.276  69.885  1.00  0.00    -0.007 C  
HETATM    2  SD  UNL     1     -12.392  13.424  70.711  1.00  0.00    -0.291 SA 
HETATM    3  CG  UNL     1     -13.377  12.368  71.818  1.00  0.00    -0.270 C  
HETATM    4  CB  UNL     1     -13.079  10.910  71.816  1.00  0.00    -0.564 C  
HETATM    5  CA  UNL     1     -12.285  10.226  70.975  1.00  0.00    -0.384 C  
HETATM    6  N   UNL     1     -11.635  10.885  69.970  1.00  0.00    -0.312 N  
HETATM    7  C   UNL     1     -12.274   8.737  71.133  1.00  0.00    -0.244 C  
HETATM    8  C   UNL     1     -11.052  10.536  68.789  1.00  0.00    -0.265 C  
HETATM    9  O   UNL     1     -11.554   8.015  70.291  1.00  0.00    -0.156 OA 
HETATM   10  OXT UNL     1     -12.901   8.172  72.033  1.00  0.00    -0.324 OA 
HETATM   11  CA  UNL     1     -11.154  12.025  68.317  1.00  0.00    -0.243 C  
HETATM   12  O   UNL     1     -10.806   9.470  68.328  1.00  0.00    -0.213 OA 
ENDROOT
BRANCH  11  13
HETATM   13  N   UNL     1     -12.089  12.143  67.135  1.00  0.00    -0.057 N  
HETATM   14  C   UNL     1     -12.144  12.925  65.971  1.00  0.00    -0.422 C  
HETATM   15  H   UNL     1     -12.873  11.493  67.198  1.00  0.00     0.000 HD 
HETATM   16  O   UNL     1     -13.137  12.802  65.254  1.00  0.00    -0.658 OA 
BRANCH  14  17
HETATM   17  C   UNL     1     -10.982  13.766  65.467  1.00  0.00    -0.299 C  
BRANCH  17  18
HETATM   18  C   UNL     1     -10.712  15.106  66.011  1.00  0.00    -0.329 A  
HETATM   19  N   UNL     1      -9.825  15.964  65.370  1.00  0.00    -0.424 NA 
HETATM   20  C   UNL     1     -11.037  15.513  67.302  1.00  0.00    -0.271 A  
HETATM   21  N   UNL     1      -8.278  17.603  65.922  1.00  0.00    -0.547 NA 
HETATM   22  H2  UNL     1      -7.918  18.237  66.635  1.00  0.00     0.000 HD 
HETATM   23  S   UNL     1     -10.094  16.876  67.749  1.00  0.00    -0.303 SA 
HETATM   24  H1  UNL     1      -7.825  17.576  65.009  1.00  0.00     0.000 HD 
HETATM   25  C   UNL     1      -9.331  16.830  66.214  1.00  0.00    -0.279 A  
ENDBRANCH  17  18
BRANCH  17  26
HETATM   26  N   UNL     1     -10.279  13.561  64.386  1.00  0.00    -0.669 NA 
HETATM   27  H   UNL     1      -9.523  14.218  64.187  1.00  0.00     0.000 HD 
BRANCH  26  28
HETATM   28  O   UNL     1     -10.478  12.513  63.481  1.00  0.00    -0.420 OA 
HETATM   29  C   UNL     1      -9.661  11.364  63.541  1.00  0.00    -0.339 C  
ENDBRANCH  26  28
ENDBRANCH  17  26
ENDBRANCH  14  17
ENDBRANCH  11  13
TORSDOF 5
ENDMDL
MODEL       27
REMARK 921   NORMALIZED FREE ENERGY PREDICTED BY IDOCK:   -6.36 KCAL/MOL
REMARK 922        TOTAL FREE ENERGY PREDICTED BY IDOCK:   -8.99 KCAL/MOL
REMARK 923 INTER-LIGAND FREE ENERGY PREDICTED BY IDOCK:   -8.28 KCAL/MOL
REMARK 924 INTRA-LIGAND FREE ENERGY PREDICTED BY IDOCK:   -0.71 KCAL/MOL
REMARK 927      BINDING AFFINITY PREDICTED BY RF-SCORE:    0.00 PKD
ROOT
HETATM    1  CE  UNL     1     -11.179  13.551  68.647  1.00  0.00    -0.278 C  
HETATM    2  SD  UNL     1     -10.757  11.846  68.552  1.00  0.00    -0.233 SA 
HETATM    3  CG  UNL     1     -11.581  11.132  70.009  1.00  0.00    -0.338 C  
HETATM    4  CB  UNL     1     -12.392  12.050  70.854  1.00  0.00    -0.384 C  
HETATM    5  CA  UNL     1     -12.467  13.389  70.789  1.00  0.00    -0.341 C  
HETATM    6  N   UNL     1     -11.737  14.064  69.852  1.00  0.00    -0.296 N  
HETATM    7  C   UNL     1     -13.271  14.064  71.857  1.00  0.00    -0.395 C  
HETATM    8  C   UNL     1     -11.302  15.345  69.687  1.00  0.00    -0.307 C  
HETATM    9  O   UNL     1     -13.326  15.385  71.870  1.00  0.00    -0.394 OA 
HETATM   10  OXT UNL     1     -13.892  13.423  72.709  1.00  0.00    -0.720 OA 
HETATM   11  CA  UNL     1     -10.222  14.832  68.678  1.00  0.00    -0.236 C  
HETATM   12  O   UNL     1     -11.568  16.338  70.281  1.00  0.00    -0.306 OA 
ENDROOT
BRANCH  11  13
HETATM   13  N   UNL     1      -8.832  15.065  69.227  1.00  0.00    -0.353 N  
HETATM   14  C   UNL     1      -7.899  16.112  69.187  1.00  0.00    -0.232 C  
HETATM   15  H   UNL     1      -8.489  14.264  69.757  1.00  0.00     0.000 HD 
HETATM   16  O   UNL     1      -6.796  15.904  69.692  1.00  0.00    -0.194 OA 
BRANCH  14  17
HETATM   17  C   UNL     1      -8.233  17.521  68.724  1.00  0.00    -0.222 C  
BRANCH  17  18
HETATM   18  C   UNL     1      -7.192  18.553  68.595  1.00  0.00    -0.287 A  
HETATM   19  N   UNL     1      -6.485  18.986  69.711  1.00  0.00    -0.221 NA 
HETATM   20  C   UNL     1      -7.034  19.380  67.487  1.00  0.00    -0.201 A  
HETATM   21  N   UNL     1      -5.520  20.938  70.513  1.00  0.00    -0.557 NA 
HETATM   22  H2  UNL     1      -5.201  21.885  70.307  1.00  0.00     0.000 HD 
HETATM   23  S   UNL     1      -6.134  20.778  67.913  1.00  0.00    -0.331 SA 
HETATM   24  H1  UNL     1      -5.451  20.590  71.469  1.00  0.00     0.000 HD 
HETATM   25  C   UNL     1      -6.018  20.192  69.520  1.00  0.00    -0.336 A  
ENDBRANCH  17  18
BRANCH  17  26
HETATM   26  N   UNL     1      -9.420  18.056  68.638  1.00  0.00    -0.317 NA 
HETATM   27  H   UNL     1      -9.801  18.491  69.480  1.00  0.00     0.000 HD 
BRANCH  26  28
HETATM   28  O   UNL     1     -10.213  18.080  67.485  1.00  0.00    -0.335 OA 
HETATM   29  C   UNL     1     -10.725  19.305  67.008  1.00  0.00    -0.464 C  
ENDBRANCH  26  28
ENDBRANCH  17  26
ENDBRANCH  14  17
ENDBRANCH  11  13
TORSDOF 5
ENDMDL
MODEL       28
REMARK 921   NORMALIZED FREE ENERGY PREDICTED BY IDOCK:   -6.36 KCAL/MOL
REMARK 922        TOTAL FREE ENERGY PREDICTED BY IDOCK:   -8.98 KCAL/MOL
REMARK 923 INTER-LIGAND FREE ENERGY PREDICTED BY IDOCK:   -8.43 KCAL/MOL
REMARK 924 INTRA-LIGAND FREE ENERGY PREDICTED BY IDOCK:   -0.54 KCAL/MOL
REMARK 927      BINDING AFFINITY PREDICTED BY RF-SCORE:    0.00 PKD
ROOT
HETATM    1  CE  UNL     1     -10.895  13.176  67.270  1.00  0.00    -0.257 C  
HETATM    2  SD  UNL     1      -9.352  13.719  67.917  1.00  0.00    -0.219 SA 
HETATM    3  CG  UNL     1      -8.980  15.197  66.922  1.00  0.00    -0.252 C  
HETATM    4  CB  UNL     1      -9.988  15.610  65.909  1.00  0.00    -0.379 C  
HETATM    5  CA  UNL     1     -11.077  14.938  65.499  1.00  0.00    -0.352 C  
HETATM    6  N   UNL     1     -11.361  13.716  66.037  1.00  0.00    -0.308 N  
HETATM    7  C   UNL     1     -11.845  15.544  64.365  1.00  0.00    -0.219 C  
HETATM    8  C   UNL     1     -12.120  12.642  65.679  1.00  0.00    -0.443 C  
HETATM    9  O   UNL     1     -12.891  14.890  63.886  1.00  0.00    -0.697 OA 
HETATM   10  OXT UNL     1     -11.540  16.637  63.880  1.00  0.00    -1.204 OA 
HETATM   11  CA  UNL     1     -11.296  11.750  66.667  1.00  0.00    -0.316 C  
HETATM   12  O   UNL     1     -12.912  12.507  64.806  1.00  0.00    -0.827 OA 
ENDROOT
BRANCH  11  13
HETATM   13  N   UNL     1     -10.519  10.698  65.908  1.00  0.00    -0.211 N  
HETATM   14  C   UNL     1      -9.986   9.434  66.204  1.00  0.00    -0.281 C  
HETATM   15  H   UNL     1     -10.339  10.975  64.943  1.00  0.00     0.000 HD 
HETATM   16  O   UNL     1      -9.315   8.886  65.330  1.00  0.00    -0.193 OA 
BRANCH  14  17
HETATM   17  C   UNL     1     -10.337   8.644  67.455  1.00  0.00    -0.284 C  
BRANCH  17  18
HETATM   18  C   UNL     1     -10.074   7.199  67.548  1.00  0.00    -0.188 A  
HETATM   19  N   UNL     1      -8.811   6.732  67.897  1.00  0.00    -0.119 NA 
HETATM   20  C   UNL     1     -10.902   6.211  67.024  1.00  0.00    -0.356 A  
HETATM   21  N   UNL     1      -7.424   4.936  67.415  1.00  0.00    -0.081 NA 
HETATM   22  H2  UNL     1      -7.337   4.002  67.016  1.00  0.00     0.000 HD 
HETATM   23  S   UNL     1     -10.027   4.749  66.823  1.00  0.00    -0.231 SA 
HETATM   24  H1  UNL     1      -6.591   5.396  67.782  1.00  0.00     0.000 HD 
HETATM   25  C   UNL     1      -8.626   5.522  67.440  1.00  0.00    -0.108 A  
ENDBRANCH  17  18
BRANCH  17  26
HETATM   26  N   UNL     1     -11.101   9.034  68.438  1.00  0.00    -0.458 NA 
HETATM   27  H   UNL     1     -12.068   8.706  68.440  1.00  0.00     0.000 HD 
BRANCH  26  28
HETATM   28  O   UNL     1     -10.701   9.866  69.490  1.00  0.00    -0.216 OA 
HETATM   29  C   UNL     1      -9.375   9.807  69.970  1.00  0.00    -0.235 C  
ENDBRANCH  26  28
ENDBRANCH  17  26
ENDBRANCH  14  17
ENDBRANCH  11  13
TORSDOF 5
ENDMDL
MODEL       29
REMARK 921   NORMALIZED FREE ENERGY PREDICTED BY IDOCK:   -6.36 KCAL/MOL
REMARK 922        TOTAL FREE ENERGY PREDICTED BY IDOCK:   -8.98 KCAL/MOL
REMARK 923 INTER-LIGAND FREE ENERGY PREDICTED BY IDOCK:   -7.97 KCAL/MOL
REMARK 924 INTRA-LIGAND FREE ENERGY PREDICTED BY IDOCK:   -1.01 KCAL/MOL
REMARK 927      BINDING AFFINITY PREDICTED BY RF-SCORE:    0.00 PKD
ROOT
HETATM    1  CE  UNL     1     -11.246  11.345  68.282  1.00  0.00    -0.263 C  
HETATM    2  SD  UNL     1     -10.069  10.192  67.664  1.00  0.00    -0.202 SA 
HETATM    3  CG  UNL     1     -10.059   8.888  68.934  1.00  0.00    -0.197 C  
HETATM    4  CB  UNL     1     -10.991   9.045  70.082  1.00  0.00    -0.256 C  
HETATM    5  CA  UNL     1     -11.734  10.115  70.408  1.00  0.00    -0.308 C  
HETATM    6  N   UNL     1     -11.681  11.238  69.634  1.00  0.00    -0.317 N  
HETATM    7  C   UNL     1     -12.488  10.034  71.701  1.00  0.00    -0.418 C  
HETATM    8  C   UNL     1     -11.993  12.555  69.796  1.00  0.00    -0.289 C  
HETATM    9  O   UNL     1     -13.187  11.086  72.094  1.00  0.00    -0.481 OA 
HETATM   10  OXT UNL     1     -12.487   9.013  72.393  1.00  0.00    -0.361 OA 
HETATM   11  CA  UNL     1     -11.074  12.907  68.579  1.00  0.00    -0.267 C  
HETATM   12  O   UNL     1     -12.567  13.115  70.672  1.00  0.00    -0.290 OA 
ENDROOT
BRANCH  11  13
HETATM   13  N   UNL     1      -9.900  13.747  69.028  1.00  0.00    -0.425 N  
HETATM   14  C   UNL     1      -9.673  15.110  69.271  1.00  0.00    -0.225 C  
HETATM   15  H   UNL     1      -9.066  13.183  69.196  1.00  0.00     0.000 HD 
HETATM   16  O   UNL     1      -8.524  15.450  69.550  1.00  0.00    -0.256 OA 
BRANCH  14  17
HETATM   17  C   UNL     1     -10.785  16.141  69.382  1.00  0.00    -0.307 C  
BRANCH  17  18
HETATM   18  C   UNL     1     -10.694  17.443  68.702  1.00  0.00    -0.249 A  
HETATM   19  N   UNL     1     -11.033  17.562  67.358  1.00  0.00    -0.154 NA 
HETATM   20  C   UNL     1     -10.007  18.546  69.198  1.00  0.00    -0.184 A  
HETATM   21  N   UNL     1     -10.376  18.784  65.498  1.00  0.00    -0.457 NA 
HETATM   22  H2  UNL     1      -9.859  19.585  65.137  1.00  0.00     0.000 HD 
HETATM   23  S   UNL     1      -9.649  19.642  67.926  1.00  0.00    -0.375 SA 
HETATM   24  H1  UNL     1     -10.838  18.156  64.841  1.00  0.00     0.000 HD 
HETATM   25  C   UNL     1     -10.426  18.587  66.821  1.00  0.00    -0.394 A  
ENDBRANCH  17  18
BRANCH  17  26
HETATM   26  N   UNL     1     -11.771  16.139  70.237  1.00  0.00    -0.410 NA 
HETATM   27  H   UNL     1     -12.711  15.989  69.869  1.00  0.00     0.000 HD 
BRANCH  26  28
HETATM   28  O   UNL     1     -11.643  16.328  71.618  1.00  0.00    -0.458 OA 
HETATM   29  C   UNL     1     -12.720  16.021  72.475  1.00  0.00    -0.428 C  
ENDBRANCH  26  28
ENDBRANCH  17  26
ENDBRANCH  14  17
ENDBRANCH  11  13
TORSDOF 5
ENDMDL
MODEL       30
REMARK 921   NORMALIZED FREE ENERGY PREDICTED BY IDOCK:   -6.35 KCAL/MOL
REMARK 922        TOTAL FREE ENERGY PREDICTED BY IDOCK:   -8.97 KCAL/MOL
REMARK 923 INTER-LIGAND FREE ENERGY PREDICTED BY IDOCK:   -8.31 KCAL/MOL
REMARK 924 INTRA-LIGAND FREE ENERGY PREDICTED BY IDOCK:   -0.66 KCAL/MOL
REMARK 927      BINDING AFFINITY PREDICTED BY RF-SCORE:    0.00 PKD
ROOT
HETATM    1  CE  UNL     1      -9.960  17.777  66.346  1.00  0.00    -0.344 C  
HETATM    2  SD  UNL     1     -10.529  19.297  67.027  1.00  0.00    -0.482 SA 
HETATM    3  CG  UNL     1      -9.047  19.967  67.845  1.00  0.00    -0.313 C  
HETATM    4  CB  UNL     1      -7.789  19.181  67.730  1.00  0.00    -0.295 C  
HETATM    5  CA  UNL     1      -7.627  17.940  67.241  1.00  0.00    -0.202 C  
HETATM    6  N   UNL     1      -8.707  17.250  66.771  1.00  0.00    -0.239 N  
HETATM    7  C   UNL     1      -6.256  17.348  67.370  1.00  0.00    -0.143 C  
HETATM    8  C   UNL     1      -9.003  15.943  66.526  1.00  0.00    -0.296 C  
HETATM    9  O   UNL     1      -6.061  16.107  66.958  1.00  0.00    -0.307 OA 
HETATM   10  OXT UNL     1      -5.310  17.990  67.832  1.00  0.00    -0.148 OA 
HETATM   11  CA  UNL     1     -10.527  16.297  66.558  1.00  0.00    -0.290 C  
HETATM   12  O   UNL     1      -8.311  14.978  66.522  1.00  0.00    -0.172 OA 
ENDROOT
BRANCH  11  13
HETATM   13  N   UNL     1     -11.205  15.611  67.723  1.00  0.00    -0.322 N  
HETATM   14  C   UNL     1     -11.975  14.452  67.896  1.00  0.00    -0.313 C  
HETATM   15  H   UNL     1     -11.068  16.116  68.599  1.00  0.00     0.000 HD 
HETATM   16  O   UNL     1     -12.449  14.250  69.014  1.00  0.00    -0.200 OA 
BRANCH  14  17
HETATM   17  C   UNL     1     -12.104  13.361  66.844  1.00  0.00    -0.354 C  
BRANCH  17  18
HETATM   18  C   UNL     1     -11.517  12.027  67.046  1.00  0.00    -0.338 A  
HETATM   19  N   UNL     1     -12.015  11.178  68.029  1.00  0.00    -0.632 NA 
HETATM   20  C   UNL     1     -10.286  11.621  66.539  1.00  0.00    -0.224 A  
HETATM   21  N   UNL     1     -11.229   9.561  69.496  1.00  0.00    -0.422 NA 
HETATM   22  H2  UNL     1     -10.467   8.934  69.754  1.00  0.00     0.000 HD 
HETATM   23  S   UNL     1      -9.696  10.273  67.421  1.00  0.00    -0.164 SA 
HETATM   24  H1  UNL     1     -12.065   9.590  70.080  1.00  0.00     0.000 HD 
HETATM   25  C   UNL     1     -11.101  10.321  68.402  1.00  0.00    -0.247 A  
ENDBRANCH  17  18
BRANCH  17  26
HETATM   26  N   UNL     1     -12.483  13.511  65.604  1.00  0.00    -0.475 NA 
HETATM   27  H   UNL     1     -12.362  14.433  65.184  1.00  0.00     0.000 HD 
BRANCH  26  28
HETATM   28  O   UNL     1     -13.042  12.507  64.805  1.00  0.00    -0.853 OA 
HETATM   29  C   UNL     1     -12.495  12.231  63.534  1.00  0.00    -0.534 C  
ENDBRANCH  26  28
ENDBRANCH  17  26
ENDBRANCH  14  17
ENDBRANCH  11  13
TORSDOF 5
ENDMDL
MODEL       31
REMARK 921   NORMALIZED FREE ENERGY PREDICTED BY IDOCK:   -6.35 KCAL/MOL
REMARK 922        TOTAL FREE ENERGY PREDICTED BY IDOCK:   -8.96 KCAL/MOL
REMARK 923 INTER-LIGAND FREE ENERGY PREDICTED BY IDOCK:   -7.90 KCAL/MOL
REMARK 924 INTRA-LIGAND FREE ENERGY PREDICTED BY IDOCK:   -1.06 KCAL/MOL
REMARK 927      BINDING AFFINITY PREDICTED BY RF-SCORE:    0.00 PKD
ROOT
HETATM    1  CE  UNL     1      -8.926  10.473  65.315  1.00  0.00    -0.189 C  
HETATM    2  SD  UNL     1      -8.195  10.060  63.768  1.00  0.00    -0.170 SA 
HETATM    3  CG  UNL     1      -9.259  10.914  62.564  1.00  0.00    -0.304 C  
HETATM    4  CB  UNL     1     -10.380  11.732  63.101  1.00  0.00    -0.364 C  
HETATM    5  CA  UNL     1     -10.828  11.797  64.366  1.00  0.00    -0.334 C  
HETATM    6  N   UNL     1     -10.229  11.047  65.337  1.00  0.00    -0.262 N  
HETATM    7  C   UNL     1     -12.063  12.615  64.593  1.00  0.00    -0.420 C  
HETATM    8  C   UNL     1     -10.569  10.602  66.579  1.00  0.00    -0.193 C  
HETATM    9  O   UNL     1     -12.577  12.661  65.811  1.00  0.00    -0.575 OA 
HETATM   10  OXT UNL     1     -12.599  13.253  63.684  1.00  0.00    -0.708 OA 
HETATM   11  CA  UNL     1      -9.455   9.508  66.475  1.00  0.00    -0.182 C  
HETATM   12  O   UNL     1     -11.493  10.870  67.275  1.00  0.00    -0.458 OA 
ENDROOT
BRANCH  11  13
HETATM   13  N   UNL     1     -10.069   8.126  66.465  1.00  0.00    -0.424 N  
HETATM   14  C   UNL     1     -10.488   7.205  67.437  1.00  0.00    -0.284 C  
HETATM   15  H   UNL     1     -10.215   7.777  65.517  1.00  0.00     0.000 HD 
HETATM   16  O   UNL     1     -10.872   6.104  67.044  1.00  0.00    -0.313 OA 
BRANCH  14  17
HETATM   17  C   UNL     1     -10.659   7.553  68.907  1.00  0.00    -0.169 C  
BRANCH  17  18
HETATM   18  C   UNL     1     -10.419   6.558  69.964  1.00  0.00    -0.212 A  
HETATM   19  N   UNL     1     -11.467   6.102  70.757  1.00  0.00    -0.304 NA 
HETATM   20  C   UNL     1      -9.164   6.227  70.465  1.00  0.00    -0.158 A  
HETATM   21  N   UNL     1     -11.823   5.406  72.942  1.00  0.00    -0.497 NA 
HETATM   22  H2  UNL     1     -11.411   5.099  73.822  1.00  0.00     0.000 HD 
HETATM   23  S   UNL     1      -9.316   5.495  72.010  1.00  0.00    -0.147 SA 
HETATM   24  H1  UNL     1     -12.836   5.507  72.879  1.00  0.00     0.000 HD 
HETATM   25  C   UNL     1     -11.019   5.665  71.904  1.00  0.00    -0.235 A  
ENDBRANCH  17  18
BRANCH  17  26
HETATM   26  N   UNL     1     -11.252   8.607  69.398  1.00  0.00    -0.428 NA 
HETATM   27  H   UNL     1     -12.162   8.858  69.009  1.00  0.00     0.000 HD 
BRANCH  26  28
HETATM   28  O   UNL     1     -10.740   9.420  70.415  1.00  0.00    -0.224 OA 
HETATM   29  C   UNL     1     -11.619  10.076  71.304  1.00  0.00    -0.350 C  
ENDBRANCH  26  28
ENDBRANCH  17  26
ENDBRANCH  14  17
ENDBRANCH  11  13
TORSDOF 5
ENDMDL
MODEL       32
REMARK 921   NORMALIZED FREE ENERGY PREDICTED BY IDOCK:   -6.34 KCAL/MOL
REMARK 922        TOTAL FREE ENERGY PREDICTED BY IDOCK:   -8.95 KCAL/MOL
REMARK 923 INTER-LIGAND FREE ENERGY PREDICTED BY IDOCK:   -7.94 KCAL/MOL
REMARK 924 INTRA-LIGAND FREE ENERGY PREDICTED BY IDOCK:   -1.02 KCAL/MOL
REMARK 927      BINDING AFFINITY PREDICTED BY RF-SCORE:    0.00 PKD
ROOT
HETATM    1  CE  UNL     1     -11.966  14.126  67.310  1.00  0.00    -0.414 C  
HETATM    2  SD  UNL     1     -10.978  13.921  68.752  1.00  0.00    -0.270 SA 
HETATM    3  CG  UNL     1      -9.835  15.335  68.677  1.00  0.00    -0.211 C  
HETATM    4  CB  UNL     1     -10.000  16.288  67.547  1.00  0.00    -0.248 C  
HETATM    5  CA  UNL     1     -10.778  16.161  66.460  1.00  0.00    -0.220 C  
HETATM    6  N   UNL     1     -11.547  15.042  66.304  1.00  0.00    -0.231 N  
HETATM    7  C   UNL     1     -10.645  17.227  65.416  1.00  0.00    -0.072 C  
HETATM    8  C   UNL     1     -12.167  14.419  65.263  1.00  0.00    -0.377 C  
HETATM    9  O   UNL     1     -11.347  17.114  64.301  1.00  0.00    -1.126 OA 
HETATM   10  OXT UNL     1      -9.914  18.208  65.576  1.00  0.00    -0.440 OA 
HETATM   11  CA  UNL     1     -12.230  13.103  66.109  1.00  0.00    -0.385 C  
HETATM   12  O   UNL     1     -12.344  14.767  64.142  1.00  0.00    -0.669 OA 
ENDROOT
BRANCH  11  13
HETATM   13  N   UNL     1     -11.385  12.024  65.472  1.00  0.00    -0.341 N  
HETATM   14  C   UNL     1     -10.524  11.017  65.934  1.00  0.00    -0.240 C  
HETATM   15  H   UNL     1     -11.459  12.028  64.454  1.00  0.00     0.000 HD 
HETATM   16  O   UNL     1      -9.919  10.358  65.089  1.00  0.00    -0.285 OA 
BRANCH  14  17
HETATM   17  C   UNL     1     -10.438  10.586  67.390  1.00  0.00    -0.244 C  
BRANCH  17  18
HETATM   18  C   UNL     1      -9.143  10.470  68.080  1.00  0.00    -0.141 A  
HETATM   19  N   UNL     1      -9.003   9.635  69.183  1.00  0.00    -0.145 NA 
HETATM   20  C   UNL     1      -8.082  11.357  67.921  1.00  0.00    -0.126 A  
HETATM   21  N   UNL     1      -7.821   9.567  71.178  1.00  0.00    -0.295 NA 
HETATM   22  H2  UNL     1      -7.051   9.942  71.732  1.00  0.00     0.000 HD 
HETATM   23  S   UNL     1      -7.008  11.241  69.255  1.00  0.00    -0.106 SA 
HETATM   24  H1  UNL     1      -8.420   8.850  71.586  1.00  0.00     0.000 HD 
HETATM   25  C   UNL     1      -8.015  10.034  69.939  1.00  0.00    -0.171 A  
ENDBRANCH  17  18
BRANCH  17  26
HETATM   26  N   UNL     1     -11.386  10.043  68.103  1.00  0.00    -0.530 NA 
HETATM   27  H   UNL     1     -11.365   9.029  68.218  1.00  0.00     0.000 HD 
BRANCH  26  28
HETATM   28  O   UNL     1     -12.430  10.740  68.722  1.00  0.00    -0.366 OA 
HETATM   29  C   UNL     1     -12.527  10.759  70.130  1.00  0.00    -0.285 C  
ENDBRANCH  26  28
ENDBRANCH  17  26
ENDBRANCH  14  17
ENDBRANCH  11  13
TORSDOF 5
ENDMDL
MODEL       33
REMARK 921   NORMALIZED FREE ENERGY PREDICTED BY IDOCK:   -6.33 KCAL/MOL
REMARK 922        TOTAL FREE ENERGY PREDICTED BY IDOCK:   -8.94 KCAL/MOL
REMARK 923 INTER-LIGAND FREE ENERGY PREDICTED BY IDOCK:   -7.91 KCAL/MOL
REMARK 924 INTRA-LIGAND FREE ENERGY PREDICTED BY IDOCK:   -1.03 KCAL/MOL
REMARK 927      BINDING AFFINITY PREDICTED BY RF-SCORE:    0.00 PKD
ROOT
HETATM    1  CE  UNL     1     -10.695  10.291  69.225  1.00  0.00    -0.234 C  
HETATM    2  SD  UNL     1      -9.024  10.611  68.780  1.00  0.00    -0.175 SA 
HETATM    3  CG  UNL     1      -8.076   9.722  70.055  1.00  0.00    -0.189 C  
HETATM    4  CB  UNL     1      -8.848   8.956  71.070  1.00  0.00    -0.285 C  
HETATM    5  CA  UNL     1     -10.174   8.962  71.283  1.00  0.00    -0.291 C  
HETATM    6  N   UNL     1     -10.981   9.746  70.509  1.00  0.00    -0.297 N  
HETATM    7  C   UNL     1     -10.662   8.184  72.467  1.00  0.00    -0.349 C  
HETATM    8  C   UNL     1     -12.240  10.259  70.615  1.00  0.00    -0.329 C  
HETATM    9  O   UNL     1     -11.953   8.208  72.753  1.00  0.00    -0.365 OA 
HETATM   10  OXT UNL     1      -9.898   7.513  73.166  1.00  0.00    -0.210 OA 
HETATM   11  CA  UNL     1     -11.880  11.323  69.524  1.00  0.00    -0.357 C  
HETATM   12  O   UNL     1     -13.103  10.045  71.401  1.00  0.00    -0.367 OA 
ENDROOT
BRANCH  11  13
HETATM   13  N   UNL     1     -11.908  12.715  70.113  1.00  0.00    -0.510 N  
HETATM   14  C   UNL     1     -11.307  13.946  69.811  1.00  0.00    -0.156 C  
HETATM   15  H   UNL     1     -12.513  12.773  70.932  1.00  0.00     0.000 HD 
HETATM   16  O   UNL     1     -11.501  14.877  70.593  1.00  0.00    -0.270 OA 
BRANCH  14  17
HETATM   17  C   UNL     1     -10.592  14.235  68.500  1.00  0.00    -0.257 C  
BRANCH  17  18
HETATM   18  C   UNL     1     -11.339  14.464  67.253  1.00  0.00    -0.342 A  
HETATM   19  N   UNL     1     -12.257  13.524  66.797  1.00  0.00    -0.374 NA 
HETATM   20  C   UNL     1     -11.004  15.417  66.296  1.00  0.00    -0.278 A  
HETATM   21  N   UNL     1     -13.042  12.693  64.777  1.00  0.00    -0.848 NA 
HETATM   22  H2  UNL     1     -13.106  12.814  63.767  1.00  0.00     0.000 HD 
HETATM   23  S   UNL     1     -11.718  15.019  64.787  1.00  0.00    -0.317 SA 
HETATM   24  H1  UNL     1     -13.457  11.865  65.204  1.00  0.00     0.000 HD 
HETATM   25  C   UNL     1     -12.416  13.626  65.504  1.00  0.00    -0.503 A  
ENDBRANCH  17  18
BRANCH  17  26
HETATM   26  N   UNL     1      -9.322  14.071  68.249  1.00  0.00    -0.205 NA 
HETATM   27  H   UNL     1      -9.066  13.343  67.580  1.00  0.00     0.000 HD 
BRANCH  26  28
HETATM   28  O   UNL     1      -8.284  14.813  68.823  1.00  0.00    -0.151 OA 
HETATM   29  C   UNL     1      -8.429  16.205  69.006  1.00  0.00    -0.251 C  
ENDBRANCH  26  28
ENDBRANCH  17  26
ENDBRANCH  14  17
ENDBRANCH  11  13
TORSDOF 5
ENDMDL
MODEL       34
REMARK 921   NORMALIZED FREE ENERGY PREDICTED BY IDOCK:   -6.31 KCAL/MOL
REMARK 922        TOTAL FREE ENERGY PREDICTED BY IDOCK:   -8.91 KCAL/MOL
REMARK 923 INTER-LIGAND FREE ENERGY PREDICTED BY IDOCK:   -7.90 KCAL/MOL
REMARK 924 INTRA-LIGAND FREE ENERGY PREDICTED BY IDOCK:   -1.01 KCAL/MOL
REMARK 927      BINDING AFFINITY PREDICTED BY RF-SCORE:    0.00 PKD
ROOT
HETATM    1  CE  UNL     1      -9.018  10.984  66.050  1.00  0.00    -0.197 C  
HETATM    2  SD  UNL     1      -8.042  10.215  64.804  1.00  0.00    -0.151 SA 
HETATM    3  CG  UNL     1      -8.990  10.526  63.282  1.00  0.00    -0.229 C  
HETATM    4  CB  UNL     1     -10.239  11.325  63.406  1.00  0.00    -0.454 C  
HETATM    5  CA  UNL     1     -10.867  11.715  64.527  1.00  0.00    -0.324 C  
HETATM    6  N   UNL     1     -10.353  11.374  65.746  1.00  0.00    -0.247 N  
HETATM    7  C   UNL     1     -12.185  12.405  64.347  1.00  0.00    -0.437 C  
HETATM    8  C   UNL     1     -10.830  11.287  67.019  1.00  0.00    -0.280 C  
HETATM    9  O   UNL     1     -12.870  12.755  65.423  1.00  0.00    -0.586 OA 
HETATM   10  OXT UNL     1     -12.636  12.668  63.229  1.00  0.00    -0.669 OA 
HETATM   11  CA  UNL     1      -9.626  10.358  67.390  1.00  0.00    -0.154 C  
HETATM   12  O   UNL     1     -11.862  11.638  67.488  1.00  0.00    -0.591 OA 
ENDROOT
BRANCH  11  13
HETATM   13  N   UNL     1     -10.117   8.974  67.749  1.00  0.00    -0.195 N  
HETATM   14  C   UNL     1     -10.621   8.355  68.903  1.00  0.00    -0.140 C  
HETATM   15  H   UNL     1     -10.070   8.332  66.958  1.00  0.00     0.000 HD 
HETATM   16  O   UNL     1     -10.843   7.146  68.844  1.00  0.00    -0.200 OA 
BRANCH  14  17
HETATM   17  C   UNL     1     -11.070   9.117  70.140  1.00  0.00    -0.222 C  
BRANCH  17  18
HETATM   18  C   UNL     1     -10.623   8.724  71.486  1.00  0.00    -0.309 A  
HETATM   19  N   UNL     1      -9.362   9.088  71.946  1.00  0.00    -0.363 NA 
HETATM   20  C   UNL     1     -11.234   7.747  72.266  1.00  0.00    -0.312 A  
HETATM   21  N   UNL     1      -7.690   8.231  73.307  1.00  0.00    -0.262 NA 
HETATM   22  H2  UNL     1      -7.425   7.542  74.011  1.00  0.00     0.000 HD 
HETATM   23  S   UNL     1     -10.146   7.181  73.467  1.00  0.00    -0.356 SA 
HETATM   24  H1  UNL     1      -6.982   8.875  72.955  1.00  0.00     0.000 HD 
HETATM   25  C   UNL     1      -8.956   8.263  72.874  1.00  0.00    -0.254 A  
ENDBRANCH  17  18
BRANCH  17  26
HETATM   26  N   UNL     1     -12.042   9.984  70.216  1.00  0.00    -0.448 NA 
HETATM   27  H   UNL     1     -12.747   9.965  69.478  1.00  0.00     0.000 HD 
BRANCH  26  28
HETATM   28  O   UNL     1     -12.195  10.938  71.228  1.00  0.00    -0.341 OA 
HETATM   29  C   UNL     1     -13.451  11.115  71.846  1.00  0.00    -0.180 C  
ENDBRANCH  26  28
ENDBRANCH  17  26
ENDBRANCH  14  17
ENDBRANCH  11  13
TORSDOF 5
ENDMDL
MODEL       35
REMARK 921   NORMALIZED FREE ENERGY PREDICTED BY IDOCK:   -6.30 KCAL/MOL
REMARK 922        TOTAL FREE ENERGY PREDICTED BY IDOCK:   -8.91 KCAL/MOL
REMARK 923 INTER-LIGAND FREE ENERGY PREDICTED BY IDOCK:   -7.99 KCAL/MOL
REMARK 924 INTRA-LIGAND FREE ENERGY PREDICTED BY IDOCK:   -0.92 KCAL/MOL
REMARK 927      BINDING AFFINITY PREDICTED BY RF-SCORE:    0.00 PKD
ROOT
HETATM    1  CE  UNL     1      -9.701   9.509  69.338  1.00  0.00    -0.183 C  
HETATM    2  SD  UNL     1      -8.353   8.970  70.332  1.00  0.00    -0.184 SA 
HETATM    3  CG  UNL     1      -9.134   8.616  71.937  1.00  0.00    -0.256 C  
HETATM    4  CB  UNL     1     -10.607   8.798  72.035  1.00  0.00    -0.414 C  
HETATM    5  CA  UNL     1     -11.436   9.358  71.138  1.00  0.00    -0.352 C  
HETATM    6  N   UNL     1     -10.936   9.843  69.964  1.00  0.00    -0.271 N  
HETATM    7  C   UNL     1     -12.863   9.524  71.563  1.00  0.00    -0.377 C  
HETATM    8  C   UNL     1     -11.355  10.722  69.010  1.00  0.00    -0.284 C  
HETATM    9  O   UNL     1     -13.705  10.124  70.738  1.00  0.00    -0.131 OA 
HETATM   10  OXT UNL     1     -13.273   9.103  72.648  1.00  0.00    -0.436 OA 
HETATM   11  CA  UNL     1      -9.876  10.872  68.521  1.00  0.00    -0.184 C  
HETATM   12  O   UNL     1     -12.405  11.251  68.849  1.00  0.00    -0.485 OA 
ENDROOT
BRANCH  11  13
HETATM   13  N   UNL     1      -9.382  12.282  68.752  1.00  0.00    -0.402 N  
HETATM   14  C   UNL     1      -9.581  13.529  68.142  1.00  0.00    -0.215 C  
HETATM   15  H   UNL     1      -8.747  12.341  69.549  1.00  0.00     0.000 HD 
HETATM   16  O   UNL     1      -8.920  14.477  68.566  1.00  0.00    -0.180 OA 
BRANCH  14  17
HETATM   17  C   UNL     1     -10.679  13.805  67.127  1.00  0.00    -0.281 C  
BRANCH  17  18
HETATM   18  C   UNL     1     -10.896  12.918  65.973  1.00  0.00    -0.279 A  
HETATM   19  N   UNL     1      -9.815  12.393  65.272  1.00  0.00    -0.211 NA 
HETATM   20  C   UNL     1     -12.108  12.775  65.305  1.00  0.00    -0.457 A  
HETATM   21  N   UNL     1      -9.271  11.806  63.094  1.00  0.00    -0.640 NA 
HETATM   22  H2  UNL     1      -9.602  11.610  62.150  1.00  0.00     0.000 HD 
HETATM   23  S   UNL     1     -11.848  12.135  63.734  1.00  0.00    -0.523 SA 
HETATM   24  H1  UNL     1      -8.269  11.780  63.282  1.00  0.00     0.000 HD 
HETATM   25  C   UNL     1     -10.164  12.091  64.049  1.00  0.00    -0.365 A  
ENDBRANCH  17  18
BRANCH  17  26
HETATM   26  N   UNL     1     -11.355  14.912  66.987  1.00  0.00    -0.349 NA 
HETATM   27  H   UNL     1     -12.217  15.007  67.526  1.00  0.00     0.000 HD 
BRANCH  26  28
HETATM   28  O   UNL     1     -10.994  15.978  66.156  1.00  0.00    -0.225 OA 
HETATM   29  C   UNL     1     -10.239  17.051  66.674  1.00  0.00    -0.310 C  
ENDBRANCH  26  28
ENDBRANCH  17  26
ENDBRANCH  14  17
ENDBRANCH  11  13
TORSDOF 5
ENDMDL
MODEL       36
REMARK 921   NORMALIZED FREE ENERGY PREDICTED BY IDOCK:   -6.28 KCAL/MOL
REMARK 922        TOTAL FREE ENERGY PREDICTED BY IDOCK:   -8.87 KCAL/MOL
REMARK 923 INTER-LIGAND FREE ENERGY PREDICTED BY IDOCK:   -8.10 KCAL/MOL
REMARK 924 INTRA-LIGAND FREE ENERGY PREDICTED BY IDOCK:   -0.77 KCAL/MOL
REMARK 927      BINDING AFFINITY PREDICTED BY RF-SCORE:    0.00 PKD
ROOT
HETATM    1  CE  UNL     1      -9.731  12.185  67.197  1.00  0.00    -0.199 C  
HETATM    2  SD  UNL     1      -8.908  10.691  66.769  1.00  0.00    -0.141 SA 
HETATM    3  CG  UNL     1      -9.723  10.196  65.220  1.00  0.00    -0.300 C  
HETATM    4  CB  UNL     1     -10.775  11.100  64.682  1.00  0.00    -0.350 C  
HETATM    5  CA  UNL     1     -11.337  12.165  65.276  1.00  0.00    -0.336 C  
HETATM    6  N   UNL     1     -10.943  12.527  66.532  1.00  0.00    -0.257 N  
HETATM    7  C   UNL     1     -12.471  12.816  64.543  1.00  0.00    -0.428 C  
HETATM    8  C   UNL     1     -11.463  13.280  67.542  1.00  0.00    -0.322 C  
HETATM    9  O   UNL     1     -13.095  13.832  65.114  1.00  0.00    -0.762 OA 
HETATM   10  OXT UNL     1     -12.823  12.440  63.421  1.00  0.00    -0.732 OA 
HETATM   11  CA  UNL     1     -10.497  12.569  68.548  1.00  0.00    -0.231 C  
HETATM   12  O   UNL     1     -12.409  13.996  67.569  1.00  0.00    -0.296 OA 
ENDROOT
BRANCH  11  13
HETATM   13  N   UNL     1     -11.283  11.757  69.552  1.00  0.00    -0.414 N  
HETATM   14  C   UNL     1     -11.162  10.485  70.131  1.00  0.00    -0.315 C  
HETATM   15  H   UNL     1     -12.104  12.258  69.893  1.00  0.00     0.000 HD 
HETATM   16  O   UNL     1     -12.072  10.112  70.871  1.00  0.00    -0.302 OA 
BRANCH  14  17
HETATM   17  C   UNL     1      -9.905   9.633  70.037  1.00  0.00    -0.246 C  
BRANCH  17  18
HETATM   18  C   UNL     1      -9.938   8.278  69.465  1.00  0.00    -0.187 A  
HETATM   19  N   UNL     1     -10.361   8.074  68.156  1.00  0.00    -0.207 NA 
HETATM   20  C   UNL     1      -9.865   7.105  70.210  1.00  0.00    -0.176 A  
HETATM   21  N   UNL     1     -11.498   6.471  66.922  1.00  0.00    -0.780 NA 
HETATM   22  H2  UNL     1     -11.848   5.515  66.874  1.00  0.00     0.000 HD 
HETATM   23  S   UNL     1     -10.489   5.787  69.305  1.00  0.00    -0.304 SA 
HETATM   24  H1  UNL     1     -11.687   7.106  66.147  1.00  0.00     0.000 HD 
HETATM   25  C   UNL     1     -10.806   6.855  68.002  1.00  0.00    -0.200 A  
ENDBRANCH  17  18
BRANCH  17  26
HETATM   26  N   UNL     1      -8.768   9.848  70.641  1.00  0.00    -0.357 NA 
HETATM   27  H   UNL     1      -8.804  10.169  71.609  1.00  0.00     0.000 HD 
BRANCH  26  28
HETATM   28  O   UNL     1      -7.504   9.671  70.066  1.00  0.00    -0.103 OA 
HETATM   29  C   UNL     1      -6.603  10.754  69.999  1.00  0.00    -0.159 C  
ENDBRANCH  26  28
ENDBRANCH  17  26
ENDBRANCH  14  17
ENDBRANCH  11  13
TORSDOF 5
ENDMDL
MODEL       37
REMARK 921   NORMALIZED FREE ENERGY PREDICTED BY IDOCK:   -6.26 KCAL/MOL
REMARK 922        TOTAL FREE ENERGY PREDICTED BY IDOCK:   -8.85 KCAL/MOL
REMARK 923 INTER-LIGAND FREE ENERGY PREDICTED BY IDOCK:   -8.23 KCAL/MOL
REMARK 924 INTRA-LIGAND FREE ENERGY PREDICTED BY IDOCK:   -0.62 KCAL/MOL
REMARK 927      BINDING AFFINITY PREDICTED BY RF-SCORE:    0.00 PKD
ROOT
HETATM    1  CE  UNL     1     -11.574  12.648  68.843  1.00  0.00    -0.317 C  
HETATM    2  SD  UNL     1     -11.355  10.932  69.164  1.00  0.00    -0.310 SA 
HETATM    3  CG  UNL     1     -12.232  10.688  70.739  1.00  0.00    -0.375 C  
HETATM    4  CB  UNL     1     -12.916  11.869  71.331  1.00  0.00    -0.385 C  
HETATM    5  CA  UNL     1     -12.836  13.154  70.947  1.00  0.00    -0.159 C  
HETATM    6  N   UNL     1     -12.048  13.495  69.885  1.00  0.00    -0.344 N  
HETATM    7  C   UNL     1     -13.538  14.154  71.814  1.00  0.00    -0.399 C  
HETATM    8  C   UNL     1     -11.470  14.640  69.423  1.00  0.00    -0.296 C  
HETATM    9  O   UNL     1     -13.438  15.437  71.510  1.00  0.00    -0.453 OA 
HETATM   10  OXT UNL     1     -14.214  13.811  72.788  1.00  0.00    -0.650 OA 
HETATM   11  CA  UNL     1     -10.474  13.778  68.578  1.00  0.00    -0.244 C  
HETATM   12  O   UNL     1     -11.608  15.770  69.759  1.00  0.00    -0.314 OA 
ENDROOT
BRANCH  11  13
HETATM   13  N   UNL     1      -9.058  13.971  69.071  1.00  0.00    -0.392 N  
HETATM   14  C   UNL     1      -7.904  14.609  68.589  1.00  0.00    -0.138 C  
HETATM   15  H   UNL     1      -8.903  13.530  69.977  1.00  0.00     0.000 HD 
HETATM   16  O   UNL     1      -6.872  14.478  69.245  1.00  0.00    -0.118 OA 
BRANCH  14  17
HETATM   17  C   UNL     1      -7.906  15.581  67.420  1.00  0.00    -0.186 C  
BRANCH  17  18
HETATM   18  C   UNL     1      -9.137  16.262  66.990  1.00  0.00    -0.207 A  
HETATM   19  N   UNL     1      -9.874  15.777  65.915  1.00  0.00    -0.325 NA 
HETATM   20  C   UNL     1      -9.500  17.550  67.372  1.00  0.00    -0.255 A  
HETATM   21  N   UNL     1     -11.180  16.604  64.184  1.00  0.00    -1.430 NA 
HETATM   22  H2  UNL     1     -11.691  17.398  63.799  1.00  0.00     0.000 HD 
HETATM   23  S   UNL     1     -10.646  18.195  66.269  1.00  0.00    -0.176 SA 
HETATM   24  H1  UNL     1     -11.141  15.735  63.652  1.00  0.00     0.000 HD 
HETATM   25  C   UNL     1     -10.580  16.734  65.374  1.00  0.00    -0.203 A  
ENDBRANCH  17  18
BRANCH  17  26
HETATM   26  N   UNL     1      -6.962  15.737  66.532  1.00  0.00    -0.100 NA 
HETATM   27  H   UNL     1      -7.103  15.307  65.617  1.00  0.00     0.000 HD 
BRANCH  26  28
HETATM   28  O   UNL     1      -5.774  16.448  66.734  1.00  0.00    -0.340 OA 
HETATM   29  C   UNL     1      -5.659  17.334  67.826  1.00  0.00    -0.118 C  
ENDBRANCH  26  28
ENDBRANCH  17  26
ENDBRANCH  14  17
ENDBRANCH  11  13
TORSDOF 5
ENDMDL
MODEL       38
REMARK 921   NORMALIZED FREE ENERGY PREDICTED BY IDOCK:   -6.25 KCAL/MOL
REMARK 922        TOTAL FREE ENERGY PREDICTED BY IDOCK:   -8.84 KCAL/MOL
REMARK 923 INTER-LIGAND FREE ENERGY PREDICTED BY IDOCK:   -7.86 KCAL/MOL
REMARK 924 INTRA-LIGAND FREE ENERGY PREDICTED BY IDOCK:   -0.98 KCAL/MOL
REMARK 927      BINDING AFFINITY PREDICTED BY RF-SCORE:    0.00 PKD
ROOT
HETATM    1  CE  UNL     1     -11.455  12.844  69.754  1.00  0.00    -0.132 C  
HETATM    2  SD  UNL     1     -12.483  14.080  70.470  1.00  0.00    -0.350 SA 
HETATM    3  CG  UNL     1     -13.447  13.155  71.706  1.00  0.00    -0.335 C  
HETATM    4  CB  UNL     1     -13.151  11.705  71.858  1.00  0.00    -0.490 C  
HETATM    5  CA  UNL     1     -12.376  10.930  71.081  1.00  0.00    -0.374 C  
HETATM    6  N   UNL     1     -11.745  11.471  69.998  1.00  0.00    -0.331 N  
HETATM    7  C   UNL     1     -12.363   9.466  71.402  1.00  0.00    -0.357 C  
HETATM    8  C   UNL     1     -11.187  10.993  68.850  1.00  0.00    -0.265 C  
HETATM    9  O   UNL     1     -11.662   8.653  70.629  1.00  0.00    -0.255 OA 
HETATM   10  OXT UNL     1     -12.973   9.006  72.371  1.00  0.00    -0.408 OA 
HETATM   11  CA  UNL     1     -11.296  12.422  68.220  1.00  0.00    -0.284 C  
HETATM   12  O   UNL     1     -10.952   9.882  68.505  1.00  0.00    -0.225 OA 
ENDROOT
BRANCH  11  13
HETATM   13  N   UNL     1     -12.255  12.412  67.051  1.00  0.00     0.017 N  
HETATM   14  C   UNL     1     -12.153  12.616  65.666  1.00  0.00    -0.443 C  
HETATM   15  H   UNL     1     -13.211  12.207  67.339  1.00  0.00     0.000 HD 
HETATM   16  O   UNL     1     -13.198  12.617  65.017  1.00  0.00    -0.753 OA 
BRANCH  14  17
HETATM   17  C   UNL     1     -10.830  12.656  64.916  1.00  0.00    -0.298 C  
BRANCH  17  18
HETATM   18  C   UNL     1      -9.949  11.479  64.852  1.00  0.00    -0.259 A  
HETATM   19  N   UNL     1      -8.927  11.311  65.780  1.00  0.00    -0.202 NA 
HETATM   20  C   UNL     1      -9.841  10.633  63.752  1.00  0.00    -0.335 A  
HETATM   21  N   UNL     1      -6.779  10.438  65.865  1.00  0.00    -0.120 NA 
HETATM   22  H2  UNL     1      -6.070   9.857  65.417  1.00  0.00     0.000 HD 
HETATM   23  S   UNL     1      -8.365   9.759  63.820  1.00  0.00    -0.187 SA 
HETATM   24  H1  UNL     1      -6.550  10.911  66.739  1.00  0.00     0.000 HD 
HETATM   25  C   UNL     1      -7.981  10.555  65.289  1.00  0.00    -0.112 A  
ENDBRANCH  17  18
BRANCH  17  26
HETATM   26  N   UNL     1     -10.207  13.718  64.485  1.00  0.00    -0.675 NA 
HETATM   27  H   UNL     1      -9.702  13.640  63.601  1.00  0.00     0.000 HD 
BRANCH  26  28
HETATM   28  O   UNL     1     -10.175  14.955  65.138  1.00  0.00    -0.383 OA 
HETATM   29  C   UNL     1      -9.286  15.162  66.214  1.00  0.00    -0.301 C  
ENDBRANCH  26  28
ENDBRANCH  17  26
ENDBRANCH  14  17
ENDBRANCH  11  13
TORSDOF 5
ENDMDL
MODEL       39
REMARK 921   NORMALIZED FREE ENERGY PREDICTED BY IDOCK:   -6.25 KCAL/MOL
REMARK 922        TOTAL FREE ENERGY PREDICTED BY IDOCK:   -8.83 KCAL/MOL
REMARK 923 INTER-LIGAND FREE ENERGY PREDICTED BY IDOCK:   -8.00 KCAL/MOL
REMARK 924 INTRA-LIGAND FREE ENERGY PREDICTED BY IDOCK:   -0.83 KCAL/MOL
REMARK 927      BINDING AFFINITY PREDICTED BY RF-SCORE:    0.00 PKD
ROOT
HETATM    1  CE  UNL     1     -10.997  10.733  67.500  1.00  0.00    -0.312 C  
HETATM    2  SD  UNL     1      -9.913   9.348  67.531  1.00  0.00    -0.214 SA 
HETATM    3  CG  UNL     1     -10.103   8.708  69.224  1.00  0.00    -0.202 C  
HETATM    4  CB  UNL     1     -11.073   9.403  70.112  1.00  0.00    -0.277 C  
HETATM    5  CA  UNL     1     -11.720  10.560  69.892  1.00  0.00    -0.294 C  
HETATM    6  N   UNL     1     -11.512  11.241  68.727  1.00  0.00    -0.264 N  
HETATM    7  C   UNL     1     -12.545  11.088  71.025  1.00  0.00    -0.411 C  
HETATM    8  C   UNL     1     -11.696  12.521  68.295  1.00  0.00    -0.340 C  
HETATM    9  O   UNL     1     -13.153  12.253  70.878  1.00  0.00    -0.058 OA 
HETATM   10  OXT UNL     1     -12.684  10.460  72.078  1.00  0.00    -0.397 OA 
HETATM   11  CA  UNL     1     -10.683  12.257  67.131  1.00  0.00    -0.233 C  
HETATM   12  O   UNL     1     -12.255  13.438  68.800  1.00  0.00    -0.295 OA 
ENDROOT
BRANCH  11  13
HETATM   13  N   UNL     1      -9.455  13.123  67.293  1.00  0.00    -0.218 N  
HETATM   14  C   UNL     1      -8.967  14.297  66.698  1.00  0.00    -0.186 C  
HETATM   15  H   UNL     1      -8.825  12.766  68.011  1.00  0.00     0.000 HD 
HETATM   16  O   UNL     1      -7.847  14.678  67.035  1.00  0.00    -0.174 OA 
BRANCH  14  17
HETATM   17  C   UNL     1      -9.807  15.203  65.812  1.00  0.00    -0.351 C  
BRANCH  17  18
HETATM   18  C   UNL     1     -10.350  16.476  66.312  1.00  0.00    -0.320 A  
HETATM   19  N   UNL     1     -10.496  17.565  65.460  1.00  0.00    -0.637 NA 
HETATM   20  C   UNL     1     -10.466  16.809  67.659  1.00  0.00    -0.328 A  
HETATM   21  N   UNL     1     -10.356  19.880  65.551  1.00  0.00    -0.385 NA 
HETATM   22  H2  UNL     1     -10.321  20.715  66.136  1.00  0.00     0.000 HD 
HETATM   23  S   UNL     1     -10.590  18.512  67.840  1.00  0.00    -0.294 SA 
HETATM   24  H1  UNL     1     -10.294  19.982  64.539  1.00  0.00     0.000 HD 
HETATM   25  C   UNL     1     -10.484  18.683  66.137  1.00  0.00    -0.430 A  
ENDBRANCH  17  18
BRANCH  17  26
HETATM   26  N   UNL     1     -10.351  14.893  64.667  1.00  0.00    -0.483 NA 
HETATM   27  H   UNL     1      -9.758  14.940  63.837  1.00  0.00     0.000 HD 
BRANCH  26  28
HETATM   28  O   UNL     1     -11.682  14.500  64.486  1.00  0.00    -0.411 OA 
HETATM   29  C   UNL     1     -11.978  13.325  63.763  1.00  0.00    -0.491 C  
ENDBRANCH  26  28
ENDBRANCH  17  26
ENDBRANCH  14  17
ENDBRANCH  11  13
TORSDOF 5
ENDMDL
MODEL       40
REMARK 921   NORMALIZED FREE ENERGY PREDICTED BY IDOCK:   -6.24 KCAL/MOL
REMARK 922        TOTAL FREE ENERGY PREDICTED BY IDOCK:   -8.82 KCAL/MOL
REMARK 923 INTER-LIGAND FREE ENERGY PREDICTED BY IDOCK:   -8.08 KCAL/MOL
REMARK 924 INTRA-LIGAND FREE ENERGY PREDICTED BY IDOCK:   -0.74 KCAL/MOL
REMARK 927      BINDING AFFINITY PREDICTED BY RF-SCORE:    0.00 PKD
ROOT
HETATM    1  CE  UNL     1     -11.290   9.635  71.099  1.00  0.00    -0.386 C  
HETATM    2  SD  UNL     1     -12.954   9.468  71.645  1.00  0.00    -0.425 SA 
HETATM    3  CG  UNL     1     -13.265   7.681  71.494  1.00  0.00    -0.334 C  
HETATM    4  CB  UNL     1     -12.137   6.829  71.030  1.00  0.00    -0.426 C  
HETATM    5  CA  UNL     1     -10.950   7.218  70.538  1.00  0.00    -0.260 C  
HETATM    6  N   UNL     1     -10.669   8.549  70.419  1.00  0.00    -0.224 N  
HETATM    7  C   UNL     1     -10.052   6.132  70.028  1.00  0.00    -0.179 C  
HETATM    8  C   UNL     1      -9.784   9.303  69.707  1.00  0.00    -0.189 C  
HETATM    9  O   UNL     1      -8.897   6.470  69.479  1.00  0.00    -0.136 OA 
HETATM   10  OXT UNL     1     -10.353   4.940  70.121  1.00  0.00    -0.265 OA 
HETATM   11  CA  UNL     1     -10.692  10.557  69.938  1.00  0.00    -0.247 C  
HETATM   12  O   UNL     1      -8.851   8.987  69.044  1.00  0.00    -0.133 OA 
ENDROOT
BRANCH  11  13
HETATM   13  N   UNL     1     -11.254  11.053  68.625  1.00  0.00    -0.239 N  
HETATM   14  C   UNL     1     -11.599  12.302  68.086  1.00  0.00    -0.339 C  
HETATM   15  H   UNL     1     -11.424  10.291  67.968  1.00  0.00     0.000 HD 
HETATM   16  O   UNL     1     -12.129  12.311  66.976  1.00  0.00    -0.575 OA 
BRANCH  14  17
HETATM   17  C   UNL     1     -11.195  13.628  68.711  1.00  0.00    -0.279 C  
BRANCH  17  18
HETATM   18  C   UNL     1     -11.811  14.106  69.959  1.00  0.00    -0.323 A  
HETATM   19  N   UNL     1     -12.275  13.203  70.909  1.00  0.00    -0.320 NA 
HETATM   20  C   UNL     1     -12.257  15.408  70.171  1.00  0.00    -0.375 A  
HETATM   21  N   UNL     1     -13.990  13.037  72.463  1.00  0.00    -0.684 NA 
HETATM   22  H2  UNL     1     -14.720  13.516  72.990  1.00  0.00     0.000 HD 
HETATM   23  S   UNL     1     -13.388  15.444  71.462  1.00  0.00    -0.513 SA 
HETATM   24  H1  UNL     1     -13.881  12.029  72.574  1.00  0.00     0.000 HD 
HETATM   25  C   UNL     1     -13.205  13.750  71.648  1.00  0.00    -0.371 A  
ENDBRANCH  17  18
BRANCH  17  26
HETATM   26  N   UNL     1     -10.505  14.582  68.147  1.00  0.00    -0.235 NA 
HETATM   27  H   UNL     1      -9.621  14.843  68.584  1.00  0.00     0.000 HD 
BRANCH  26  28
HETATM   28  O   UNL     1     -10.882  15.274  66.991  1.00  0.00    -0.312 OA 
HETATM   29  C   UNL     1      -9.932  16.048  66.292  1.00  0.00    -0.310 C  
ENDBRANCH  26  28
ENDBRANCH  17  26
ENDBRANCH  14  17
ENDBRANCH  11  13
TORSDOF 5
ENDMDL
MODEL       41
REMARK 921   NORMALIZED FREE ENERGY PREDICTED BY IDOCK:   -6.23 KCAL/MOL
REMARK 922        TOTAL FREE ENERGY PREDICTED BY IDOCK:   -8.82 KCAL/MOL
REMARK 923 INTER-LIGAND FREE ENERGY PREDICTED BY IDOCK:   -8.04 KCAL/MOL
REMARK 924 INTRA-LIGAND FREE ENERGY PREDICTED BY IDOCK:   -0.78 KCAL/MOL
REMARK 927      BINDING AFFINITY PREDICTED BY RF-SCORE:    0.00 PKD
ROOT
HETATM    1  CE  UNL     1      -9.556  16.395  68.686  1.00  0.00    -0.240 C  
HETATM    2  SD  UNL     1      -8.254  15.380  69.292  1.00  0.00    -0.253 SA 
HETATM    3  CG  UNL     1      -6.830  16.512  69.337  1.00  0.00    -0.220 C  
HETATM    4  CB  UNL     1      -7.066  17.924  68.932  1.00  0.00    -0.264 C  
HETATM    5  CA  UNL     1      -8.165  18.453  68.368  1.00  0.00    -0.312 C  
HETATM    6  N   UNL     1      -9.242  17.656  68.104  1.00  0.00    -0.274 N  
HETATM    7  C   UNL     1      -8.072  19.888  67.949  1.00  0.00    -0.286 C  
HETATM    8  C   UNL     1     -10.335  17.725  67.292  1.00  0.00    -0.363 C  
HETATM    9  O   UNL     1      -9.107  20.438  67.335  1.00  0.00    -0.359 OA 
HETATM   10  OXT UNL     1      -7.069  20.570  68.174  1.00  0.00    -0.269 OA 
HETATM   11  CA  UNL     1     -10.506  16.175  67.418  1.00  0.00    -0.310 C  
HETATM   12  O   UNL     1     -10.762  18.620  66.640  1.00  0.00    -0.377 OA 
ENDROOT
BRANCH  11  13
HETATM   13  N   UNL     1     -10.295  15.509  66.077  1.00  0.00    -0.306 N  
HETATM   14  C   UNL     1     -10.530  14.234  65.540  1.00  0.00    -0.346 C  
HETATM   15  H   UNL     1      -9.880  16.143  65.394  1.00  0.00     0.000 HD 
HETATM   16  O   UNL     1     -10.135  14.023  64.394  1.00  0.00    -0.262 OA 
BRANCH  14  17
HETATM   17  C   UNL     1     -11.389  13.180  66.219  1.00  0.00    -0.315 C  
BRANCH  17  18
HETATM   18  C   UNL     1     -10.801  12.170  67.113  1.00  0.00    -0.244 A  
HETATM   19  N   UNL     1     -10.674  10.848  66.700  1.00  0.00    -0.251 NA 
HETATM   20  C   UNL     1     -10.616  12.340  68.482  1.00  0.00    -0.234 A  
HETATM   21  N   UNL     1     -10.767   8.719  67.618  1.00  0.00    -0.464 NA 
HETATM   22  H2  UNL     1     -10.761   8.148  68.463  1.00  0.00     0.000 HD 
HETATM   23  S   UNL     1     -10.454  10.815  69.252  1.00  0.00    -0.197 SA 
HETATM   24  H1  UNL     1     -10.875   8.262  66.713  1.00  0.00     0.000 HD 
HETATM   25  C   UNL     1     -10.635  10.046  67.731  1.00  0.00    -0.261 A  
ENDBRANCH  17  18
BRANCH  17  26
HETATM   26  N   UNL     1     -12.623  12.869  65.928  1.00  0.00    -0.464 NA 
HETATM   27  H   UNL     1     -13.243  12.632  66.703  1.00  0.00     0.000 HD 
BRANCH  26  28
HETATM   28  O   UNL     1     -13.163  12.835  64.637  1.00  0.00    -0.776 OA 
HETATM   29  C   UNL     1     -12.671  11.911  63.691  1.00  0.00    -0.390 C  
ENDBRANCH  26  28
ENDBRANCH  17  26
ENDBRANCH  14  17
ENDBRANCH  11  13
TORSDOF 5
ENDMDL
MODEL       42
REMARK 921   NORMALIZED FREE ENERGY PREDICTED BY IDOCK:   -6.23 KCAL/MOL
REMARK 922        TOTAL FREE ENERGY PREDICTED BY IDOCK:   -8.81 KCAL/MOL
REMARK 923 INTER-LIGAND FREE ENERGY PREDICTED BY IDOCK:   -8.24 KCAL/MOL
REMARK 924 INTRA-LIGAND FREE ENERGY PREDICTED BY IDOCK:   -0.57 KCAL/MOL
REMARK 927      BINDING AFFINITY PREDICTED BY RF-SCORE:    0.00 PKD
ROOT
HETATM    1  CE  UNL     1     -11.529  14.386  68.315  1.00  0.00    -0.305 C  
HETATM    2  SD  UNL     1     -10.600  15.646  69.118  1.00  0.00    -0.256 SA 
HETATM    3  CG  UNL     1     -10.265  16.834  67.781  1.00  0.00    -0.303 C  
HETATM    4  CB  UNL     1     -10.834  16.531  66.440  1.00  0.00    -0.042 C  
HETATM    5  CA  UNL     1     -11.431  15.401  66.027  1.00  0.00    -0.002 C  
HETATM    6  N   UNL     1     -11.570  14.353  66.892  1.00  0.00    -0.373 N  
HETATM    7  C   UNL     1     -11.794  15.332  64.575  1.00  0.00    -0.295 C  
HETATM    8  C   UNL     1     -11.793  13.013  66.778  1.00  0.00    -0.388 C  
HETATM    9  O   UNL     1     -12.329  14.216  64.108  1.00  0.00    -0.628 OA 
HETATM   10  OXT UNL     1     -11.622  16.287  63.814  1.00  0.00    -0.952 OA 
HETATM   11  CA  UNL     1     -11.244  12.815  68.230  1.00  0.00    -0.271 C  
HETATM   12  O   UNL     1     -12.085  12.352  65.837  1.00  0.00    -0.580 OA 
ENDROOT
BRANCH  11  13
HETATM   13  N   UNL     1      -9.971  11.999  68.208  1.00  0.00    -0.200 N  
HETATM   14  C   UNL     1      -9.588  10.722  68.645  1.00  0.00    -0.187 C  
HETATM   15  H   UNL     1      -9.201  12.501  67.766  1.00  0.00     0.000 HD 
HETATM   16  O   UNL     1      -8.401  10.419  68.532  1.00  0.00    -0.113 OA 
BRANCH  14  17
HETATM   17  C   UNL     1     -10.575   9.649  69.076  1.00  0.00    -0.218 C  
BRANCH  17  18
HETATM   18  C   UNL     1     -10.367   8.233  68.732  1.00  0.00    -0.205 A  
HETATM   19  N   UNL     1     -10.620   7.775  67.444  1.00  0.00    -0.284 NA 
HETATM   20  C   UNL     1     -10.216   7.209  69.663  1.00  0.00    -0.208 A  
HETATM   21  N   UNL     1     -11.400   5.855  66.400  1.00  0.00    -0.669 NA 
HETATM   22  H2  UNL     1     -11.612   4.861  66.480  1.00  0.00     0.000 HD 
HETATM   23  S   UNL     1     -10.562   5.693  68.936  1.00  0.00    -0.202 SA 
HETATM   24  H1  UNL     1     -11.589   6.331  65.519  1.00  0.00     0.000 HD 
HETATM   25  C   UNL     1     -10.881   6.495  67.455  1.00  0.00    -0.373 A  
ENDBRANCH  17  18
BRANCH  17  26
HETATM   26  N   UNL     1     -11.781   9.835  69.539  1.00  0.00    -0.450 NA 
HETATM   27  H   UNL     1     -12.555   9.437  69.005  1.00  0.00     0.000 HD 
BRANCH  26  28
HETATM   28  O   UNL     1     -12.098  10.536  70.708  1.00  0.00    -0.306 OA 
HETATM   29  C   UNL     1     -12.966   9.962  71.660  1.00  0.00    -0.434 C  
ENDBRANCH  26  28
ENDBRANCH  17  26
ENDBRANCH  14  17
ENDBRANCH  11  13
TORSDOF 5
ENDMDL
MODEL       43
REMARK 921   NORMALIZED FREE ENERGY PREDICTED BY IDOCK:   -6.20 KCAL/MOL
REMARK 922        TOTAL FREE ENERGY PREDICTED BY IDOCK:   -8.77 KCAL/MOL
REMARK 923 INTER-LIGAND FREE ENERGY PREDICTED BY IDOCK:   -8.16 KCAL/MOL
REMARK 924 INTRA-LIGAND FREE ENERGY PREDICTED BY IDOCK:   -0.61 KCAL/MOL
REMARK 927      BINDING AFFINITY PREDICTED BY RF-SCORE:    0.00 PKD
ROOT
HETATM    1  CE  UNL     1      -8.823  16.906  68.758  1.00  0.00    -0.255 C  
HETATM    2  SD  UNL     1      -7.504  15.742  68.731  1.00  0.00    -0.172 SA 
HETATM    3  CG  UNL     1      -6.398  16.395  67.442  1.00  0.00    -0.171 C  
HETATM    4  CB  UNL     1      -6.790  17.672  66.788  1.00  0.00    -0.234 C  
HETATM    5  CA  UNL     1      -7.952  18.339  66.898  1.00  0.00    -0.236 C  
HETATM    6  N   UNL     1      -8.945  17.843  67.693  1.00  0.00    -0.248 N  
HETATM    7  C   UNL     1      -8.115  19.540  66.017  1.00  0.00    -0.291 C  
HETATM    8  C   UNL     1     -10.292  18.021  67.802  1.00  0.00    -0.393 C  
HETATM    9  O   UNL     1      -9.265  20.194  66.045  1.00  0.00    -0.336 OA 
HETATM   10  OXT UNL     1      -7.207  19.940  65.285  1.00  0.00    -0.348 OA 
HETATM   11  CA  UNL     1     -10.393  16.664  68.574  1.00  0.00    -0.303 C  
HETATM   12  O   UNL     1     -11.015  18.813  67.292  1.00  0.00    -0.412 OA 
ENDROOT
BRANCH  11  13
HETATM   13  N   UNL     1     -11.193  15.659  67.776  1.00  0.00    -0.322 N  
HETATM   14  C   UNL     1     -11.892  14.477  68.062  1.00  0.00    -0.315 C  
HETATM   15  H   UNL     1     -11.234  15.900  66.786  1.00  0.00     0.000 HD 
HETATM   16  O   UNL     1     -12.365  13.856  67.110  1.00  0.00    -0.372 OA 
BRANCH  14  17
HETATM   17  C   UNL     1     -12.245  14.026  69.471  1.00  0.00    -0.308 C  
BRANCH  17  18
HETATM   18  C   UNL     1     -11.929  12.670  69.945  1.00  0.00    -0.295 A  
HETATM   19  N   UNL     1     -11.206  11.793  69.143  1.00  0.00    -0.250 NA 
HETATM   20  C   UNL     1     -12.544  12.048  71.027  1.00  0.00    -0.273 A  
HETATM   21  N   UNL     1     -11.101   9.516  68.707  1.00  0.00    -0.456 NA 
HETATM   22  H2  UNL     1     -11.358   8.574  68.999  1.00  0.00     0.000 HD 
HETATM   23  S   UNL     1     -12.344  10.347  70.926  1.00  0.00    -0.416 SA 
HETATM   24  H1  UNL     1     -10.576   9.639  67.841  1.00  0.00     0.000 HD 
HETATM   25  C   UNL     1     -11.462  10.554  69.471  1.00  0.00    -0.272 A  
ENDBRANCH  17  18
BRANCH  17  26
HETATM   26  N   UNL     1     -13.049  14.626  70.306  1.00  0.00    -0.555 NA 
HETATM   27  H   UNL     1     -14.032  14.349  70.293  1.00  0.00     0.000 HD 
BRANCH  26  28
HETATM   28  O   UNL     1     -12.672  15.619  71.217  1.00  0.00    -0.430 OA 
HETATM   29  C   UNL     1     -13.232  15.637  72.512  1.00  0.00    -0.497 C  
ENDBRANCH  26  28
ENDBRANCH  17  26
ENDBRANCH  14  17
ENDBRANCH  11  13
TORSDOF 5
ENDMDL
MODEL       44
REMARK 921   NORMALIZED FREE ENERGY PREDICTED BY IDOCK:   -6.18 KCAL/MOL
REMARK 922        TOTAL FREE ENERGY PREDICTED BY IDOCK:   -8.75 KCAL/MOL
REMARK 923 INTER-LIGAND FREE ENERGY PREDICTED BY IDOCK:   -7.85 KCAL/MOL
REMARK 924 INTRA-LIGAND FREE ENERGY PREDICTED BY IDOCK:   -0.90 KCAL/MOL
REMARK 927      BINDING AFFINITY PREDICTED BY RF-SCORE:    0.00 PKD
ROOT
HETATM    1  CE  UNL     1     -11.479  10.957  68.630  1.00  0.00    -0.311 C  
HETATM    2  SD  UNL     1     -10.036  10.338  67.836  1.00  0.00    -0.179 SA 
HETATM    3  CG  UNL     1      -9.509   8.982  68.930  1.00  0.00    -0.151 C  
HETATM    4  CB  UNL     1     -10.358   8.692  70.117  1.00  0.00    -0.219 C  
HETATM    5  CA  UNL     1     -11.386   9.411  70.598  1.00  0.00    -0.292 C  
HETATM    6  N   UNL     1     -11.759  10.565  69.970  1.00  0.00    -0.289 N  
HETATM    7  C   UNL     1     -11.978   8.942  71.892  1.00  0.00    -0.371 C  
HETATM    8  C   UNL     1     -12.473  11.676  70.307  1.00  0.00    -0.182 C  
HETATM    9  O   UNL     1     -12.953   9.651  72.437  1.00  0.00    -0.377 OA 
HETATM   10  OXT UNL     1     -11.593   7.912  72.451  1.00  0.00    -0.332 OA 
HETATM   11  CA  UNL     1     -11.809  12.444  69.116  1.00  0.00    -0.300 C  
HETATM   12  O   UNL     1     -13.135  11.913  71.263  1.00  0.00    -0.301 OA 
ENDROOT
BRANCH  11  13
HETATM   13  N   UNL     1     -10.946  13.574  69.631  1.00  0.00    -0.458 N  
HETATM   14  C   UNL     1     -10.462  14.785  69.115  1.00  0.00    -0.239 C  
HETATM   15  H   UNL     1     -10.640  13.416  70.592  1.00  0.00     0.000 HD 
HETATM   16  O   UNL     1      -9.686  15.430  69.819  1.00  0.00    -0.272 OA 
BRANCH  14  17
HETATM   17  C   UNL     1     -10.977  15.418  67.831  1.00  0.00    -0.310 C  
BRANCH  17  18
HETATM   18  C   UNL     1     -10.961  14.686  66.555  1.00  0.00    -0.318 A  
HETATM   19  N   UNL     1     -12.152  14.335  65.928  1.00  0.00    -0.409 NA 
HETATM   20  C   UNL     1      -9.849  14.031  66.035  1.00  0.00    -0.297 A  
HETATM   21  N   UNL     1     -12.990  12.608  64.624  1.00  0.00    -0.844 NA 
HETATM   22  H2  UNL     1     -12.787  11.791  64.048  1.00  0.00     0.000 HD 
HETATM   23  S   UNL     1     -10.338  12.859  64.880  1.00  0.00    -0.294 SA 
HETATM   24  H1  UNL     1     -13.962  12.872  64.783  1.00  0.00     0.000 HD 
HETATM   25  C   UNL     1     -11.972  13.302  65.148  1.00  0.00    -0.381 A  
ENDBRANCH  17  18
BRANCH  17  26
HETATM   26  N   UNL     1     -11.234  16.682  67.631  1.00  0.00    -0.100 NA 
HETATM   27  H   UNL     1     -12.136  17.034  67.952  1.00  0.00     0.000 HD 
BRANCH  26  28
HETATM   28  O   UNL     1     -10.371  17.593  67.011  1.00  0.00    -0.322 OA 
HETATM   29  C   UNL     1      -9.728  18.589  67.776  1.00  0.00    -0.304 C  
ENDBRANCH  26  28
ENDBRANCH  17  26
ENDBRANCH  14  17
ENDBRANCH  11  13
TORSDOF 5
ENDMDL
MODEL       45
REMARK 921   NORMALIZED FREE ENERGY PREDICTED BY IDOCK:   -6.15 KCAL/MOL
REMARK 922        TOTAL FREE ENERGY PREDICTED BY IDOCK:   -8.71 KCAL/MOL
REMARK 923 INTER-LIGAND FREE ENERGY PREDICTED BY IDOCK:   -8.01 KCAL/MOL
REMARK 924 INTRA-LIGAND FREE ENERGY PREDICTED BY IDOCK:   -0.71 KCAL/MOL
REMARK 927      BINDING AFFINITY PREDICTED BY RF-SCORE:    0.00 PKD
ROOT
HETATM    1  CE  UNL     1     -10.049  12.269  65.603  1.00  0.00    -0.252 C  
HETATM    2  SD  UNL     1     -11.132  11.238  64.676  1.00  0.00    -0.067 SA 
HETATM    3  CG  UNL     1     -12.150  12.429  63.750  1.00  0.00    -0.529 C  
HETATM    4  CB  UNL     1     -11.843  13.873  63.927  1.00  0.00    -0.315 C  
HETATM    5  CA  UNL     1     -11.015  14.443  64.819  1.00  0.00    -0.397 C  
HETATM    6  N   UNL     1     -10.333  13.661  65.706  1.00  0.00    -0.291 N  
HETATM    7  C   UNL     1     -11.000  15.941  64.851  1.00  0.00    -0.411 C  
HETATM    8  C   UNL     1      -9.705  13.855  66.901  1.00  0.00    -0.268 C  
HETATM    9  O   UNL     1     -10.246  16.548  65.752  1.00  0.00    -0.386 OA 
HETATM   10  OXT UNL     1     -11.656  16.617  64.055  1.00  0.00    -1.197 OA 
HETATM   11  CA  UNL     1      -9.799  12.318  67.181  1.00  0.00    -0.203 C  
HETATM   12  O   UNL     1      -9.436  14.853  67.484  1.00  0.00    -0.197 OA 
ENDROOT
BRANCH  11  13
HETATM   13  N   UNL     1     -10.691  12.051  68.373  1.00  0.00    -0.220 N  
HETATM   14  C   UNL     1     -10.794  11.047  69.347  1.00  0.00    -0.231 C  
HETATM   15  H   UNL     1     -11.391  12.783  68.501  1.00  0.00     0.000 HD 
HETATM   16  O   UNL     1     -11.733  11.121  70.139  1.00  0.00    -0.304 OA 
BRANCH  14  17
HETATM   17  C   UNL     1      -9.724   9.992  69.584  1.00  0.00    -0.229 C  
BRANCH  17  18
HETATM   18  C   UNL     1      -9.960   8.575  69.262  1.00  0.00    -0.195 A  
HETATM   19  N   UNL     1     -10.207   8.180  67.952  1.00  0.00    -0.207 NA 
HETATM   20  C   UNL     1     -10.259   7.592  70.201  1.00  0.00    -0.204 A  
HETATM   21  N   UNL     1     -11.457   6.587  66.819  1.00  0.00    -0.760 NA 
HETATM   22  H2  UNL     1     -11.994   5.721  66.872  1.00  0.00     0.000 HD 
HETATM   23  S   UNL     1     -11.004   6.249  69.435  1.00  0.00    -0.403 SA 
HETATM   24  H1  UNL     1     -11.381   7.068  65.924  1.00  0.00     0.000 HD 
HETATM   25  C   UNL     1     -10.876   7.058  67.929  1.00  0.00    -0.183 A  
ENDBRANCH  17  18
BRANCH  17  26
HETATM   26  N   UNL     1      -8.638  10.125  70.294  1.00  0.00    -0.342 NA 
HETATM   27  H   UNL     1      -8.739  10.141  71.310  1.00  0.00     0.000 HD 
BRANCH  26  28
HETATM   28  O   UNL     1      -7.344  10.247  69.775  1.00  0.00    -0.134 OA 
HETATM   29  C   UNL     1      -6.637  11.459  69.921  1.00  0.00    -0.081 C  
ENDBRANCH  26  28
ENDBRANCH  17  26
ENDBRANCH  14  17
ENDBRANCH  11  13
TORSDOF 5
ENDMDL
MODEL       46
REMARK 921   NORMALIZED FREE ENERGY PREDICTED BY IDOCK:   -6.14 KCAL/MOL
REMARK 922        TOTAL FREE ENERGY PREDICTED BY IDOCK:   -8.70 KCAL/MOL
REMARK 923 INTER-LIGAND FREE ENERGY PREDICTED BY IDOCK:   -7.88 KCAL/MOL
REMARK 924 INTRA-LIGAND FREE ENERGY PREDICTED BY IDOCK:   -0.82 KCAL/MOL
REMARK 927      BINDING AFFINITY PREDICTED BY RF-SCORE:    0.00 PKD
ROOT
HETATM    1  CE  UNL     1     -10.528   9.349  68.767  1.00  0.00    -0.212 C  
HETATM    2  SD  UNL     1      -8.919   8.728  68.422  1.00  0.00    -0.141 SA 
HETATM    3  CG  UNL     1      -8.465   7.869  69.961  1.00  0.00    -0.134 C  
HETATM    4  CB  UNL     1      -9.476   7.844  71.053  1.00  0.00    -0.172 C  
HETATM    5  CA  UNL     1     -10.633   8.521  71.128  1.00  0.00    -0.220 C  
HETATM    6  N   UNL     1     -10.997   9.357  70.111  1.00  0.00    -0.237 N  
HETATM    7  C   UNL     1     -11.394   8.397  72.413  1.00  0.00    -0.378 C  
HETATM    8  C   UNL     1     -11.859  10.403  69.965  1.00  0.00    -0.273 C  
HETATM    9  O   UNL     1     -12.510   9.092  72.558  1.00  0.00    -0.308 OA 
HETATM   10  OXT UNL     1     -11.018   7.657  73.325  1.00  0.00    -0.400 OA 
HETATM   11  CA  UNL     1     -11.073  10.851  68.688  1.00  0.00    -0.252 C  
HETATM   12  O   UNL     1     -12.695  10.828  70.692  1.00  0.00    -0.340 OA 
ENDROOT
BRANCH  11  13
HETATM   13  N   UNL     1     -10.420  12.196  68.913  1.00  0.00    -0.385 N  
HETATM   14  C   UNL     1      -9.633  13.071  68.150  1.00  0.00    -0.227 C  
HETATM   15  H   UNL     1     -10.596  12.556  69.852  1.00  0.00     0.000 HD 
HETATM   16  O   UNL     1      -9.193  14.073  68.714  1.00  0.00    -0.158 OA 
BRANCH  14  17
HETATM   17  C   UNL     1      -9.449  12.944  66.646  1.00  0.00    -0.255 C  
BRANCH  17  18
HETATM   18  C   UNL     1     -10.468  13.432  65.704  1.00  0.00    -0.290 A  
HETATM   19  N   UNL     1     -10.232  14.562  64.930  1.00  0.00    -0.381 NA 
HETATM   20  C   UNL     1     -11.804  13.040  65.715  1.00  0.00    -0.404 A  
HETATM   21  N   UNL     1     -11.420  16.349  64.047  1.00  0.00    -1.573 NA 
HETATM   22  H2  UNL     1     -12.332  16.745  63.822  1.00  0.00     0.000 HD 
HETATM   23  S   UNL     1     -12.767  14.195  64.889  1.00  0.00    -0.140 SA 
HETATM   24  H1  UNL     1     -10.582  16.900  63.861  1.00  0.00     0.000 HD 
HETATM   25  C   UNL     1     -11.359  15.122  64.577  1.00  0.00    -0.290 A  
ENDBRANCH  17  18
BRANCH  17  26
HETATM   26  N   UNL     1      -8.567  12.208  66.025  1.00  0.00    -0.382 NA 
HETATM   27  H   UNL     1      -7.609  12.556  65.986  1.00  0.00     0.000 HD 
BRANCH  26  28
HETATM   28  O   UNL     1      -8.832  10.980  65.409  1.00  0.00    -0.192 OA 
HETATM   29  C   UNL     1      -7.775  10.087  65.133  1.00  0.00    -0.137 C  
ENDBRANCH  26  28
ENDBRANCH  17  26
ENDBRANCH  14  17
ENDBRANCH  11  13
TORSDOF 5
ENDMDL
MODEL       47
REMARK 921   NORMALIZED FREE ENERGY PREDICTED BY IDOCK:   -6.13 KCAL/MOL
REMARK 922        TOTAL FREE ENERGY PREDICTED BY IDOCK:   -8.69 KCAL/MOL
REMARK 923 INTER-LIGAND FREE ENERGY PREDICTED BY IDOCK:   -7.80 KCAL/MOL
REMARK 924 INTRA-LIGAND FREE ENERGY PREDICTED BY IDOCK:   -0.89 KCAL/MOL
REMARK 927      BINDING AFFINITY PREDICTED BY RF-SCORE:    0.00 PKD
ROOT
HETATM    1  CE  UNL     1      -9.195  10.639  65.544  1.00  0.00    -0.196 C  
HETATM    2  SD  UNL     1      -8.430  10.144  64.039  1.00  0.00    -0.194 SA 
HETATM    3  CG  UNL     1      -9.376  11.047  62.774  1.00  0.00    -0.346 C  
HETATM    4  CB  UNL     1     -10.456  11.955  63.247  1.00  0.00    -0.427 C  
HETATM    5  CA  UNL     1     -10.952  12.078  64.489  1.00  0.00    -0.318 C  
HETATM    6  N   UNL     1     -10.452  11.307  65.498  1.00  0.00    -0.264 N  
HETATM    7  C   UNL     1     -12.133  12.987  64.647  1.00  0.00    -0.409 C  
HETATM    8  C   UNL     1     -10.877  10.912  66.732  1.00  0.00    -0.224 C  
HETATM    9  O   UNL     1     -12.694  13.096  65.839  1.00  0.00    -0.421 OA 
HETATM   10  OXT UNL     1     -12.581  13.645  63.704  1.00  0.00    -0.728 OA 
HETATM   11  CA  UNL     1      -9.842   9.739  66.696  1.00  0.00    -0.215 C  
HETATM   12  O   UNL     1     -11.808  11.261  67.381  1.00  0.00    -0.590 OA 
ENDROOT
BRANCH  11  13
HETATM   13  N   UNL     1     -10.555   8.405  66.682  1.00  0.00    -0.304 N  
HETATM   14  C   UNL     1     -10.586   7.274  67.511  1.00  0.00    -0.274 C  
HETATM   15  H   UNL     1     -11.163   8.303  65.869  1.00  0.00     0.000 HD 
HETATM   16  O   UNL     1     -11.239   6.306  67.122  1.00  0.00    -0.334 OA 
BRANCH  14  17
HETATM   17  C   UNL     1     -10.016   7.247  68.920  1.00  0.00    -0.166 C  
BRANCH  17  18
HETATM   18  C   UNL     1     -10.782   7.756  70.068  1.00  0.00    -0.244 A  
HETATM   19  N   UNL     1     -11.584   6.902  70.817  1.00  0.00    -0.330 NA 
HETATM   20  C   UNL     1     -11.027   9.103  70.317  1.00  0.00    -0.245 A  
HETATM   21  N   UNL     1     -13.586   6.973  71.988  1.00  0.00    -0.556 NA 
HETATM   22  H2  UNL     1     -14.314   7.550  72.410  1.00  0.00     0.000 HD 
HETATM   23  S   UNL     1     -12.376   9.277  71.364  1.00  0.00    -0.358 SA 
HETATM   24  H1  UNL     1     -13.681   5.958  72.018  1.00  0.00     0.000 HD 
HETATM   25  C   UNL     1     -12.536   7.571  71.413  1.00  0.00    -0.352 A  
ENDBRANCH  17  18
BRANCH  17  26
HETATM   26  N   UNL     1      -8.772   7.038  69.257  1.00  0.00    -0.136 NA 
HETATM   27  H   UNL     1      -8.445   6.071  69.271  1.00  0.00     0.000 HD 
BRANCH  26  28
HETATM   28  O   UNL     1      -7.851   8.034  69.600  1.00  0.00    -0.100 OA 
HETATM   29  C   UNL     1      -6.988   8.565  68.618  1.00  0.00    -0.064 C  
ENDBRANCH  26  28
ENDBRANCH  17  26
ENDBRANCH  14  17
ENDBRANCH  11  13
TORSDOF 5
ENDMDL
MODEL       48
REMARK 921   NORMALIZED FREE ENERGY PREDICTED BY IDOCK:   -6.13 KCAL/MOL
REMARK 922        TOTAL FREE ENERGY PREDICTED BY IDOCK:   -8.68 KCAL/MOL
REMARK 923 INTER-LIGAND FREE ENERGY PREDICTED BY IDOCK:   -7.91 KCAL/MOL
REMARK 924 INTRA-LIGAND FREE ENERGY PREDICTED BY IDOCK:   -0.77 KCAL/MOL
REMARK 927      BINDING AFFINITY PREDICTED BY RF-SCORE:    0.00 PKD
ROOT
HETATM    1  CE  UNL     1     -10.792  15.507  70.800  1.00  0.00    -0.261 C  
HETATM    2  SD  UNL     1     -12.136  15.858  71.879  1.00  0.00    -0.530 SA 
HETATM    3  CG  UNL     1     -13.303  14.503  71.546  1.00  0.00    -0.362 C  
HETATM    4  CB  UNL     1     -12.886  13.468  70.562  1.00  0.00    -0.131 C  
HETATM    5  CA  UNL     1     -11.821  13.482  69.744  1.00  0.00    -0.329 C  
HETATM    6  N   UNL     1     -10.966  14.547  69.762  1.00  0.00    -0.198 N  
HETATM    7  C   UNL     1     -11.721  12.355  68.761  1.00  0.00    -0.332 C  
HETATM    8  C   UNL     1     -10.031  15.066  68.917  1.00  0.00    -0.236 C  
HETATM    9  O   UNL     1     -10.722  12.356  67.895  1.00  0.00    -0.209 OA 
HETATM   10  OXT UNL     1     -12.532  11.425  68.751  1.00  0.00    -0.396 OA 
HETATM   11  CA  UNL     1     -10.125  16.431  69.678  1.00  0.00    -0.149 C  
HETATM   12  O   UNL     1      -9.564  14.634  67.915  1.00  0.00    -0.206 OA 
ENDROOT
BRANCH  11  13
HETATM   13  N   UNL     1     -10.675  17.506  68.768  1.00  0.00    -0.317 N  
HETATM   14  C   UNL     1     -10.333  18.034  67.515  1.00  0.00    -0.385 C  
HETATM   15  H   UNL     1     -11.499  17.959  69.165  1.00  0.00     0.000 HD 
HETATM   16  O   UNL     1     -10.982  18.999  67.112  1.00  0.00    -0.433 OA 
BRANCH  14  17
HETATM   17  C   UNL     1      -9.342  17.378  66.567  1.00  0.00    -0.270 C  
BRANCH  17  18
HETATM   18  C   UNL     1      -7.938  17.814  66.503  1.00  0.00    -0.264 A  
HETATM   19  N   UNL     1      -7.526  18.729  65.541  1.00  0.00    -0.467 NA 
HETATM   20  C   UNL     1      -6.882  17.167  67.138  1.00  0.00    -0.177 A  
HETATM   21  N   UNL     1      -5.647  19.178  64.255  1.00  0.00    -0.264 NA 
HETATM   22  H2  UNL     1      -4.652  19.015  64.103  1.00  0.00     0.000 HD 
HETATM   23  S   UNL     1      -5.393  17.597  66.399  1.00  0.00    -0.201 SA 
HETATM   24  H1  UNL     1      -6.155  19.776  63.603  1.00  0.00     0.000 HD 
HETATM   25  C   UNL     1      -6.247  18.602  65.303  1.00  0.00    -0.277 A  
ENDBRANCH  17  18
BRANCH  17  26
HETATM   26  N   UNL     1      -9.621  16.588  65.566  1.00  0.00    -0.472 NA 
HETATM   27  H   UNL     1      -8.918  15.897  65.303  1.00  0.00     0.000 HD 
BRANCH  26  28
HETATM   28  O   UNL     1     -10.809  16.612  64.827  1.00  0.00    -0.732 OA 
HETATM   29  C   UNL     1     -11.494  15.409  64.553  1.00  0.00    -0.311 C  
ENDBRANCH  26  28
ENDBRANCH  17  26
ENDBRANCH  14  17
ENDBRANCH  11  13
TORSDOF 5
ENDMDL
MODEL       49
REMARK 921   NORMALIZED FREE ENERGY PREDICTED BY IDOCK:   -6.12 KCAL/MOL
REMARK 922        TOTAL FREE ENERGY PREDICTED BY IDOCK:   -8.67 KCAL/MOL
REMARK 923 INTER-LIGAND FREE ENERGY PREDICTED BY IDOCK:   -7.89 KCAL/MOL
REMARK 924 INTRA-LIGAND FREE ENERGY PREDICTED BY IDOCK:   -0.78 KCAL/MOL
REMARK 927      BINDING AFFINITY PREDICTED BY RF-SCORE:    0.00 PKD
ROOT
HETATM    1  CE  UNL     1      -9.411  17.553  68.647  1.00  0.00    -0.277 C  
HETATM    2  SD  UNL     1      -8.518  16.134  69.180  1.00  0.00    -0.199 SA 
HETATM    3  CG  UNL     1      -6.782  16.666  69.062  1.00  0.00    -0.202 C  
HETATM    4  CB  UNL     1      -6.524  18.064  68.626  1.00  0.00    -0.223 C  
HETATM    5  CA  UNL     1      -7.400  18.957  68.137  1.00  0.00    -0.260 C  
HETATM    6  N   UNL     1      -8.713  18.609  67.994  1.00  0.00    -0.295 N  
HETATM    7  C   UNL     1      -6.830  20.257  67.658  1.00  0.00    -0.270 C  
HETATM    8  C   UNL     1      -9.775  19.070  67.275  1.00  0.00    -0.314 C  
HETATM    9  O   UNL     1      -7.645  21.145  67.113  1.00  0.00    -0.347 OA 
HETATM   10  OXT UNL     1      -5.631  20.525  67.772  1.00  0.00    -0.189 OA 
HETATM   11  CA  UNL     1     -10.488  17.691  67.473  1.00  0.00    -0.365 C  
HETATM   12  O   UNL     1      -9.906  20.057  66.628  1.00  0.00    -0.391 OA 
ENDROOT
BRANCH  11  13
HETATM   13  N   UNL     1     -10.658  16.989  66.145  1.00  0.00    -0.250 N  
HETATM   14  C   UNL     1     -10.900  15.671  65.728  1.00  0.00    -0.306 C  
HETATM   15  H   UNL     1     -10.577  17.632  65.357  1.00  0.00     0.000 HD 
HETATM   16  O   UNL     1     -10.889  15.450  64.518  1.00  0.00    -0.321 OA 
BRANCH  14  17
HETATM   17  C   UNL     1     -11.345  14.560  66.667  1.00  0.00    -0.356 C  
BRANCH  17  18
HETATM   18  C   UNL     1     -10.982  13.156  66.420  1.00  0.00    -0.288 A  
HETATM   19  N   UNL     1     -11.743  12.124  66.957  1.00  0.00    -0.548 NA 
HETATM   20  C   UNL     1      -9.749  12.735  65.930  1.00  0.00    -0.198 A  
HETATM   21  N   UNL     1     -11.431   9.981  67.793  1.00  0.00    -0.571 NA 
HETATM   22  H2  UNL     1     -10.811   9.176  67.878  1.00  0.00     0.000 HD 
HETATM   23  S   UNL     1      -9.496  11.079  66.305  1.00  0.00    -0.201 SA 
HETATM   24  H1  UNL     1     -12.340   9.957  68.254  1.00  0.00     0.000 HD 
HETATM   25  C   UNL     1     -11.025  11.039  67.080  1.00  0.00    -0.272 A  
ENDBRANCH  17  18
BRANCH  17  26
HETATM   26  N   UNL     1     -12.259  14.639  67.595  1.00  0.00    -0.587 NA 
HETATM   27  H   UNL     1     -13.214  14.386  67.338  1.00  0.00     0.000 HD 
BRANCH  26  28
HETATM   28  O   UNL     1     -12.033  15.042  68.916  1.00  0.00    -0.304 OA 
HETATM   29  C   UNL     1     -12.185  14.118  69.972  1.00  0.00    -0.357 C  
ENDBRANCH  26  28
ENDBRANCH  17  26
ENDBRANCH  14  17
ENDBRANCH  11  13
TORSDOF 5
ENDMDL
MODEL       50
REMARK 921   NORMALIZED FREE ENERGY PREDICTED BY IDOCK:   -6.11 KCAL/MOL
REMARK 922        TOTAL FREE ENERGY PREDICTED BY IDOCK:   -8.66 KCAL/MOL
REMARK 923 INTER-LIGAND FREE ENERGY PREDICTED BY IDOCK:   -8.22 KCAL/MOL
REMARK 924 INTRA-LIGAND FREE ENERGY PREDICTED BY IDOCK:   -0.44 KCAL/MOL
REMARK 927      BINDING AFFINITY PREDICTED BY RF-SCORE:    0.00 PKD
ROOT
HETATM    1  CE  UNL     1     -12.090   9.557  71.500  1.00  0.00    -0.389 C  
HETATM    2  SD  UNL     1     -13.784   9.090  71.583  1.00  0.00    -0.351 SA 
HETATM    3  CG  UNL     1     -13.714   7.271  71.604  1.00  0.00    -0.347 C  
HETATM    4  CB  UNL     1     -12.367   6.640  71.595  1.00  0.00    -0.382 C  
HETATM    5  CA  UNL     1     -11.176   7.228  71.400  1.00  0.00    -0.248 C  
HETATM    6  N   UNL     1     -11.112   8.574  71.177  1.00  0.00    -0.249 N  
HETATM    7  C   UNL     1      -9.989   6.317  71.316  1.00  0.00    -0.180 C  
HETATM    8  C   UNL     1     -10.204   9.435  70.638  1.00  0.00    -0.288 C  
HETATM    9  O   UNL     1      -8.802   6.843  71.066  1.00  0.00    -0.139 OA 
HETATM   10  OXT UNL     1     -10.088   5.099  71.489  1.00  0.00    -0.179 OA 
HETATM   11  CA  UNL     1     -11.346  10.485  70.431  1.00  0.00    -0.328 C  
HETATM   12  O   UNL     1      -9.075   9.269  70.311  1.00  0.00    -0.197 OA 
ENDROOT
BRANCH  11  13
HETATM   13  N   UNL     1     -11.569  10.741  68.958  1.00  0.00    -0.349 N  
HETATM   14  C   UNL     1     -11.784  11.871  68.155  1.00  0.00    -0.320 C  
HETATM   15  H   UNL     1     -11.561   9.878  68.413  1.00  0.00     0.000 HD 
HETATM   16  O   UNL     1     -12.021  11.681  66.963  1.00  0.00    -0.593 OA 
BRANCH  14  17
HETATM   17  C   UNL     1     -11.565  13.298  68.634  1.00  0.00    -0.327 C  
BRANCH  17  18
HETATM   18  C   UNL     1     -10.921  14.305  67.776  1.00  0.00    -0.264 A  
HETATM   19  N   UNL     1     -11.612  14.869  66.709  1.00  0.00    -0.315 NA 
HETATM   20  C   UNL     1      -9.552  14.550  67.739  1.00  0.00    -0.215 A  
HETATM   21  N   UNL     1     -11.171  15.662  64.573  1.00  0.00    -0.714 NA 
HETATM   22  H2  UNL     1     -10.469  15.964  63.898  1.00  0.00     0.000 HD 
HETATM   23  S   UNL     1      -9.131  15.342  66.276  1.00  0.00    -0.299 SA 
HETATM   24  H1  UNL     1     -12.151  15.640  64.292  1.00  0.00     0.000 HD 
HETATM   25  C   UNL     1     -10.778  15.306  65.802  1.00  0.00    -0.348 A  
ENDBRANCH  17  18
BRANCH  17  26
HETATM   26  N   UNL     1     -11.659  13.734  69.861  1.00  0.00    -0.416 NA 
HETATM   27  H   UNL     1     -10.790  13.867  70.380  1.00  0.00     0.000 HD 
BRANCH  26  28
HETATM   28  O   UNL     1     -12.856  14.035  70.520  1.00  0.00    -0.310 OA 
HETATM   29  C   UNL     1     -13.111  15.354  70.953  1.00  0.00    -0.468 C  
ENDBRANCH  26  28
ENDBRANCH  17  26
ENDBRANCH  14  17
ENDBRANCH  11  13
TORSDOF 5
ENDMDL
MODEL       51
REMARK 921   NORMALIZED FREE ENERGY PREDICTED BY IDOCK:   -6.10 KCAL/MOL
REMARK 922        TOTAL FREE ENERGY PREDICTED BY IDOCK:   -8.64 KCAL/MOL
REMARK 923 INTER-LIGAND FREE ENERGY PREDICTED BY IDOCK:   -8.02 KCAL/MOL
REMARK 924 INTRA-LIGAND FREE ENERGY PREDICTED BY IDOCK:   -0.61 KCAL/MOL
REMARK 927      BINDING AFFINITY PREDICTED BY RF-SCORE:    0.00 PKD
ROOT
HETATM    1  CE  UNL     1     -11.505  14.175  65.878  1.00  0.00    -0.338 C  
HETATM    2  SD  UNL     1     -12.218  14.362  64.280  1.00  0.00    -0.323 SA 
HETATM    3  CG  UNL     1     -11.933  12.741  63.504  1.00  0.00    -0.555 C  
HETATM    4  CB  UNL     1     -11.264  11.698  64.328  1.00  0.00    -0.392 C  
HETATM    5  CA  UNL     1     -10.679  11.837  65.529  1.00  0.00    -0.279 C  
HETATM    6  N   UNL     1     -10.657  13.061  66.135  1.00  0.00    -0.273 N  
HETATM    7  C   UNL     1      -9.968  10.632  66.066  1.00  0.00    -0.239 C  
HETATM    8  C   UNL     1      -9.924  13.652  67.120  1.00  0.00    -0.247 C  
HETATM    9  O   UNL     1      -9.326  10.737  67.218  1.00  0.00    -0.151 OA 
HETATM   10  OXT UNL     1      -9.980   9.550  65.475  1.00  0.00    -0.304 OA 
HETATM   11  CA  UNL     1     -10.377  15.054  66.593  1.00  0.00    -0.278 C  
HETATM   12  O   UNL     1      -9.133  13.197  67.878  1.00  0.00    -0.189 OA 
ENDROOT
BRANCH  11  13
HETATM   13  N   UNL     1      -9.190  15.831  66.069  1.00  0.00    -0.349 N  
HETATM   14  C   UNL     1      -8.602  17.075  66.343  1.00  0.00    -0.276 C  
HETATM   15  H   UNL     1      -8.694  15.325  65.334  1.00  0.00     0.000 HD 
HETATM   16  O   UNL     1      -7.663  17.425  65.629  1.00  0.00    -0.452 OA 
BRANCH  14  17
HETATM   17  C   UNL     1      -8.941  17.915  67.564  1.00  0.00    -0.248 C  
BRANCH  17  18
HETATM   18  C   UNL     1      -7.944  18.177  68.615  1.00  0.00    -0.288 A  
HETATM   19  N   UNL     1      -7.720  19.472  69.068  1.00  0.00    -0.349 NA 
HETATM   20  C   UNL     1      -6.961  17.276  69.012  1.00  0.00    -0.235 A  
HETATM   21  N   UNL     1      -5.959  20.765  69.850  1.00  0.00    -0.407 NA 
HETATM   22  H2  UNL     1      -5.005  20.787  70.211  1.00  0.00     0.000 HD 
HETATM   23  S   UNL     1      -5.685  18.103  69.807  1.00  0.00    -0.243 SA 
HETATM   24  H1  UNL     1      -6.455  21.644  69.710  1.00  0.00     0.000 HD 
HETATM   25  C   UNL     1      -6.520  19.582  69.572  1.00  0.00    -0.333 A  
ENDBRANCH  17  18
BRANCH  17  26
HETATM   26  N   UNL     1     -10.131  18.271  67.964  1.00  0.00    -0.345 NA 
HETATM   27  H   UNL     1     -10.489  17.838  68.817  1.00  0.00     0.000 HD 
BRANCH  26  28
HETATM   28  O   UNL     1     -10.956  19.198  67.317  1.00  0.00    -0.478 OA 
HETATM   29  C   UNL     1     -10.410  20.080  66.361  1.00  0.00    -0.455 C  
ENDBRANCH  26  28
ENDBRANCH  17  26
ENDBRANCH  14  17
ENDBRANCH  11  13
TORSDOF 5
ENDMDL
MODEL       52
REMARK 921   NORMALIZED FREE ENERGY PREDICTED BY IDOCK:   -6.09 KCAL/MOL
REMARK 922        TOTAL FREE ENERGY PREDICTED BY IDOCK:   -8.63 KCAL/MOL
REMARK 923 INTER-LIGAND FREE ENERGY PREDICTED BY IDOCK:   -7.54 KCAL/MOL
REMARK 924 INTRA-LIGAND FREE ENERGY PREDICTED BY IDOCK:   -1.10 KCAL/MOL
REMARK 927      BINDING AFFINITY PREDICTED BY RF-SCORE:    0.00 PKD
ROOT
HETATM    1  CE  UNL     1      -8.036  11.257  66.003  1.00  0.00     0.020 C  
HETATM    2  SD  UNL     1      -6.930  10.500  67.143  1.00  0.00    -0.093 SA 
HETATM    3  CG  UNL     1      -6.437   8.970  66.291  1.00  0.00    -0.066 C  
HETATM    4  CB  UNL     1      -6.988   8.738  64.929  1.00  0.00    -0.073 C  
HETATM    5  CA  UNL     1      -7.948   9.429  64.293  1.00  0.00    -0.133 C  
HETATM    6  N   UNL     1      -8.539  10.494  64.911  1.00  0.00    -0.179 N  
HETATM    7  C   UNL     1      -8.394   8.886  62.969  1.00  0.00    -0.190 C  
HETATM    8  C   UNL     1      -9.698  11.195  64.759  1.00  0.00    -0.257 C  
HETATM    9  O   UNL     1      -9.379   9.499  62.332  1.00  0.00    -0.245 OA 
HETATM   10  OXT UNL     1      -7.860   7.901  62.455  1.00  0.00    -0.126 OA 
HETATM   11  CA  UNL     1      -9.547  11.732  66.220  1.00  0.00    -0.225 C  
HETATM   12  O   UNL     1     -10.517  11.164  63.900  1.00  0.00    -0.342 OA 
ENDROOT
BRANCH  11  13
HETATM   13  N   UNL     1     -10.672  11.220  67.092  1.00  0.00    -0.239 N  
HETATM   14  C   UNL     1     -11.586  11.790  67.991  1.00  0.00    -0.316 C  
HETATM   15  H   UNL     1     -10.797  10.212  67.003  1.00  0.00     0.000 HD 
HETATM   16  O   UNL     1     -12.326  11.023  68.605  1.00  0.00    -0.539 OA 
BRANCH  14  17
HETATM   17  C   UNL     1     -11.827  13.287  68.111  1.00  0.00    -0.353 C  
BRANCH  17  18
HETATM   18  C   UNL     1     -11.839  14.159  66.926  1.00  0.00    -0.431 A  
HETATM   19  N   UNL     1     -12.513  13.774  65.772  1.00  0.00    -0.479 NA 
HETATM   20  C   UNL     1     -10.976  15.233  66.729  1.00  0.00    -0.306 A  
HETATM   21  N   UNL     1     -12.296  13.995  63.473  1.00  0.00    -1.118 NA 
HETATM   22  H2  UNL     1     -11.844  14.477  62.696  1.00  0.00     0.000 HD 
HETATM   23  S   UNL     1     -10.900  15.634  65.062  1.00  0.00    -0.404 SA 
HETATM   24  H1  UNL     1     -12.954  13.243  63.272  1.00  0.00     0.000 HD 
HETATM   25  C   UNL     1     -12.007  14.369  64.725  1.00  0.00    -0.447 A  
ENDBRANCH  17  18
BRANCH  17  26
HETATM   26  N   UNL     1     -11.794  13.999  69.204  1.00  0.00    -0.329 NA 
HETATM   27  H   UNL     1     -11.099  14.745  69.257  1.00  0.00     0.000 HD 
BRANCH  26  28
HETATM   28  O   UNL     1     -12.636  13.823  70.308  1.00  0.00    -0.301 OA 
HETATM   29  C   UNL     1     -12.935  14.916  71.148  1.00  0.00    -0.367 C  
ENDBRANCH  26  28
ENDBRANCH  17  26
ENDBRANCH  14  17
ENDBRANCH  11  13
TORSDOF 5
ENDMDL
MODEL       53
REMARK 921   NORMALIZED FREE ENERGY PREDICTED BY IDOCK:   -6.09 KCAL/MOL
REMARK 922        TOTAL FREE ENERGY PREDICTED BY IDOCK:   -8.63 KCAL/MOL
REMARK 923 INTER-LIGAND FREE ENERGY PREDICTED BY IDOCK:   -7.91 KCAL/MOL
REMARK 924 INTRA-LIGAND FREE ENERGY PREDICTED BY IDOCK:   -0.71 KCAL/MOL
REMARK 927      BINDING AFFINITY PREDICTED BY RF-SCORE:    0.00 PKD
ROOT
HETATM    1  CE  UNL     1     -11.836  13.837  67.745  1.00  0.00    -0.369 C  
HETATM    2  SD  UNL     1     -10.630  14.599  68.776  1.00  0.00    -0.253 SA 
HETATM    3  CG  UNL     1      -9.908  15.876  67.698  1.00  0.00    -0.233 C  
HETATM    4  CB  UNL     1     -10.473  16.014  66.329  1.00  0.00    -0.326 C  
HETATM    5  CA  UNL     1     -11.343  15.203  65.704  1.00  0.00    -0.255 C  
HETATM    6  N   UNL     1     -11.815  14.093  66.345  1.00  0.00    -0.405 N  
HETATM    7  C   UNL     1     -11.640  15.522  64.271  1.00  0.00    -0.194 C  
HETATM    8  C   UNL     1     -12.401  12.921  65.969  1.00  0.00    -0.262 C  
HETATM    9  O   UNL     1     -12.445  14.718  63.596  1.00  0.00    -0.726 OA 
HETATM   10  OXT UNL     1     -11.169  16.517  63.713  1.00  0.00    -0.801 OA 
HETATM   11  CA  UNL     1     -12.002  12.298  67.348  1.00  0.00    -0.133 C  
HETATM   12  O   UNL     1     -12.821  12.565  64.918  1.00  0.00    -0.758 OA 
ENDROOT
BRANCH  11  13
HETATM   13  N   UNL     1     -11.011  11.172  67.153  1.00  0.00    -0.280 N  
HETATM   14  C   UNL     1     -10.212  10.380  67.991  1.00  0.00    -0.169 C  
HETATM   15  H   UNL     1     -10.896  10.928  66.169  1.00  0.00     0.000 HD 
HETATM   16  O   UNL     1      -9.436   9.592  67.452  1.00  0.00    -0.139 OA 
BRANCH  14  17
HETATM   17  C   UNL     1     -10.380  10.317  69.501  1.00  0.00    -0.242 C  
BRANCH  17  18
HETATM   18  C   UNL     1     -10.177   9.063  70.244  1.00  0.00    -0.201 A  
HETATM   19  N   UNL     1     -11.226   8.166  70.415  1.00  0.00    -0.252 NA 
HETATM   20  C   UNL     1      -9.089   8.804  71.071  1.00  0.00    -0.218 A  
HETATM   21  N   UNL     1     -11.989   6.661  72.008  1.00  0.00    -0.347 NA 
HETATM   22  H2  UNL     1     -11.784   6.130  72.854  1.00  0.00     0.000 HD 
HETATM   23  S   UNL     1      -9.466   7.539  72.168  1.00  0.00    -0.152 SA 
HETATM   24  H1  UNL     1     -12.918   6.593  71.595  1.00  0.00     0.000 HD 
HETATM   25  C   UNL     1     -11.029   7.425  71.473  1.00  0.00    -0.230 A  
ENDBRANCH  17  18
BRANCH  17  26
HETATM   26  N   UNL     1     -10.942  11.215  70.264  1.00  0.00    -0.414 NA 
HETATM   27  H   UNL     1     -10.342  11.943  70.652  1.00  0.00     0.000 HD 
BRANCH  26  28
HETATM   28  O   UNL     1     -12.302  11.258  70.593  1.00  0.00    -0.348 OA 
HETATM   29  C   UNL     1     -12.868  12.448  71.095  1.00  0.00    -0.205 C  
ENDBRANCH  26  28
ENDBRANCH  17  26
ENDBRANCH  14  17
ENDBRANCH  11  13
TORSDOF 5
ENDMDL
MODEL       54
REMARK 921   NORMALIZED FREE ENERGY PREDICTED BY IDOCK:   -6.08 KCAL/MOL
REMARK 922        TOTAL FREE ENERGY PREDICTED BY IDOCK:   -8.62 KCAL/MOL
REMARK 923 INTER-LIGAND FREE ENERGY PREDICTED BY IDOCK:   -8.14 KCAL/MOL
REMARK 924 INTRA-LIGAND FREE ENERGY PREDICTED BY IDOCK:   -0.47 KCAL/MOL
REMARK 927      BINDING AFFINITY PREDICTED BY RF-SCORE:    0.00 PKD
ROOT
HETATM    1  CE  UNL     1      -9.946  17.246  66.077  1.00  0.00    -0.233 C  
HETATM    2  SD  UNL     1     -10.550  18.840  66.516  1.00  0.00    -0.311 SA 
HETATM    3  CG  UNL     1      -9.113  19.625  67.312  1.00  0.00    -0.317 C  
HETATM    4  CB  UNL     1      -7.851  18.840  67.371  1.00  0.00    -0.245 C  
HETATM    5  CA  UNL     1      -7.663  17.546  67.064  1.00  0.00    -0.212 C  
HETATM    6  N   UNL     1      -8.717  16.791  66.635  1.00  0.00    -0.227 N  
HETATM    7  C   UNL     1      -6.302  16.986  67.344  1.00  0.00    -0.152 C  
HETATM    8  C   UNL     1      -8.999  15.460  66.554  1.00  0.00    -0.309 C  
HETATM    9  O   UNL     1      -6.085  15.701  67.114  1.00  0.00    -0.323 OA 
HETATM   10  OXT UNL     1      -5.381  17.691  67.764  1.00  0.00    -0.130 OA 
HETATM   11  CA  UNL     1     -10.522  15.804  66.458  1.00  0.00    -0.303 C  
HETATM   12  O   UNL     1      -8.309  14.508  66.718  1.00  0.00    -0.163 OA 
ENDROOT
BRANCH  11  13
HETATM   13  N   UNL     1     -11.262  15.277  67.667  1.00  0.00    -0.321 N  
HETATM   14  C   UNL     1     -11.879  14.067  68.019  1.00  0.00    -0.368 C  
HETATM   15  H   UNL     1     -11.328  15.973  68.410  1.00  0.00     0.000 HD 
HETATM   16  O   UNL     1     -12.479  14.031  69.093  1.00  0.00    -0.238 OA 
BRANCH  14  17
HETATM   17  C   UNL     1     -11.696  12.772  67.244  1.00  0.00    -0.378 C  
BRANCH  17  18
HETATM   18  C   UNL     1     -11.578  12.766  65.777  1.00  0.00    -0.376 A  
HETATM   19  N   UNL     1     -12.702  12.590  64.979  1.00  0.00    -0.727 NA 
HETATM   20  C   UNL     1     -10.380  12.622  65.083  1.00  0.00    -0.292 A  
HETATM   21  N   UNL     1     -13.263  11.614  62.950  1.00  0.00    -0.581 NA 
HETATM   22  H2  UNL     1     -12.937  11.221  62.067  1.00  0.00     0.000 HD 
HETATM   23  S   UNL     1     -10.685  12.103  63.476  1.00  0.00    -0.431 SA 
HETATM   24  H1  UNL     1     -14.263  11.617  63.149  1.00  0.00     0.000 HD 
HETATM   25  C   UNL     1     -12.367  12.108  63.811  1.00  0.00    -0.532 A  
ENDBRANCH  17  18
BRANCH  17  26
HETATM   26  N   UNL     1     -11.872  11.559  67.693  1.00  0.00    -0.629 NA 
HETATM   27  H   UNL     1     -12.695  11.052  67.366  1.00  0.00     0.000 HD 
BRANCH  26  28
HETATM   28  O   UNL     1     -11.022  10.899  68.588  1.00  0.00    -0.193 OA 
HETATM   29  C   UNL     1      -9.751  10.460  68.160  1.00  0.00    -0.151 C  
ENDBRANCH  26  28
ENDBRANCH  17  26
ENDBRANCH  14  17
ENDBRANCH  11  13
TORSDOF 5
ENDMDL
MODEL       55
REMARK 921   NORMALIZED FREE ENERGY PREDICTED BY IDOCK:   -6.05 KCAL/MOL
REMARK 922        TOTAL FREE ENERGY PREDICTED BY IDOCK:   -8.58 KCAL/MOL
REMARK 923 INTER-LIGAND FREE ENERGY PREDICTED BY IDOCK:   -7.99 KCAL/MOL
REMARK 924 INTRA-LIGAND FREE ENERGY PREDICTED BY IDOCK:   -0.60 KCAL/MOL
REMARK 927      BINDING AFFINITY PREDICTED BY RF-SCORE:    0.00 PKD
ROOT
HETATM    1  CE  UNL     1     -11.868  13.799  67.293  1.00  0.00    -0.401 C  
HETATM    2  SD  UNL     1     -10.974  13.775  68.808  1.00  0.00    -0.269 SA 
HETATM    3  CG  UNL     1      -9.993  15.306  68.737  1.00  0.00    -0.215 C  
HETATM    4  CB  UNL     1     -10.177  16.181  67.548  1.00  0.00    -0.267 C  
HETATM    5  CA  UNL     1     -10.854  15.915  66.418  1.00  0.00    -0.193 C  
HETATM    6  N   UNL     1     -11.479  14.710  66.270  1.00  0.00    -0.359 N  
HETATM    7  C   UNL     1     -10.762  16.941  65.330  1.00  0.00    -0.150 C  
HETATM    8  C   UNL     1     -11.947  13.972  65.224  1.00  0.00    -0.379 C  
HETATM    9  O   UNL     1     -11.362  16.697  64.177  1.00  0.00    -1.141 OA 
HETATM   10  OXT UNL     1     -10.159  18.006  65.487  1.00  0.00    -0.508 OA 
HETATM   11  CA  UNL     1     -11.926  12.699  66.134  1.00  0.00    -0.395 C  
HETATM   12  O   UNL     1     -12.076  14.247  64.077  1.00  0.00    -0.442 OA 
ENDROOT
BRANCH  11  13
HETATM   13  N   UNL     1     -10.920  11.695  65.616  1.00  0.00    -0.286 N  
HETATM   14  C   UNL     1     -10.290  10.549  66.124  1.00  0.00    -0.210 C  
HETATM   15  H   UNL     1     -10.628  11.902  64.660  1.00  0.00     0.000 HD 
HETATM   16  O   UNL     1      -9.432  10.018  65.421  1.00  0.00    -0.209 OA 
BRANCH  14  17
HETATM   17  C   UNL     1     -10.732   9.840  67.395  1.00  0.00    -0.249 C  
BRANCH  17  18
HETATM   18  C   UNL     1     -10.357   8.442  67.662  1.00  0.00    -0.252 A  
HETATM   19  N   UNL     1      -9.196   8.145  68.368  1.00  0.00    -0.136 NA 
HETATM   20  C   UNL     1     -10.905   7.340  67.013  1.00  0.00    -0.280 A  
HETATM   21  N   UNL     1      -7.552   6.508  68.408  1.00  0.00    -0.101 NA 
HETATM   22  H2  UNL     1      -7.265   5.574  68.118  1.00  0.00     0.000 HD 
HETATM   23  S   UNL     1      -9.862   5.985  67.162  1.00  0.00    -0.156 SA 
HETATM   24  H1  UNL     1      -6.903   7.080  68.948  1.00  0.00     0.000 HD 
HETATM   25  C   UNL     1      -8.770   6.947  68.069  1.00  0.00    -0.125 A  
ENDBRANCH  17  18
BRANCH  17  26
HETATM   26  N   UNL     1     -11.650  10.236  68.233  1.00  0.00    -0.680 NA 
HETATM   27  H   UNL     1     -12.567  10.469  67.850  1.00  0.00     0.000 HD 
BRANCH  26  28
HETATM   28  O   UNL     1     -11.477  10.366  69.616  1.00  0.00    -0.246 OA 
HETATM   29  C   UNL     1     -12.601  10.521  70.456  1.00  0.00    -0.339 C  
ENDBRANCH  26  28
ENDBRANCH  17  26
ENDBRANCH  14  17
ENDBRANCH  11  13
TORSDOF 5
ENDMDL
MODEL       56
REMARK 921   NORMALIZED FREE ENERGY PREDICTED BY IDOCK:   -6.03 KCAL/MOL
REMARK 922        TOTAL FREE ENERGY PREDICTED BY IDOCK:   -8.55 KCAL/MOL
REMARK 923 INTER-LIGAND FREE ENERGY PREDICTED BY IDOCK:   -7.71 KCAL/MOL
REMARK 924 INTRA-LIGAND FREE ENERGY PREDICTED BY IDOCK:   -0.84 KCAL/MOL
REMARK 927      BINDING AFFINITY PREDICTED BY RF-SCORE:    0.00 PKD
ROOT
HETATM    1  CE  UNL     1     -10.797  12.959  66.932  1.00  0.00    -0.257 C  
HETATM    2  SD  UNL     1      -9.227  13.363  67.613  1.00  0.00    -0.224 SA 
HETATM    3  CG  UNL     1      -8.816  14.941  66.805  1.00  0.00    -0.261 C  
HETATM    4  CB  UNL     1      -9.822  15.512  65.869  1.00  0.00    -0.385 C  
HETATM    5  CA  UNL     1     -10.940  14.934  65.399  1.00  0.00    -0.364 C  
HETATM    6  N   UNL     1     -11.261  13.664  65.785  1.00  0.00    -0.294 N  
HETATM    7  C   UNL     1     -11.702  15.703  64.363  1.00  0.00    -0.218 C  
HETATM    8  C   UNL     1     -12.063  12.670  65.309  1.00  0.00    -0.467 C  
HETATM    9  O   UNL     1     -12.777  15.151  63.826  1.00  0.00    -0.722 OA 
HETATM   10  OXT UNL     1     -11.364  16.837  64.013  1.00  0.00    -1.153 OA 
HETATM   11  CA  UNL     1     -11.258  11.634  66.163  1.00  0.00    -0.254 C  
HETATM   12  O   UNL     1     -12.872  12.673  64.441  1.00  0.00    -0.712 OA 
ENDROOT
BRANCH  11  13
HETATM   13  N   UNL     1     -10.530  10.659  65.265  1.00  0.00    -0.240 N  
HETATM   14  C   UNL     1      -9.544   9.677  65.438  1.00  0.00    -0.291 C  
HETATM   15  H   UNL     1     -10.831  10.735  64.292  1.00  0.00     0.000 HD 
HETATM   16  O   UNL     1      -9.116   9.122  64.426  1.00  0.00    -0.143 OA 
BRANCH  14  17
HETATM   17  C   UNL     1      -9.115   9.144  66.796  1.00  0.00    -0.144 C  
BRANCH  17  18
HETATM   18  C   UNL     1      -9.993   8.269  67.589  1.00  0.00    -0.190 A  
HETATM   19  N   UNL     1     -10.155   8.481  68.954  1.00  0.00    -0.198 NA 
HETATM   20  C   UNL     1     -10.469   7.033  67.162  1.00  0.00    -0.312 A  
HETATM   21  N   UNL     1     -10.492   7.234  70.882  1.00  0.00    -0.213 NA 
HETATM   22  H2  UNL     1     -10.750   6.335  71.288  1.00  0.00     0.000 HD 
HETATM   23  S   UNL     1     -10.958   6.088  68.509  1.00  0.00    -0.176 SA 
HETATM   24  H1  UNL     1     -10.226   7.999  71.502  1.00  0.00     0.000 HD 
HETATM   25  C   UNL     1     -10.511   7.374  69.551  1.00  0.00    -0.232 A  
ENDBRANCH  17  18
BRANCH  17  26
HETATM   26  N   UNL     1      -8.112   9.562  67.519  1.00  0.00    -0.110 NA 
HETATM   27  H   UNL     1      -8.328   9.983  68.424  1.00  0.00     0.000 HD 
BRANCH  26  28
HETATM   28  O   UNL     1      -6.764   9.479  67.152  1.00  0.00    -0.070 OA 
HETATM   29  C   UNL     1      -6.083  10.630  66.703  1.00  0.00    -0.081 C  
ENDBRANCH  26  28
ENDBRANCH  17  26
ENDBRANCH  14  17
ENDBRANCH  11  13
TORSDOF 5
ENDMDL
MODEL       57
REMARK 921   NORMALIZED FREE ENERGY PREDICTED BY IDOCK:   -6.02 KCAL/MOL
REMARK 922        TOTAL FREE ENERGY PREDICTED BY IDOCK:   -8.55 KCAL/MOL
REMARK 923 INTER-LIGAND FREE ENERGY PREDICTED BY IDOCK:   -7.76 KCAL/MOL
REMARK 924 INTRA-LIGAND FREE ENERGY PREDICTED BY IDOCK:   -0.79 KCAL/MOL
REMARK 927      BINDING AFFINITY PREDICTED BY RF-SCORE:    0.00 PKD
ROOT
HETATM    1  CE  UNL     1      -9.609  12.510  66.317  1.00  0.00    -0.245 C  
HETATM    2  SD  UNL     1     -10.308  11.202  65.370  1.00  0.00    -0.265 SA 
HETATM    3  CG  UNL     1     -11.304  12.077  64.124  1.00  0.00    -0.382 C  
HETATM    4  CB  UNL     1     -11.276  13.564  64.147  1.00  0.00    -0.341 C  
HETATM    5  CA  UNL     1     -10.742  14.370  65.080  1.00  0.00    -0.423 C  
HETATM    6  N   UNL     1     -10.129  13.828  66.174  1.00  0.00    -0.300 N  
HETATM    7  C   UNL     1     -10.977  15.839  64.904  1.00  0.00    -0.427 C  
HETATM    8  C   UNL     1      -9.788  14.262  67.420  1.00  0.00    -0.235 C  
HETATM    9  O   UNL     1     -10.522  16.669  65.828  1.00  0.00    -0.354 OA 
HETATM   10  OXT UNL     1     -11.565  16.292  63.919  1.00  0.00    -0.987 OA 
HETATM   11  CA  UNL     1      -9.685  12.774  67.892  1.00  0.00    -0.217 C  
HETATM   12  O   UNL     1      -9.803  15.349  67.895  1.00  0.00    -0.218 OA 
ENDROOT
BRANCH  11  13
HETATM   13  N   UNL     1     -10.737  12.476  68.937  1.00  0.00    -0.367 N  
HETATM   14  C   UNL     1     -11.120  11.354  69.686  1.00  0.00    -0.174 C  
HETATM   15  H   UNL     1     -11.310  13.293  69.148  1.00  0.00     0.000 HD 
HETATM   16  O   UNL     1     -12.115  11.465  70.401  1.00  0.00    -0.341 OA 
BRANCH  14  17
HETATM   17  C   UNL     1     -10.282  10.090  69.797  1.00  0.00    -0.250 C  
BRANCH  17  18
HETATM   18  C   UNL     1      -9.993   9.255  68.621  1.00  0.00    -0.178 A  
HETATM   19  N   UNL     1     -11.016   8.576  67.967  1.00  0.00     0.064 NA 
HETATM   20  C   UNL     1      -8.722   8.825  68.252  1.00  0.00    -0.135 A  
HETATM   21  N   UNL     1     -11.331   6.579  66.828  1.00  0.00    -0.800 NA 
HETATM   22  H2  UNL     1     -10.901   5.777  66.368  1.00  0.00     0.000 HD 
HETATM   23  S   UNL     1      -8.834   7.461  67.216  1.00  0.00    -0.125 SA 
HETATM   24  H1  UNL     1     -12.347   6.626  66.894  1.00  0.00     0.000 HD 
HETATM   25  C   UNL     1     -10.543   7.539  67.328  1.00  0.00    -0.324 A  
ENDBRANCH  17  18
BRANCH  17  26
HETATM   26  N   UNL     1      -9.952   9.464  70.894  1.00  0.00    -0.291 NA 
HETATM   27  H   UNL     1      -9.074   9.732  71.341  1.00  0.00     0.000 HD 
BRANCH  26  28
HETATM   28  O   UNL     1     -10.705   8.456  71.506  1.00  0.00    -0.221 OA 
HETATM   29  C   UNL     1     -10.559   7.116  71.090  1.00  0.00    -0.223 C  
ENDBRANCH  26  28
ENDBRANCH  17  26
ENDBRANCH  14  17
ENDBRANCH  11  13
TORSDOF 5
ENDMDL
MODEL       58
REMARK 921   NORMALIZED FREE ENERGY PREDICTED BY IDOCK:   -6.01 KCAL/MOL
REMARK 922        TOTAL FREE ENERGY PREDICTED BY IDOCK:   -8.53 KCAL/MOL
REMARK 923 INTER-LIGAND FREE ENERGY PREDICTED BY IDOCK:   -7.78 KCAL/MOL
REMARK 924 INTRA-LIGAND FREE ENERGY PREDICTED BY IDOCK:   -0.75 KCAL/MOL
REMARK 927      BINDING AFFINITY PREDICTED BY RF-SCORE:    0.00 PKD
ROOT
HETATM    1  CE  UNL     1     -11.678  12.164  67.145  1.00  0.00    -0.302 C  
HETATM    2  SD  UNL     1     -11.266  12.787  65.552  1.00  0.00    -0.305 SA 
HETATM    3  CG  UNL     1     -10.367  11.404  64.783  1.00  0.00    -0.294 C  
HETATM    4  CB  UNL     1     -10.230  10.153  65.577  1.00  0.00    -0.288 C  
HETATM    5  CA  UNL     1     -10.536   9.952  66.869  1.00  0.00    -0.178 C  
HETATM    6  N   UNL     1     -11.043  10.979  67.614  1.00  0.00    -0.281 N  
HETATM    7  C   UNL     1     -10.171   8.616  67.440  1.00  0.00    -0.262 C  
HETATM    8  C   UNL     1     -11.156  11.263  68.942  1.00  0.00    -0.238 C  
HETATM    9  O   UNL     1     -10.398   8.391  68.724  1.00  0.00    -0.208 OA 
HETATM   10  OXT UNL     1      -9.682   7.721  66.746  1.00  0.00    -0.193 OA 
HETATM   11  CA  UNL     1     -11.352  12.774  68.586  1.00  0.00    -0.294 C  
HETATM   12  O   UNL     1     -10.956  10.590  69.899  1.00  0.00    -0.270 OA 
ENDROOT
BRANCH  11  13
HETATM   13  N   UNL     1     -10.201  13.596  69.120  1.00  0.00    -0.430 N  
HETATM   14  C   UNL     1     -10.013  14.933  69.504  1.00  0.00    -0.077 C  
HETATM   15  H   UNL     1      -9.350  13.043  69.228  1.00  0.00     0.000 HD 
HETATM   16  O   UNL     1      -8.874  15.276  69.817  1.00  0.00    -0.191 OA 
BRANCH  14  17
HETATM   17  C   UNL     1     -11.154  15.914  69.723  1.00  0.00    -0.324 C  
BRANCH  17  18
HETATM   18  C   UNL     1     -12.095  15.758  70.843  1.00  0.00    -0.416 A  
HETATM   19  N   UNL     1     -11.667  15.933  72.155  1.00  0.00    -0.465 NA 
HETATM   20  C   UNL     1     -13.343  15.150  70.747  1.00  0.00    -0.341 A  
HETATM   21  N   UNL     1     -12.113  15.070  74.262  1.00  0.00    -0.644 NA 
HETATM   22  H2  UNL     1     -12.742  14.524  74.850  1.00  0.00     0.000 HD 
HETATM   23  S   UNL     1     -13.883  14.655  72.298  1.00  0.00    -0.508 SA 
HETATM   24  H1  UNL     1     -11.254  15.441  74.668  1.00  0.00     0.000 HD 
HETATM   25  C   UNL     1     -12.439  15.278  72.981  1.00  0.00    -0.422 A  
ENDBRANCH  17  18
BRANCH  17  26
HETATM   26  N   UNL     1     -11.595  16.803  68.875  1.00  0.00    -0.084 NA 
HETATM   27  H   UNL     1     -12.543  17.156  69.015  1.00  0.00     0.000 HD 
BRANCH  26  28
HETATM   28  O   UNL     1     -10.872  17.312  67.790  1.00  0.00    -0.351 OA 
HETATM   29  C   UNL     1     -10.426  18.650  67.805  1.00  0.00    -0.411 C  
ENDBRANCH  26  28
ENDBRANCH  17  26
ENDBRANCH  14  17
ENDBRANCH  11  13
TORSDOF 5
ENDMDL
MODEL       59
REMARK 921   NORMALIZED FREE ENERGY PREDICTED BY IDOCK:   -6.00 KCAL/MOL
REMARK 922        TOTAL FREE ENERGY PREDICTED BY IDOCK:   -8.51 KCAL/MOL
REMARK 923 INTER-LIGAND FREE ENERGY PREDICTED BY IDOCK:   -7.65 KCAL/MOL
REMARK 924 INTRA-LIGAND FREE ENERGY PREDICTED BY IDOCK:   -0.86 KCAL/MOL
REMARK 927      BINDING AFFINITY PREDICTED BY RF-SCORE:    0.00 PKD
ROOT
HETATM    1  CE  UNL     1      -8.999  10.516  65.349  1.00  0.00    -0.186 C  
HETATM    2  SD  UNL     1      -8.223  10.121  63.821  1.00  0.00    -0.163 SA 
HETATM    3  CG  UNL     1      -9.228  11.019  62.598  1.00  0.00    -0.333 C  
HETATM    4  CB  UNL     1     -10.351  11.848  63.114  1.00  0.00    -0.330 C  
HETATM    5  CA  UNL     1     -10.842  11.897  64.363  1.00  0.00    -0.332 C  
HETATM    6  N   UNL     1     -10.291  11.116  65.339  1.00  0.00    -0.264 N  
HETATM    7  C   UNL     1     -12.068  12.734  64.565  1.00  0.00    -0.414 C  
HETATM    8  C   UNL     1     -10.683  10.652  66.559  1.00  0.00    -0.151 C  
HETATM    9  O   UNL     1     -12.623  12.766  65.765  1.00  0.00    -0.562 OA 
HETATM   10  OXT UNL     1     -12.559  13.401  63.651  1.00  0.00    -0.718 OA 
HETATM   11  CA  UNL     1      -9.587   9.539  66.470  1.00  0.00    -0.201 C  
HETATM   12  O   UNL     1     -11.625  10.925  67.227  1.00  0.00    -0.475 OA 
ENDROOT
BRANCH  11  13
HETATM   13  N   UNL     1     -10.226   8.170  66.410  1.00  0.00    -0.472 N  
HETATM   14  C   UNL     1     -10.602   7.194  67.346  1.00  0.00    -0.302 C  
HETATM   15  H   UNL     1     -10.437   7.886  65.453  1.00  0.00     0.000 HD 
HETATM   16  O   UNL     1     -11.030   6.127  66.908  1.00  0.00    -0.343 OA 
BRANCH  14  17
HETATM   17  C   UNL     1     -10.676   7.448  68.843  1.00  0.00    -0.130 C  
BRANCH  17  18
HETATM   18  C   UNL     1      -9.479   7.809  69.620  1.00  0.00    -0.156 A  
HETATM   19  N   UNL     1      -9.263   9.125  70.012  1.00  0.00    -0.177 NA 
HETATM   20  C   UNL     1      -8.356   6.999  69.761  1.00  0.00    -0.132 A  
HETATM   21  N   UNL     1      -7.480  10.573  70.346  1.00  0.00    -0.431 NA 
HETATM   22  H2  UNL     1      -6.473  10.680  70.465  1.00  0.00     0.000 HD 
HETATM   23  S   UNL     1      -6.999   7.943  70.225  1.00  0.00    -0.049 SA 
HETATM   24  H1  UNL     1      -8.068  11.405  70.337  1.00  0.00     0.000 HD 
HETATM   25  C   UNL     1      -7.989   9.343  70.208  1.00  0.00    -0.161 A  
ENDBRANCH  17  18
BRANCH  17  26
HETATM   26  N   UNL     1     -11.664   7.147  69.640  1.00  0.00    -0.516 NA 
HETATM   27  H   UNL     1     -12.528   7.682  69.540  1.00  0.00     0.000 HD 
BRANCH  26  28
HETATM   28  O   UNL     1     -11.635   6.148  70.620  1.00  0.00    -0.321 OA 
HETATM   29  C   UNL     1     -12.013   6.450  71.946  1.00  0.00    -0.329 C  
ENDBRANCH  26  28
ENDBRANCH  17  26
ENDBRANCH  14  17
ENDBRANCH  11  13
TORSDOF 5
ENDMDL
MODEL       60
REMARK 921   NORMALIZED FREE ENERGY PREDICTED BY IDOCK:   -5.93 KCAL/MOL
REMARK 922        TOTAL FREE ENERGY PREDICTED BY IDOCK:   -8.42 KCAL/MOL
REMARK 923 INTER-LIGAND FREE ENERGY PREDICTED BY IDOCK:   -7.46 KCAL/MOL
REMARK 924 INTRA-LIGAND FREE ENERGY PREDICTED BY IDOCK:   -0.96 KCAL/MOL
REMARK 927      BINDING AFFINITY PREDICTED BY RF-SCORE:    0.00 PKD
ROOT
HETATM    1  CE  UNL     1     -11.890  12.874  68.599  1.00  0.00    -0.312 C  
HETATM    2  SD  UNL     1     -12.192  13.951  69.958  1.00  0.00    -0.329 SA 
HETATM    3  CG  UNL     1     -11.708  15.582  69.312  1.00  0.00    -0.365 C  
HETATM    4  CB  UNL     1     -11.250  15.648  67.898  1.00  0.00    -0.328 C  
HETATM    5  CA  UNL     1     -10.978  14.631  67.065  1.00  0.00    -0.317 C  
HETATM    6  N   UNL     1     -11.118  13.343  67.498  1.00  0.00    -0.267 N  
HETATM    7  C   UNL     1     -10.407  14.998  65.729  1.00  0.00    -0.335 C  
HETATM    8  C   UNL     1     -10.655  12.123  67.107  1.00  0.00    -0.226 C  
HETATM    9  O   UNL     1     -10.067  14.029  64.896  1.00  0.00    -0.380 OA 
HETATM   10  OXT UNL     1     -10.262  16.174  65.383  1.00  0.00    -0.479 OA 
HETATM   11  CA  UNL     1     -10.980  11.560  68.531  1.00  0.00    -0.223 C  
HETATM   12  O   UNL     1     -10.068  11.792  66.130  1.00  0.00    -0.212 OA 
ENDROOT
BRANCH  11  13
HETATM   13  N   UNL     1      -9.710  11.150  69.240  1.00  0.00    -0.424 N  
HETATM   14  C   UNL     1      -9.219   9.970  69.820  1.00  0.00    -0.199 C  
HETATM   15  H   UNL     1      -9.045  11.920  69.316  1.00  0.00     0.000 HD 
HETATM   16  O   UNL     1      -8.138  10.036  70.405  1.00  0.00    -0.187 OA 
BRANCH  14  17
HETATM   17  C   UNL     1      -9.852   8.603  69.613  1.00  0.00    -0.186 C  
BRANCH  17  18
HETATM   18  C   UNL     1     -11.118   8.237  70.265  1.00  0.00    -0.219 A  
HETATM   19  N   UNL     1     -11.780   9.147  71.083  1.00  0.00    -0.294 NA 
HETATM   20  C   UNL     1     -11.594   6.936  70.391  1.00  0.00    -0.335 A  
HETATM   21  N   UNL     1     -13.092   9.136  72.997  1.00  0.00    -0.683 NA 
HETATM   22  H2  UNL     1     -13.651   8.589  73.650  1.00  0.00     0.000 HD 
HETATM   23  S   UNL     1     -12.752   6.846  71.655  1.00  0.00    -0.294 SA 
HETATM   24  H1  UNL     1     -12.968  10.134  73.167  1.00  0.00     0.000 HD 
HETATM   25  C   UNL     1     -12.543   8.524  71.942  1.00  0.00    -0.354 A  
ENDBRANCH  17  18
BRANCH  17  26
HETATM   26  N   UNL     1      -9.285   7.550  69.091  1.00  0.00    -0.145 NA 
HETATM   27  H   UNL     1      -8.795   6.918  69.726  1.00  0.00     0.000 HD 
BRANCH  26  28
HETATM   28  O   UNL     1      -9.295   7.217  67.732  1.00  0.00    -0.129 OA 
HETATM   29  C   UNL     1      -9.732   8.161  66.779  1.00  0.00    -0.235 C  
ENDBRANCH  26  28
ENDBRANCH  17  26
ENDBRANCH  14  17
ENDBRANCH  11  13
TORSDOF 5
ENDMDL
MODEL       61
REMARK 921   NORMALIZED FREE ENERGY PREDICTED BY IDOCK:   -5.92 KCAL/MOL
REMARK 922        TOTAL FREE ENERGY PREDICTED BY IDOCK:   -8.41 KCAL/MOL
REMARK 923 INTER-LIGAND FREE ENERGY PREDICTED BY IDOCK:   -7.41 KCAL/MOL
REMARK 924 INTRA-LIGAND FREE ENERGY PREDICTED BY IDOCK:   -1.00 KCAL/MOL
REMARK 927      BINDING AFFINITY PREDICTED BY RF-SCORE:    0.00 PKD
ROOT
HETATM    1  CE  UNL     1      -9.021  16.567  68.780  1.00  0.00    -0.250 C  
HETATM    2  SD  UNL     1      -7.858  15.247  68.746  1.00  0.00    -0.169 SA 
HETATM    3  CG  UNL     1      -6.677  15.765  67.462  1.00  0.00    -0.190 C  
HETATM    4  CB  UNL     1      -6.905  17.085  66.817  1.00  0.00    -0.265 C  
HETATM    5  CA  UNL     1      -7.974  17.891  66.930  1.00  0.00    -0.227 C  
HETATM    6  N   UNL     1      -9.023  17.519  67.721  1.00  0.00    -0.242 N  
HETATM    7  C   UNL     1      -7.984  19.109  66.057  1.00  0.00    -0.217 C  
HETATM    8  C   UNL     1     -10.337  17.863  67.829  1.00  0.00    -0.387 C  
HETATM    9  O   UNL     1      -9.042  19.903  66.089  1.00  0.00    -0.374 OA 
HETATM   10  OXT UNL     1      -7.032  19.398  65.328  1.00  0.00    -0.409 OA 
HETATM   11  CA  UNL     1     -10.608  16.524  68.593  1.00  0.00    -0.316 C  
HETATM   12  O   UNL     1     -10.954  18.743  67.325  1.00  0.00    -0.412 OA 
ENDROOT
BRANCH  11  13
HETATM   13  N   UNL     1     -11.527  15.633  67.787  1.00  0.00    -0.267 N  
HETATM   14  C   UNL     1     -11.665  14.251  67.588  1.00  0.00    -0.389 C  
HETATM   15  H   UNL     1     -12.215  16.169  67.258  1.00  0.00     0.000 HD 
HETATM   16  O   UNL     1     -12.500  13.881  66.763  1.00  0.00    -0.381 OA 
BRANCH  14  17
HETATM   17  C   UNL     1     -10.980  13.203  68.450  1.00  0.00    -0.262 C  
BRANCH  17  18
HETATM   18  C   UNL     1     -10.331  12.025  67.855  1.00  0.00    -0.197 A  
HETATM   19  N   UNL     1      -9.296  12.176  66.939  1.00  0.00    -0.197 NA 
HETATM   20  C   UNL     1     -10.852  10.735  67.890  1.00  0.00    -0.264 A  
HETATM   21  N   UNL     1      -8.472  11.111  65.049  1.00  0.00    -0.380 NA 
HETATM   22  H2  UNL     1      -8.470  10.272  64.469  1.00  0.00     0.000 HD 
HETATM   23  S   UNL     1     -10.147   9.776  66.653  1.00  0.00    -0.234 SA 
HETATM   24  H1  UNL     1      -7.914  11.913  64.759  1.00  0.00     0.000 HD 
HETATM   25  C   UNL     1      -9.209  11.126  66.166  1.00  0.00    -0.198 A  
ENDBRANCH  17  18
BRANCH  17  26
HETATM   26  N   UNL     1     -11.088  13.061  69.743  1.00  0.00    -0.473 NA 
HETATM   27  H   UNL     1     -10.228  12.917  70.273  1.00  0.00     0.000 HD 
BRANCH  26  28
HETATM   28  O   UNL     1     -12.289  13.091  70.461  1.00  0.00    -0.338 OA 
HETATM   29  C   UNL     1     -12.552  14.152  71.353  1.00  0.00    -0.368 C  
ENDBRANCH  26  28
ENDBRANCH  17  26
ENDBRANCH  14  17
ENDBRANCH  11  13
TORSDOF 5
ENDMDL
MODEL       62
REMARK 921   NORMALIZED FREE ENERGY PREDICTED BY IDOCK:   -5.91 KCAL/MOL
REMARK 922        TOTAL FREE ENERGY PREDICTED BY IDOCK:   -8.40 KCAL/MOL
REMARK 923 INTER-LIGAND FREE ENERGY PREDICTED BY IDOCK:   -6.68 KCAL/MOL
REMARK 924 INTRA-LIGAND FREE ENERGY PREDICTED BY IDOCK:   -1.71 KCAL/MOL
REMARK 927      BINDING AFFINITY PREDICTED BY RF-SCORE:    0.00 PKD
ROOT
HETATM    1  CE  UNL     1      -9.377  15.058  69.702  1.00  0.00    -0.001 C  
HETATM    2  SD  UNL     1     -10.688  16.161  70.100  1.00  0.00    -0.233 SA 
HETATM    3  CG  UNL     1     -12.157  15.320  69.433  1.00  0.00    -0.270 C  
HETATM    4  CB  UNL     1     -11.954  13.989  68.799  1.00  0.00    -0.382 C  
HETATM    5  CA  UNL     1     -10.794  13.384  68.493  1.00  0.00    -0.265 C  
HETATM    6  N   UNL     1      -9.611  14.007  68.770  1.00  0.00    -0.152 N  
HETATM    7  C   UNL     1     -10.895  12.095  67.737  1.00  0.00    -0.224 C  
HETATM    8  C   UNL     1      -8.321  13.894  68.343  1.00  0.00    -0.157 C  
HETATM    9  O   UNL     1      -9.780  11.491  67.361  1.00  0.00    -0.177 OA 
HETATM   10  OXT UNL     1     -11.983  11.577  67.473  1.00  0.00    -0.629 OA 
HETATM   11  CA  UNL     1      -8.034  15.336  68.879  1.00  0.00    -0.176 C  
HETATM   12  O   UNL     1      -7.798  13.075  67.662  1.00  0.00    -0.140 OA 
ENDROOT
BRANCH  11  13
HETATM   13  N   UNL     1      -7.701  16.269  67.737  1.00  0.00    -0.139 N  
HETATM   14  C   UNL     1      -8.388  16.786  66.628  1.00  0.00    -0.261 C  
HETATM   15  H   UNL     1      -6.738  16.605  67.783  1.00  0.00     0.000 HD 
HETATM   16  O   UNL     1      -7.745  17.472  65.835  1.00  0.00    -0.506 OA 
BRANCH  14  17
HETATM   17  C   UNL     1      -9.896  16.694  66.455  1.00  0.00    -0.281 C  
BRANCH  17  18
HETATM   18  C   UNL     1     -10.509  15.662  65.605  1.00  0.00    -0.382 A  
HETATM   19  N   UNL     1     -11.885  15.458  65.623  1.00  0.00     0.143 NA 
HETATM   20  C   UNL     1      -9.807  14.636  64.979  1.00  0.00    -0.030 A  
HETATM   21  N   UNL     1     -13.388  13.703  65.409  1.00  0.00    -0.524 NA 
HETATM   22  H2  UNL     1     -13.544  12.736  65.124  1.00  0.00     0.000 HD 
HETATM   23  S   UNL     1     -10.871  13.352  64.572  1.00  0.00    -0.408 SA 
HETATM   24  H1  UNL     1     -14.163  14.231  65.809  1.00  0.00     0.000 HD 
HETATM   25  C   UNL     1     -12.173  14.240  65.246  1.00  0.00    -0.414 A  
ENDBRANCH  17  18
BRANCH  17  26
HETATM   26  N   UNL     1     -10.778  17.599  66.785  1.00  0.00    -0.203 NA 
HETATM   27  H   UNL     1     -11.752  17.413  66.546  1.00  0.00     0.000 HD 
BRANCH  26  28
HETATM   28  O   UNL     1     -10.493  18.802  67.440  1.00  0.00    -0.387 OA 
HETATM   29  C   UNL     1     -10.165  19.952  66.691  1.00  0.00    -0.485 C  
ENDBRANCH  26  28
ENDBRANCH  17  26
ENDBRANCH  14  17
ENDBRANCH  11  13
TORSDOF 5
ENDMDL
MODEL       63
REMARK 921   NORMALIZED FREE ENERGY PREDICTED BY IDOCK:   -5.88 KCAL/MOL
REMARK 922        TOTAL FREE ENERGY PREDICTED BY IDOCK:   -8.36 KCAL/MOL
REMARK 923 INTER-LIGAND FREE ENERGY PREDICTED BY IDOCK:   -7.86 KCAL/MOL
REMARK 924 INTRA-LIGAND FREE ENERGY PREDICTED BY IDOCK:   -0.51 KCAL/MOL
REMARK 927      BINDING AFFINITY PREDICTED BY RF-SCORE:    0.00 PKD
ROOT
HETATM    1  CE  UNL     1     -12.030  13.696  68.888  1.00  0.00    -0.356 C  
HETATM    2  SD  UNL     1     -11.569  14.837  70.145  1.00  0.00    -0.299 SA 
HETATM    3  CG  UNL     1     -10.831  16.212  69.209  1.00  0.00    -0.310 C  
HETATM    4  CB  UNL     1     -10.822  16.102  67.726  1.00  0.00    -0.318 C  
HETATM    5  CA  UNL     1     -11.135  15.036  66.970  1.00  0.00    -0.334 C  
HETATM    6  N   UNL     1     -11.521  13.871  67.569  1.00  0.00    -0.321 N  
HETATM    7  C   UNL     1     -10.910  15.176  65.496  1.00  0.00    -0.364 C  
HETATM    8  C   UNL     1     -11.590  12.560  67.205  1.00  0.00    -0.368 C  
HETATM    9  O   UNL     1     -11.147  14.134  64.717  1.00  0.00    -0.358 OA 
HETATM   10  OXT UNL     1     -10.527  16.235  64.992  1.00  0.00    -0.621 OA 
HETATM   11  CA  UNL     1     -11.626  12.158  68.717  1.00  0.00    -0.327 C  
HETATM   12  O   UNL     1     -11.454  12.039  66.147  1.00  0.00    -0.346 OA 
ENDROOT
BRANCH  11  13
HETATM   13  N   UNL     1     -10.388  11.372  69.085  1.00  0.00    -0.390 N  
HETATM   14  C   UNL     1     -10.118  10.212  69.827  1.00  0.00    -0.231 C  
HETATM   15  H   UNL     1      -9.540  11.787  68.698  1.00  0.00     0.000 HD 
HETATM   16  O   UNL     1      -8.936   9.909  69.991  1.00  0.00    -0.217 OA 
BRANCH  14  17
HETATM   17  C   UNL     1     -11.189   9.231  70.276  1.00  0.00    -0.231 C  
BRANCH  17  18
HETATM   18  C   UNL     1     -11.016   7.779  70.115  1.00  0.00    -0.241 A  
HETATM   19  N   UNL     1     -10.871   6.957  71.228  1.00  0.00    -0.231 NA 
HETATM   20  C   UNL     1     -10.678   7.152  68.919  1.00  0.00    -0.175 A  
HETATM   21  N   UNL     1      -9.747   5.017  71.827  1.00  0.00    -0.157 NA 
HETATM   22  H2  UNL     1      -9.232   4.194  71.516  1.00  0.00     0.000 HD 
HETATM   23  S   UNL     1     -10.025   5.596  69.229  1.00  0.00    -0.208 SA 
HETATM   24  H1  UNL     1      -9.873   5.174  72.826  1.00  0.00     0.000 HD 
HETATM   25  C   UNL     1     -10.237   5.860  70.909  1.00  0.00    -0.213 A  
ENDBRANCH  17  18
BRANCH  17  26
HETATM   26  N   UNL     1     -12.424   9.512  70.594  1.00  0.00    -0.496 NA 
HETATM   27  H   UNL     1     -13.105   9.557  69.835  1.00  0.00     0.000 HD 
BRANCH  26  28
HETATM   28  O   UNL     1     -12.888   9.755  71.891  1.00  0.00    -0.384 OA 
HETATM   29  C   UNL     1     -14.076   9.142  72.342  1.00  0.00    -0.359 C  
ENDBRANCH  26  28
ENDBRANCH  17  26
ENDBRANCH  14  17
ENDBRANCH  11  13
TORSDOF 5
ENDMDL
MODEL       64
REMARK 921   NORMALIZED FREE ENERGY PREDICTED BY IDOCK:   -5.86 KCAL/MOL
REMARK 922        TOTAL FREE ENERGY PREDICTED BY IDOCK:   -8.33 KCAL/MOL
REMARK 923 INTER-LIGAND FREE ENERGY PREDICTED BY IDOCK:   -7.08 KCAL/MOL
REMARK 924 INTRA-LIGAND FREE ENERGY PREDICTED BY IDOCK:   -1.25 KCAL/MOL
REMARK 927      BINDING AFFINITY PREDICTED BY RF-SCORE:    0.00 PKD
ROOT
HETATM    1  CE  UNL     1     -13.048  12.201  70.604  1.00  0.00     0.373 C  
HETATM    2  SD  UNL     1     -13.338  13.181  72.036  1.00  0.00    -0.461 SA 
HETATM    3  CG  UNL     1     -12.752  14.831  71.538  1.00  0.00    -0.330 C  
HETATM    4  CB  UNL     1     -12.247  14.985  70.147  1.00  0.00    -0.392 C  
HETATM    5  CA  UNL     1     -12.001  14.023  69.242  1.00  0.00    -0.353 C  
HETATM    6  N   UNL     1     -12.220  12.715  69.566  1.00  0.00    -0.160 N  
HETATM    7  C   UNL     1     -11.370  14.465  67.956  1.00  0.00    -0.294 C  
HETATM    8  C   UNL     1     -11.807  11.506  69.090  1.00  0.00    -0.340 C  
HETATM    9  O   UNL     1     -11.054  13.547  67.057  1.00  0.00    -0.287 OA 
HETATM   10  OXT UNL     1     -11.155  15.654  67.710  1.00  0.00    -0.314 OA 
HETATM   11  CA  UNL     1     -12.204  10.851  70.455  1.00  0.00    -0.365 C  
HETATM   12  O   UNL     1     -11.207  11.223  68.106  1.00  0.00    -0.239 OA 
ENDROOT
BRANCH  11  13
HETATM   13  N   UNL     1     -10.979  10.319  71.163  1.00  0.00    -0.197 N  
HETATM   14  C   UNL     1     -10.463   9.049  71.462  1.00  0.00    -0.339 C  
HETATM   15  H   UNL     1     -10.380  11.068  71.510  1.00  0.00     0.000 HD 
HETATM   16  O   UNL     1      -9.448   9.000  72.156  1.00  0.00    -0.340 OA 
BRANCH  14  17
HETATM   17  C   UNL     1     -10.978   7.762  70.835  1.00  0.00    -0.250 C  
BRANCH  17  18
HETATM   18  C   UNL     1     -10.560   7.345  69.488  1.00  0.00    -0.237 A  
HETATM   19  N   UNL     1     -10.034   8.271  68.593  1.00  0.00    -0.185 NA 
HETATM   20  C   UNL     1     -10.915   6.139  68.889  1.00  0.00    -0.356 A  
HETATM   21  N   UNL     1     -10.025   8.673  66.307  1.00  0.00    -0.412 NA 
HETATM   22  H2  UNL     1     -10.208   8.311  65.372  1.00  0.00     0.000 HD 
HETATM   23  S   UNL     1     -10.739   6.248  67.186  1.00  0.00    -0.386 SA 
HETATM   24  H1  UNL     1      -9.709   9.637  66.412  1.00  0.00     0.000 HD 
HETATM   25  C   UNL     1     -10.208   7.869  67.361  1.00  0.00    -0.251 A  
ENDBRANCH  17  18
BRANCH  17  26
HETATM   26  N   UNL     1     -11.983   7.039  71.247  1.00  0.00    -0.327 NA 
HETATM   27  H   UNL     1     -12.073   6.098  70.862  1.00  0.00     0.000 HD 
BRANCH  26  28
HETATM   28  O   UNL     1     -12.947   7.451  72.174  1.00  0.00    -0.189 OA 
HETATM   29  C   UNL     1     -14.196   7.930  71.726  1.00  0.00    -0.451 C  
ENDBRANCH  26  28
ENDBRANCH  17  26
ENDBRANCH  14  17
ENDBRANCH  11  13
TORSDOF 5
ENDMDL
MODEL       65
REMARK 921   NORMALIZED FREE ENERGY PREDICTED BY IDOCK:   -5.86 KCAL/MOL
REMARK 922        TOTAL FREE ENERGY PREDICTED BY IDOCK:   -8.33 KCAL/MOL
REMARK 923 INTER-LIGAND FREE ENERGY PREDICTED BY IDOCK:   -7.49 KCAL/MOL
REMARK 924 INTRA-LIGAND FREE ENERGY PREDICTED BY IDOCK:   -0.84 KCAL/MOL
REMARK 927      BINDING AFFINITY PREDICTED BY RF-SCORE:    0.00 PKD
ROOT
HETATM    1  CE  UNL     1     -11.395  14.468  67.622  1.00  0.00    -0.337 C  
HETATM    2  SD  UNL     1     -11.425  14.125  69.347  1.00  0.00    -0.300 SA 
HETATM    3  CG  UNL     1     -11.003  15.728  70.097  1.00  0.00    -0.352 C  
HETATM    4  CB  UNL     1     -10.791  16.878  69.178  1.00  0.00    -0.237 C  
HETATM    5  CA  UNL     1     -10.700  16.864  67.838  1.00  0.00    -0.344 C  
HETATM    6  N   UNL     1     -10.808  15.681  67.164  1.00  0.00    -0.312 N  
HETATM    7  C   UNL     1     -10.353  18.165  67.180  1.00  0.00    -0.379 C  
HETATM    8  C   UNL     1     -10.460  15.224  65.928  1.00  0.00    -0.331 C  
HETATM    9  O   UNL     1     -10.194  18.189  65.867  1.00  0.00    -0.548 OA 
HETATM   10  OXT UNL     1     -10.230  19.209  67.825  1.00  0.00    -0.357 OA 
HETATM   11  CA  UNL     1     -10.556  13.756  66.461  1.00  0.00    -0.279 C  
HETATM   12  O   UNL     1     -10.060  15.800  64.971  1.00  0.00    -0.425 OA 
ENDROOT
BRANCH  11  13
HETATM   13  N   UNL     1      -9.197  13.092  66.432  1.00  0.00    -0.430 N  
HETATM   14  C   UNL     1      -8.719  11.778  66.537  1.00  0.00    -0.173 C  
HETATM   15  H   UNL     1      -8.443  13.767  66.305  1.00  0.00     0.000 HD 
HETATM   16  O   UNL     1      -7.498  11.621  66.557  1.00  0.00    -0.086 OA 
BRANCH  14  17
HETATM   17  C   UNL     1      -9.608  10.548  66.446  1.00  0.00    -0.177 C  
BRANCH  17  18
HETATM   18  C   UNL     1      -9.608   9.521  67.500  1.00  0.00    -0.144 A  
HETATM   19  N   UNL     1     -10.167   8.269  67.267  1.00  0.00    -0.247 NA 
HETATM   20  C   UNL     1      -9.360   9.772  68.846  1.00  0.00    -0.158 A  
HETATM   21  N   UNL     1     -11.321   6.632  68.438  1.00  0.00    -0.571 NA 
HETATM   22  H2  UNL     1     -11.602   6.263  69.346  1.00  0.00     0.000 HD 
HETATM   23  S   UNL     1      -9.987   8.501  69.812  1.00  0.00    -0.195 SA 
HETATM   24  H1  UNL     1     -11.647   6.164  67.592  1.00  0.00     0.000 HD 
HETATM   25  C   UNL     1     -10.536   7.714  68.391  1.00  0.00    -0.169 A  
ENDBRANCH  17  18
BRANCH  17  26
HETATM   26  N   UNL     1     -10.246  10.120  65.391  1.00  0.00    -0.272 NA 
HETATM   27  H   UNL     1     -10.368   9.111  65.293  1.00  0.00     0.000 HD 
BRANCH  26  28
HETATM   28  O   UNL     1     -10.776  10.934  64.383  1.00  0.00    -0.340 OA 
HETATM   29  C   UNL     1     -10.064  11.121  63.180  1.00  0.00    -0.330 C  
ENDBRANCH  26  28
ENDBRANCH  17  26
ENDBRANCH  14  17
ENDBRANCH  11  13
TORSDOF 5
ENDMDL
MODEL       66
REMARK 921   NORMALIZED FREE ENERGY PREDICTED BY IDOCK:   -5.85 KCAL/MOL
REMARK 922        TOTAL FREE ENERGY PREDICTED BY IDOCK:   -8.32 KCAL/MOL
REMARK 923 INTER-LIGAND FREE ENERGY PREDICTED BY IDOCK:   -7.59 KCAL/MOL
REMARK 924 INTRA-LIGAND FREE ENERGY PREDICTED BY IDOCK:   -0.73 KCAL/MOL
REMARK 927      BINDING AFFINITY PREDICTED BY RF-SCORE:    0.00 PKD
ROOT
HETATM    1  CE  UNL     1     -11.138  10.312  70.678  1.00  0.00    -0.280 C  
HETATM    2  SD  UNL     1     -12.894  10.320  70.576  1.00  0.00    -0.129 SA 
HETATM    3  CG  UNL     1     -13.385   9.020  71.752  1.00  0.00    -0.397 C  
HETATM    4  CB  UNL     1     -12.300   8.334  72.503  1.00  0.00    -0.335 C  
HETATM    5  CA  UNL     1     -10.973   8.421  72.312  1.00  0.00    -0.361 C  
HETATM    6  N   UNL     1     -10.483   9.224  71.321  1.00  0.00    -0.325 N  
HETATM    7  C   UNL     1     -10.119   7.511  73.141  1.00  0.00    -0.308 C  
HETATM    8  C   UNL     1      -9.312   9.322  70.631  1.00  0.00    -0.270 C  
HETATM    9  O   UNL     1      -8.811   7.518  72.946  1.00  0.00    -0.125 OA 
HETATM   10  OXT UNL     1     -10.600   6.773  74.004  1.00  0.00    -0.343 OA 
HETATM   11  CA  UNL     1     -10.056  10.127  69.514  1.00  0.00    -0.235 C  
HETATM   12  O   UNL     1      -8.265   8.790  70.799  1.00  0.00    -0.123 OA 
ENDROOT
BRANCH  11  13
HETATM   13  N   UNL     1     -10.063   9.350  68.217  1.00  0.00    -0.175 N  
HETATM   14  C   UNL     1     -10.133   9.672  66.853  1.00  0.00    -0.227 C  
HETATM   15  H   UNL     1     -10.000   8.343  68.372  1.00  0.00     0.000 HD 
HETATM   16  O   UNL     1     -10.204   8.737  66.056  1.00  0.00    -0.157 OA 
BRANCH  14  17
HETATM   17  C   UNL     1      -9.948  11.080  66.310  1.00  0.00    -0.224 C  
BRANCH  17  18
HETATM   18  C   UNL     1     -11.099  11.902  65.903  1.00  0.00    -0.316 A  
HETATM   19  N   UNL     1     -11.441  12.023  64.560  1.00  0.00    -0.327 NA 
HETATM   20  C   UNL     1     -11.728  12.837  66.719  1.00  0.00    -0.392 A  
HETATM   21  N   UNL     1     -12.329  13.616  63.126  1.00  0.00    -1.076 NA 
HETATM   22  H2  UNL     1     -12.821  14.505  63.029  1.00  0.00     0.000 HD 
HETATM   23  S   UNL     1     -12.608  13.960  65.765  1.00  0.00    -0.443 SA 
HETATM   24  H1  UNL     1     -12.026  13.125  62.286  1.00  0.00     0.000 HD 
HETATM   25  C   UNL     1     -12.099  13.133  64.352  1.00  0.00    -0.410 A  
ENDBRANCH  17  18
BRANCH  17  26
HETATM   26  N   UNL     1      -8.832  11.622  65.904  1.00  0.00    -0.378 NA 
HETATM   27  H   UNL     1      -8.886  12.553  65.491  1.00  0.00     0.000 HD 
BRANCH  26  28
HETATM   28  O   UNL     1      -7.569  11.027  65.991  1.00  0.00    -0.129 OA 
HETATM   29  C   UNL     1      -6.817  11.138  67.180  1.00  0.00    -0.107 C  
ENDBRANCH  26  28
ENDBRANCH  17  26
ENDBRANCH  14  17
ENDBRANCH  11  13
TORSDOF 5
ENDMDL
MODEL       67
REMARK 921   NORMALIZED FREE ENERGY PREDICTED BY IDOCK:   -5.84 KCAL/MOL
REMARK 922        TOTAL FREE ENERGY PREDICTED BY IDOCK:   -8.31 KCAL/MOL
REMARK 923 INTER-LIGAND FREE ENERGY PREDICTED BY IDOCK:   -7.73 KCAL/MOL
REMARK 924 INTRA-LIGAND FREE ENERGY PREDICTED BY IDOCK:   -0.58 KCAL/MOL
REMARK 927      BINDING AFFINITY PREDICTED BY RF-SCORE:    0.00 PKD
ROOT
HETATM    1  CE  UNL     1      -9.603  14.982  66.061  1.00  0.00    -0.325 C  
HETATM    2  SD  UNL     1      -9.410  14.279  67.662  1.00  0.00    -0.208 SA 
HETATM    3  CG  UNL     1     -10.718  13.016  67.723  1.00  0.00    -0.229 C  
HETATM    4  CB  UNL     1     -11.555  12.840  66.505  1.00  0.00    -0.435 C  
HETATM    5  CA  UNL     1     -11.593  13.610  65.405  1.00  0.00    -0.321 C  
HETATM    6  N   UNL     1     -10.788  14.710  65.320  1.00  0.00    -0.350 N  
HETATM    7  C   UNL     1     -12.633  13.262  64.384  1.00  0.00    -0.214 C  
HETATM    8  C   UNL     1     -10.771  15.855  64.580  1.00  0.00    -0.078 C  
HETATM    9  O   UNL     1     -12.749  14.026  63.311  1.00  0.00    -0.750 OA 
HETATM   10  OXT UNL     1     -13.367  12.278  64.510  1.00  0.00    -0.769 OA 
HETATM   11  CA  UNL     1      -9.830  16.510  65.645  1.00  0.00    -0.152 C  
HETATM   12  O   UNL     1     -11.416  16.181  63.639  1.00  0.00    -0.625 OA 
ENDROOT
BRANCH  11  13
HETATM   13  N   UNL     1     -10.525  17.669  66.324  1.00  0.00    -0.330 N  
HETATM   14  C   UNL     1     -10.641  18.140  67.640  1.00  0.00    -0.406 C  
HETATM   15  H   UNL     1     -11.036  18.252  65.660  1.00  0.00     0.000 HD 
HETATM   16  O   UNL     1     -11.389  19.098  67.833  1.00  0.00     0.047 OA 
BRANCH  14  17
HETATM   17  C   UNL     1      -9.769  17.655  68.788  1.00  0.00    -0.311 C  
BRANCH  17  18
HETATM   18  C   UNL     1      -8.370  18.090  68.926  1.00  0.00    -0.125 A  
HETATM   19  N   UNL     1      -8.041  19.439  68.863  1.00  0.00    -0.351 NA 
HETATM   20  C   UNL     1      -7.268  17.247  68.819  1.00  0.00    -0.245 A  
HETATM   21  N   UNL     1      -6.298  20.774  68.111  1.00  0.00    -0.314 NA 
HETATM   22  H2  UNL     1      -5.327  20.824  67.801  1.00  0.00     0.000 HD 
HETATM   23  S   UNL     1      -5.856  18.159  68.472  1.00  0.00    -0.187 SA 
HETATM   24  H1  UNL     1      -6.857  21.626  68.123  1.00  0.00     0.000 HD 
HETATM   25  C   UNL     1      -6.797  19.592  68.491  1.00  0.00    -0.301 A  
ENDBRANCH  17  18
BRANCH  17  26
HETATM   26  N   UNL     1     -10.021  16.661  69.595  1.00  0.00    -0.088 NA 
HETATM   27  H   UNL     1      -9.348  15.894  69.620  1.00  0.00     0.000 HD 
BRANCH  26  28
HETATM   28  O   UNL     1     -11.140  16.564  70.430  1.00  0.00    -0.333 OA 
HETATM   29  C   UNL     1     -11.740  15.308  70.661  1.00  0.00    -0.332 C  
ENDBRANCH  26  28
ENDBRANCH  17  26
ENDBRANCH  14  17
ENDBRANCH  11  13
TORSDOF 5
ENDMDL
MODEL       68
REMARK 921   NORMALIZED FREE ENERGY PREDICTED BY IDOCK:   -5.83 KCAL/MOL
REMARK 922        TOTAL FREE ENERGY PREDICTED BY IDOCK:   -8.30 KCAL/MOL
REMARK 923 INTER-LIGAND FREE ENERGY PREDICTED BY IDOCK:   -7.46 KCAL/MOL
REMARK 924 INTRA-LIGAND FREE ENERGY PREDICTED BY IDOCK:   -0.84 KCAL/MOL
REMARK 927      BINDING AFFINITY PREDICTED BY RF-SCORE:    0.00 PKD
ROOT
HETATM    1  CE  UNL     1      -9.372  10.711  68.309  1.00  0.00    -0.156 C  
HETATM    2  SD  UNL     1      -7.680  10.236  68.232  1.00  0.00    -0.094 SA 
HETATM    3  CG  UNL     1      -7.487   9.145  69.675  1.00  0.00    -0.078 C  
HETATM    4  CB  UNL     1      -8.698   8.882  70.499  1.00  0.00    -0.213 C  
HETATM    5  CA  UNL     1      -9.898   9.480  70.426  1.00  0.00    -0.271 C  
HETATM    6  N   UNL     1     -10.111  10.462  69.500  1.00  0.00    -0.233 N  
HETATM    7  C   UNL     1     -10.898   9.099  71.475  1.00  0.00    -0.366 C  
HETATM    8  C   UNL     1     -11.007  11.476  69.337  1.00  0.00    -0.176 C  
HETATM    9  O   UNL     1     -12.074   9.704  71.480  1.00  0.00    -0.351 OA 
HETATM   10  OXT UNL     1     -10.659   8.230  72.318  1.00  0.00    -0.273 OA 
HETATM   11  CA  UNL     1     -10.013  12.176  68.353  1.00  0.00    -0.206 C  
HETATM   12  O   UNL     1     -12.010  11.727  69.920  1.00  0.00    -0.312 OA 
ENDROOT
BRANCH  11  13
HETATM   13  N   UNL     1      -9.537  13.491  68.928  1.00  0.00    -0.412 N  
HETATM   14  C   UNL     1     -10.100  14.759  69.137  1.00  0.00    -0.197 C  
HETATM   15  H   UNL     1      -8.567  13.445  69.241  1.00  0.00     0.000 HD 
HETATM   16  O   UNL     1      -9.358  15.643  69.564  1.00  0.00    -0.264 OA 
BRANCH  14  17
HETATM   17  C   UNL     1     -11.590  15.045  69.038  1.00  0.00    -0.319 C  
BRANCH  17  18
HETATM   18  C   UNL     1     -12.390  15.366  70.230  1.00  0.00    -0.388 A  
HETATM   19  N   UNL     1     -11.861  16.157  71.244  1.00  0.00    -0.439 NA 
HETATM   20  C   UNL     1     -13.556  14.703  70.600  1.00  0.00     0.063 A  
HETATM   21  N   UNL     1     -11.988  16.345  73.553  1.00  0.00    -0.412 NA 
HETATM   22  H2  UNL     1     -12.484  16.095  74.408  1.00  0.00     0.000 HD 
HETATM   23  S   UNL     1     -13.876  14.951  72.268  1.00  0.00    -0.517 SA 
HETATM   24  H1  UNL     1     -11.147  16.918  73.619  1.00  0.00     0.000 HD 
HETATM   25  C   UNL     1     -12.461  15.913  72.379  1.00  0.00    -0.474 A  
ENDBRANCH  17  18
BRANCH  17  26
HETATM   26  N   UNL     1     -12.367  14.805  68.017  1.00  0.00    -0.559 NA 
HETATM   27  H   UNL     1     -13.371  14.759  68.191  1.00  0.00     0.000 HD 
BRANCH  26  28
HETATM   28  O   UNL     1     -11.931  14.607  66.701  1.00  0.00    -0.368 OA 
HETATM   29  C   UNL     1     -12.676  13.786  65.828  1.00  0.00    -0.446 C  
ENDBRANCH  26  28
ENDBRANCH  17  26
ENDBRANCH  14  17
ENDBRANCH  11  13
TORSDOF 5
ENDMDL
MODEL       69
REMARK 921   NORMALIZED FREE ENERGY PREDICTED BY IDOCK:   -5.83 KCAL/MOL
REMARK 922        TOTAL FREE ENERGY PREDICTED BY IDOCK:   -8.29 KCAL/MOL
REMARK 923 INTER-LIGAND FREE ENERGY PREDICTED BY IDOCK:   -7.68 KCAL/MOL
REMARK 924 INTRA-LIGAND FREE ENERGY PREDICTED BY IDOCK:   -0.62 KCAL/MOL
REMARK 927      BINDING AFFINITY PREDICTED BY RF-SCORE:    0.00 PKD
ROOT
HETATM    1  CE  UNL     1      -9.280  13.391  66.002  1.00  0.00     0.112 C  
HETATM    2  SD  UNL     1      -9.069  11.949  66.988  1.00  0.00    -0.197 SA 
HETATM    3  CG  UNL     1     -10.402  10.852  66.411  1.00  0.00    -0.251 C  
HETATM    4  CB  UNL     1     -11.267  11.350  65.308  1.00  0.00    -0.144 C  
HETATM    5  CA  UNL     1     -11.310  12.584  64.779  1.00  0.00    -0.313 C  
HETATM    6  N   UNL     1     -10.485  13.558  65.263  1.00  0.00    -0.320 N  
HETATM    7  C   UNL     1     -12.377  12.833  63.757  1.00  0.00    -0.446 C  
HETATM    8  C   UNL     1     -10.458  14.921  65.236  1.00  0.00    -0.404 C  
HETATM    9  O   UNL     1     -12.499  14.049  63.250  1.00  0.00    -0.795 OA 
HETATM   10  OXT UNL     1     -13.129  11.936  63.367  1.00  0.00    -0.710 OA 
HETATM   11  CA  UNL     1      -9.483  14.910  66.460  1.00  0.00    -0.283 C  
HETATM   12  O   UNL     1     -11.115  15.698  64.626  1.00  0.00    -0.434 OA 
ENDROOT
BRANCH  11  13
HETATM   13  N   UNL     1     -10.140  15.543  67.665  1.00  0.00    -0.241 N  
HETATM   14  C   UNL     1      -9.698  16.233  68.804  1.00  0.00    -0.240 C  
HETATM   15  H   UNL     1     -11.155  15.444  67.646  1.00  0.00     0.000 HD 
HETATM   16  O   UNL     1     -10.544  16.534  69.646  1.00  0.00    -0.316 OA 
BRANCH  14  17
HETATM   17  C   UNL     1      -8.287  16.776  68.965  1.00  0.00    -0.163 C  
BRANCH  17  18
HETATM   18  C   UNL     1      -7.952  18.161  68.598  1.00  0.00    -0.288 A  
HETATM   19  N   UNL     1      -8.948  19.127  68.501  1.00  0.00    -0.353 NA 
HETATM   20  C   UNL     1      -6.742  18.558  68.036  1.00  0.00    -0.216 A  
HETATM   21  N   UNL     1      -9.428  21.013  67.238  1.00  0.00    -0.626 NA 
HETATM   22  H2  UNL     1      -9.084  21.724  66.592  1.00  0.00     0.000 HD 
HETATM   23  S   UNL     1      -6.923  20.070  67.246  1.00  0.00    -0.243 SA 
HETATM   24  H1  UNL     1     -10.410  21.026  67.510  1.00  0.00     0.000 HD 
HETATM   25  C   UNL     1      -8.575  20.092  67.703  1.00  0.00    -0.303 A  
ENDBRANCH  17  18
BRANCH  17  26
HETATM   26  N   UNL     1      -7.201  16.083  69.176  1.00  0.00    -0.196 NA 
HETATM   27  H   UNL     1      -6.361  16.360  68.666  1.00  0.00     0.000 HD 
BRANCH  26  28
HETATM   28  O   UNL     1      -7.097  14.992  70.045  1.00  0.00    -0.178 OA 
HETATM   29  C   UNL     1      -6.122  13.998  69.815  1.00  0.00    -0.129 C  
ENDBRANCH  26  28
ENDBRANCH  17  26
ENDBRANCH  14  17
ENDBRANCH  11  13
TORSDOF 5
ENDMDL
MODEL       70
REMARK 921   NORMALIZED FREE ENERGY PREDICTED BY IDOCK:   -5.81 KCAL/MOL
REMARK 922        TOTAL FREE ENERGY PREDICTED BY IDOCK:   -8.27 KCAL/MOL
REMARK 923 INTER-LIGAND FREE ENERGY PREDICTED BY IDOCK:   -7.37 KCAL/MOL
REMARK 924 INTRA-LIGAND FREE ENERGY PREDICTED BY IDOCK:   -0.90 KCAL/MOL
REMARK 927      BINDING AFFINITY PREDICTED BY RF-SCORE:    0.00 PKD
ROOT
HETATM    1  CE  UNL     1      -9.265  17.627  66.981  1.00  0.00    -0.250 C  
HETATM    2  SD  UNL     1     -10.348  18.842  66.313  1.00  0.00    -0.457 SA 
HETATM    3  CG  UNL     1      -9.656  20.405  66.937  1.00  0.00    -0.406 C  
HETATM    4  CB  UNL     1      -8.418  20.325  67.759  1.00  0.00    -0.266 C  
HETATM    5  CA  UNL     1      -7.821  19.229  68.256  1.00  0.00    -0.319 C  
HETATM    6  N   UNL     1      -8.359  17.997  68.016  1.00  0.00    -0.253 N  
HETATM    7  C   UNL     1      -6.650  19.461  69.161  1.00  0.00    -0.322 C  
HETATM    8  C   UNL     1      -8.261  16.760  68.580  1.00  0.00    -0.242 C  
HETATM    9  O   UNL     1      -6.066  18.415  69.722  1.00  0.00    -0.252 OA 
HETATM   10  OXT UNL     1      -6.211  20.592  69.383  1.00  0.00    -0.299 OA 
HETATM   11  CA  UNL     1      -9.605  16.355  67.888  1.00  0.00    -0.228 C  
HETATM   12  O   UNL     1      -7.525  16.341  69.411  1.00  0.00    -0.233 OA 
ENDROOT
BRANCH  11  13
HETATM   13  N   UNL     1     -10.673  16.086  68.925  1.00  0.00    -0.257 N  
HETATM   14  C   UNL     1     -11.763  15.210  69.041  1.00  0.00    -0.335 C  
HETATM   15  H   UNL     1     -10.577  16.690  69.741  1.00  0.00     0.000 HD 
HETATM   16  O   UNL     1     -12.490  15.341  70.025  1.00  0.00    -0.339 OA 
BRANCH  14  17
HETATM   17  C   UNL     1     -11.984  14.016  68.126  1.00  0.00    -0.347 C  
BRANCH  17  18
HETATM   18  C   UNL     1     -11.330  12.723  68.381  1.00  0.00    -0.295 A  
HETATM   19  N   UNL     1      -9.946  12.605  68.310  1.00  0.00    -0.228 NA 
HETATM   20  C   UNL     1     -11.988  11.497  68.403  1.00  0.00    -0.198 A  
HETATM   21  N   UNL     1      -8.363  11.028  67.685  1.00  0.00    -0.116 NA 
HETATM   22  H2  UNL     1      -8.164  10.052  67.465  1.00  0.00     0.000 HD 
HETATM   23  S   UNL     1     -10.868  10.219  68.163  1.00  0.00    -0.271 SA 
HETATM   24  H1  UNL     1      -7.610  11.713  67.619  1.00  0.00     0.000 HD 
HETATM   25  C   UNL     1      -9.603  11.371  68.052  1.00  0.00    -0.183 A  
ENDBRANCH  17  18
BRANCH  17  26
HETATM   26  N   UNL     1     -12.521  14.030  66.936  1.00  0.00    -0.529 NA 
HETATM   27  H   UNL     1     -13.530  14.173  66.878  1.00  0.00     0.000 HD 
BRANCH  26  28
HETATM   28  O   UNL     1     -11.823  13.865  65.735  1.00  0.00    -0.346 OA 
HETATM   29  C   UNL     1     -11.374  14.995  65.020  1.00  0.00    -0.394 C  
ENDBRANCH  26  28
ENDBRANCH  17  26
ENDBRANCH  14  17
ENDBRANCH  11  13
TORSDOF 5
ENDMDL
MODEL       71
REMARK 921   NORMALIZED FREE ENERGY PREDICTED BY IDOCK:   -5.78 KCAL/MOL
REMARK 922        TOTAL FREE ENERGY PREDICTED BY IDOCK:   -8.24 KCAL/MOL
REMARK 923 INTER-LIGAND FREE ENERGY PREDICTED BY IDOCK:   -7.44 KCAL/MOL
REMARK 924 INTRA-LIGAND FREE ENERGY PREDICTED BY IDOCK:   -0.80 KCAL/MOL
REMARK 927      BINDING AFFINITY PREDICTED BY RF-SCORE:    0.00 PKD
ROOT
HETATM    1  CE  UNL     1     -10.032   8.850  67.496  1.00  0.00    -0.203 C  
HETATM    2  SD  UNL     1      -8.530   7.937  67.569  1.00  0.00    -0.123 SA 
HETATM    3  CG  UNL     1      -8.400   7.490  69.329  1.00  0.00    -0.132 C  
HETATM    4  CB  UNL     1      -9.509   7.914  70.225  1.00  0.00    -0.163 C  
HETATM    5  CA  UNL     1     -10.531   8.741  69.948  1.00  0.00    -0.221 C  
HETATM    6  N   UNL     1     -10.632   9.301  68.706  1.00  0.00    -0.214 N  
HETATM    7  C   UNL     1     -11.433   9.092  71.092  1.00  0.00    -0.308 C  
HETATM    8  C   UNL     1     -11.275  10.374  68.166  1.00  0.00    -0.268 C  
HETATM    9  O   UNL     1     -12.418   9.949  70.882  1.00  0.00    -0.308 OA 
HETATM   10  OXT UNL     1     -11.291   8.592  72.211  1.00  0.00    -0.359 OA 
HETATM   11  CA  UNL     1     -10.292  10.330  66.949  1.00  0.00    -0.239 C  
HETATM   12  O   UNL     1     -12.096  11.099  68.624  1.00  0.00    -0.556 OA 
ENDROOT
BRANCH  11  13
HETATM   13  N   UNL     1      -9.440  11.579  66.912  1.00  0.00    -0.179 N  
HETATM   14  C   UNL     1      -9.668  12.945  66.690  1.00  0.00    -0.254 C  
HETATM   15  H   UNL     1      -8.456  11.378  67.093  1.00  0.00     0.000 HD 
HETATM   16  O   UNL     1      -8.684  13.683  66.649  1.00  0.00    -0.137 OA 
BRANCH  14  17
HETATM   17  C   UNL     1     -11.052  13.577  66.678  1.00  0.00    -0.298 C  
BRANCH  17  18
HETATM   18  C   UNL     1     -11.439  14.594  67.669  1.00  0.00    -0.346 A  
HETATM   19  N   UNL     1     -11.094  15.928  67.483  1.00  0.00    -0.281 NA 
HETATM   20  C   UNL     1     -11.877  14.311  68.960  1.00  0.00    -0.335 A  
HETATM   21  N   UNL     1     -10.505  17.770  68.766  1.00  0.00    -0.355 NA 
HETATM   22  H2  UNL     1     -10.470  18.194  69.693  1.00  0.00     0.000 HD 
HETATM   23  S   UNL     1     -11.688  15.690  69.964  1.00  0.00    -0.369 SA 
HETATM   24  H1  UNL     1     -10.125  18.284  67.972  1.00  0.00     0.000 HD 
HETATM   25  C   UNL     1     -11.049  16.555  68.629  1.00  0.00    -0.329 A  
ENDBRANCH  17  18
BRANCH  17  26
HETATM   26  N   UNL     1     -12.098  13.157  66.021  1.00  0.00    -0.430 NA 
HETATM   27  H   UNL     1     -12.674  12.440  66.463  1.00  0.00     0.000 HD 
BRANCH  26  28
HETATM   28  O   UNL     1     -12.493  13.613  64.758  1.00  0.00    -0.518 OA 
HETATM   29  C   UNL     1     -12.241  12.826  63.614  1.00  0.00    -0.512 C  
ENDBRANCH  26  28
ENDBRANCH  17  26
ENDBRANCH  14  17
ENDBRANCH  11  13
TORSDOF 5
ENDMDL
MODEL       72
REMARK 921   NORMALIZED FREE ENERGY PREDICTED BY IDOCK:   -5.78 KCAL/MOL
REMARK 922        TOTAL FREE ENERGY PREDICTED BY IDOCK:   -8.23 KCAL/MOL
REMARK 923 INTER-LIGAND FREE ENERGY PREDICTED BY IDOCK:   -7.71 KCAL/MOL
REMARK 924 INTRA-LIGAND FREE ENERGY PREDICTED BY IDOCK:   -0.52 KCAL/MOL
REMARK 927      BINDING AFFINITY PREDICTED BY RF-SCORE:    0.00 PKD
ROOT
HETATM    1  CE  UNL     1     -10.714  12.599  65.739  1.00  0.00    -0.268 C  
HETATM    2  SD  UNL     1     -12.205  12.837  64.836  1.00  0.00    -0.483 SA 
HETATM    3  CG  UNL     1     -12.199  14.623  64.485  1.00  0.00    -0.456 C  
HETATM    4  CB  UNL     1     -11.025  15.407  64.954  1.00  0.00    -0.453 C  
HETATM    5  CA  UNL     1     -10.029  15.008  65.762  1.00  0.00    -0.346 C  
HETATM    6  N   UNL     1     -10.024  13.734  66.253  1.00  0.00    -0.297 N  
HETATM    7  C   UNL     1      -9.042  16.059  66.171  1.00  0.00    -0.351 C  
HETATM    8  C   UNL     1      -9.425  13.089  67.293  1.00  0.00    -0.224 C  
HETATM    9  O   UNL     1      -8.077  15.729  67.013  1.00  0.00    -0.192 OA 
HETATM   10  OXT UNL     1      -9.097  17.211  65.734  1.00  0.00    -0.525 OA 
HETATM   11  CA  UNL     1     -10.498  11.955  67.187  1.00  0.00    -0.221 C  
HETATM   12  O   UNL     1      -8.573  13.442  68.040  1.00  0.00    -0.156 OA 
ENDROOT
BRANCH  11  13
HETATM   13  N   UNL     1     -11.353  11.915  68.434  1.00  0.00    -0.250 N  
HETATM   14  C   UNL     1     -11.511  11.037  69.516  1.00  0.00    -0.299 C  
HETATM   15  H   UNL     1     -11.965  12.728  68.506  1.00  0.00     0.000 HD 
HETATM   16  O   UNL     1     -12.396  11.297  70.330  1.00  0.00    -0.320 OA 
BRANCH  14  17
HETATM   17  C   UNL     1     -10.548   9.902  69.827  1.00  0.00    -0.264 C  
BRANCH  17  18
HETATM   18  C   UNL     1     -11.029   8.536  70.084  1.00  0.00    -0.216 A  
HETATM   19  N   UNL     1     -11.649   8.220  71.288  1.00  0.00    -0.275 NA 
HETATM   20  C   UNL     1     -10.660   7.416  69.344  1.00  0.00    -0.226 A  
HETATM   21  N   UNL     1     -11.817   6.418  72.741  1.00  0.00    -0.499 NA 
HETATM   22  H2  UNL     1     -11.677   5.419  72.889  1.00  0.00     0.000 HD 
HETATM   23  S   UNL     1     -10.945   5.986  70.248  1.00  0.00    -0.336 SA 
HETATM   24  H1  UNL     1     -12.168   6.987  73.511  1.00  0.00     0.000 HD 
HETATM   25  C   UNL     1     -11.535   6.943  71.543  1.00  0.00    -0.277 A  
ENDBRANCH  17  18
BRANCH  17  26
HETATM   26  N   UNL     1      -9.288  10.011  70.152  1.00  0.00    -0.385 NA 
HETATM   27  H   UNL     1      -8.724  10.680  69.626  1.00  0.00     0.000 HD 
BRANCH  26  28
HETATM   28  O   UNL     1      -8.650   9.285  71.163  1.00  0.00    -0.281 OA 
HETATM   29  C   UNL     1      -7.271   9.004  71.066  1.00  0.00    -0.106 C  
ENDBRANCH  26  28
ENDBRANCH  17  26
ENDBRANCH  14  17
ENDBRANCH  11  13
TORSDOF 5
ENDMDL
MODEL       73
REMARK 921   NORMALIZED FREE ENERGY PREDICTED BY IDOCK:   -5.78 KCAL/MOL
REMARK 922        TOTAL FREE ENERGY PREDICTED BY IDOCK:   -8.23 KCAL/MOL
REMARK 923 INTER-LIGAND FREE ENERGY PREDICTED BY IDOCK:   -7.50 KCAL/MOL
REMARK 924 INTRA-LIGAND FREE ENERGY PREDICTED BY IDOCK:   -0.72 KCAL/MOL
REMARK 927      BINDING AFFINITY PREDICTED BY RF-SCORE:    0.00 PKD
ROOT
HETATM    1  CE  UNL     1      -9.122  10.409  68.625  1.00  0.00    -0.157 C  
HETATM    2  SD  UNL     1      -7.365  10.495  68.683  1.00  0.00    -0.098 SA 
HETATM    3  CG  UNL     1      -6.957   9.642  70.238  1.00  0.00    -0.119 C  
HETATM    4  CB  UNL     1      -8.087   9.074  71.022  1.00  0.00    -0.199 C  
HETATM    5  CA  UNL     1      -9.404   9.249  70.827  1.00  0.00    -0.258 C  
HETATM    6  N   UNL     1      -9.838  10.034  69.797  1.00  0.00    -0.238 N  
HETATM    7  C   UNL     1     -10.315   8.654  71.858  1.00  0.00    -0.335 C  
HETATM    8  C   UNL     1     -10.991  10.691  69.486  1.00  0.00    -0.272 C  
HETATM    9  O   UNL     1     -11.618   8.851  71.741  1.00  0.00    -0.306 OA 
HETATM   10  OXT UNL     1      -9.885   7.978  72.795  1.00  0.00    -0.234 OA 
HETATM   11  CA  UNL     1     -10.190  11.591  68.487  1.00  0.00    -0.213 C  
HETATM   12  O   UNL     1     -12.065  10.656  69.989  1.00  0.00    -0.296 OA 
ENDROOT
BRANCH  11  13
HETATM   13  N   UNL     1     -10.197  13.031  68.949  1.00  0.00    -0.435 N  
HETATM   14  C   UNL     1      -9.607  14.228  68.517  1.00  0.00    -0.220 C  
HETATM   15  H   UNL     1     -10.775  13.165  69.779  1.00  0.00     0.000 HD 
HETATM   16  O   UNL     1      -9.774  15.225  69.218  1.00  0.00    -0.230 OA 
BRANCH  14  17
HETATM   17  C   UNL     1      -8.936  14.395  67.162  1.00  0.00    -0.232 C  
BRANCH  17  18
HETATM   18  C   UNL     1      -9.718  14.409  65.916  1.00  0.00    -0.276 A  
HETATM   19  N   UNL     1      -9.962  15.604  65.249  1.00  0.00    -0.378 NA 
HETATM   20  C   UNL     1     -10.513  13.357  65.471  1.00  0.00    -0.291 A  
HETATM   21  N   UNL     1     -11.639  16.576  63.973  1.00  0.00    -1.544 NA 
HETATM   22  H2  UNL     1     -12.497  16.442  63.437  1.00  0.00     0.000 HD 
HETATM   23  S   UNL     1     -11.671  13.925  64.340  1.00  0.00    -0.391 SA 
HETATM   24  H1  UNL     1     -11.264  17.518  64.077  1.00  0.00     0.000 HD 
HETATM   25  C   UNL     1     -11.040  15.510  64.516  1.00  0.00    -0.274 A  
ENDBRANCH  17  18
BRANCH  17  26
HETATM   26  N   UNL     1      -7.662  14.288  66.901  1.00  0.00    -0.279 NA 
HETATM   27  H   UNL     1      -7.372  14.382  65.927  1.00  0.00     0.000 HD 
BRANCH  26  28
HETATM   28  O   UNL     1      -6.661  14.056  67.851  1.00  0.00    -0.133 OA 
HETATM   29  C   UNL     1      -6.050  15.142  68.512  1.00  0.00    -0.095 C  
ENDBRANCH  26  28
ENDBRANCH  17  26
ENDBRANCH  14  17
ENDBRANCH  11  13
TORSDOF 5
ENDMDL
MODEL       74
REMARK 921   NORMALIZED FREE ENERGY PREDICTED BY IDOCK:   -5.77 KCAL/MOL
REMARK 922        TOTAL FREE ENERGY PREDICTED BY IDOCK:   -8.22 KCAL/MOL
REMARK 923 INTER-LIGAND FREE ENERGY PREDICTED BY IDOCK:   -7.52 KCAL/MOL
REMARK 924 INTRA-LIGAND FREE ENERGY PREDICTED BY IDOCK:   -0.71 KCAL/MOL
REMARK 927      BINDING AFFINITY PREDICTED BY RF-SCORE:    0.00 PKD
ROOT
HETATM    1  CE  UNL     1     -11.712  13.072  65.975  1.00  0.00    -0.393 C  
HETATM    2  SD  UNL     1     -12.495  12.777  64.427  1.00  0.00    -0.374 SA 
HETATM    3  CG  UNL     1     -11.376  11.595  63.613  1.00  0.00    -0.394 C  
HETATM    4  CB  UNL     1     -10.183  11.145  64.380  1.00  0.00    -0.390 C  
HETATM    5  CA  UNL     1      -9.715  11.624  65.544  1.00  0.00    -0.232 C  
HETATM    6  N   UNL     1     -10.365  12.653  66.164  1.00  0.00    -0.251 N  
HETATM    7  C   UNL     1      -8.412  11.059  66.021  1.00  0.00    -0.158 C  
HETATM    8  C   UNL     1     -10.049  13.581  67.110  1.00  0.00    -0.245 C  
HETATM    9  O   UNL     1      -7.880  11.541  67.132  1.00  0.00    -0.144 OA 
HETATM   10  OXT UNL     1      -7.834  10.151  65.417  1.00  0.00    -0.131 OA 
HETATM   11  CA  UNL     1     -11.254  14.457  66.631  1.00  0.00    -0.339 C  
HETATM   12  O   UNL     1      -9.097  13.682  67.812  1.00  0.00    -0.181 OA 
ENDROOT
BRANCH  11  13
HETATM   13  N   UNL     1     -10.761  15.760  66.045  1.00  0.00    -0.323 N  
HETATM   14  C   UNL     1     -10.409  17.020  66.552  1.00  0.00    -0.298 C  
HETATM   15  H   UNL     1     -10.660  15.712  65.031  1.00  0.00     0.000 HD 
HETATM   16  O   UNL     1     -10.127  17.898  65.737  1.00  0.00    -0.563 OA 
BRANCH  14  17
HETATM   17  C   UNL     1     -10.186  17.301  68.029  1.00  0.00    -0.332 C  
BRANCH  17  18
HETATM   18  C   UNL     1      -8.858  17.664  68.550  1.00  0.00    -0.285 A  
HETATM   19  N   UNL     1      -8.473  18.997  68.634  1.00  0.00    -0.362 NA 
HETATM   20  C   UNL     1      -7.800  16.773  68.700  1.00  0.00    -0.241 A  
HETATM   21  N   UNL     1      -6.544  20.270  68.427  1.00  0.00    -0.300 NA 
HETATM   22  H2  UNL     1      -5.525  20.283  68.385  1.00  0.00     0.000 HD 
HETATM   23  S   UNL     1      -6.313  17.627  68.777  1.00  0.00    -0.209 SA 
HETATM   24  H1  UNL     1      -7.054  21.147  68.328  1.00  0.00     0.000 HD 
HETATM   25  C   UNL     1      -7.171  19.102  68.610  1.00  0.00    -0.321 A  
ENDBRANCH  17  18
BRANCH  17  26
HETATM   26  N   UNL     1     -11.002  17.025  69.010  1.00  0.00    -0.284 NA 
HETATM   27  H   UNL     1     -11.075  17.707  69.766  1.00  0.00     0.000 HD 
BRANCH  26  28
HETATM   28  O   UNL     1     -11.784  15.869  69.107  1.00  0.00    -0.376 OA 
HETATM   29  C   UNL     1     -12.169  15.383  70.374  1.00  0.00    -0.391 C  
ENDBRANCH  26  28
ENDBRANCH  17  26
ENDBRANCH  14  17
ENDBRANCH  11  13
TORSDOF 5
ENDMDL
MODEL       75
REMARK 921   NORMALIZED FREE ENERGY PREDICTED BY IDOCK:   -5.76 KCAL/MOL
REMARK 922        TOTAL FREE ENERGY PREDICTED BY IDOCK:   -8.21 KCAL/MOL
REMARK 923 INTER-LIGAND FREE ENERGY PREDICTED BY IDOCK:   -7.31 KCAL/MOL
REMARK 924 INTRA-LIGAND FREE ENERGY PREDICTED BY IDOCK:   -0.90 KCAL/MOL
REMARK 927      BINDING AFFINITY PREDICTED BY RF-SCORE:    0.00 PKD
ROOT
HETATM    1  CE  UNL     1     -11.497  14.818  68.753  1.00  0.00    -0.301 C  
HETATM    2  SD  UNL     1     -10.206  15.783  69.458  1.00  0.00    -0.284 SA 
HETATM    3  CG  UNL     1      -9.536  16.690  68.030  1.00  0.00    -0.225 C  
HETATM    4  CB  UNL     1     -10.193  16.472  66.713  1.00  0.00    -0.295 C  
HETATM    5  CA  UNL     1     -11.122  15.557  66.390  1.00  0.00    -0.174 C  
HETATM    6  N   UNL     1     -11.570  14.682  67.338  1.00  0.00    -0.378 N  
HETATM    7  C   UNL     1     -11.512  15.486  64.945  1.00  0.00    -0.279 C  
HETATM    8  C   UNL     1     -12.205  13.476  67.334  1.00  0.00    -0.235 C  
HETATM    9  O   UNL     1     -12.379  14.561  64.567  1.00  0.00    -0.525 OA 
HETATM   10  OXT UNL     1     -11.061  16.272  64.108  1.00  0.00    -0.733 OA 
HETATM   11  CA  UNL     1     -11.723  13.236  68.804  1.00  0.00    -0.329 C  
HETATM   12  O   UNL     1     -12.706  12.864  66.449  1.00  0.00    -0.195 OA 
ENDROOT
BRANCH  11  13
HETATM   13  N   UNL     1     -10.772  12.062  68.863  1.00  0.00    -0.308 N  
HETATM   14  C   UNL     1      -9.745  11.558  68.051  1.00  0.00    -0.186 C  
HETATM   15  H   UNL     1     -10.912  11.496  69.701  1.00  0.00     0.000 HD 
HETATM   16  O   UNL     1      -9.230  10.492  68.388  1.00  0.00    -0.143 OA 
BRANCH  14  17
HETATM   17  C   UNL     1      -9.124  12.334  66.900  1.00  0.00    -0.208 C  
BRANCH  17  18
HETATM   18  C   UNL     1      -9.187  11.837  65.517  1.00  0.00    -0.057 A  
HETATM   19  N   UNL     1     -10.166  12.297  64.644  1.00  0.00    -0.289 NA 
HETATM   20  C   UNL     1      -8.528  10.700  65.057  1.00  0.00    -0.133 A  
HETATM   21  N   UNL     1     -11.447  11.496  62.883  1.00  0.00    -0.681 NA 
HETATM   22  H2  UNL     1     -11.586  10.763  62.188  1.00  0.00     0.000 HD 
HETATM   23  S   UNL     1      -9.264  10.131  63.615  1.00  0.00    -0.289 SA 
HETATM   24  H1  UNL     1     -12.117  12.263  62.934  1.00  0.00     0.000 HD 
HETATM   25  C   UNL     1     -10.391  11.421  63.702  1.00  0.00    -0.410 A  
ENDBRANCH  17  18
BRANCH  17  26
HETATM   26  N   UNL     1      -8.285  13.330  66.991  1.00  0.00    -0.380 NA 
HETATM   27  H   UNL     1      -8.600  14.242  66.658  1.00  0.00     0.000 HD 
BRANCH  26  28
HETATM   28  O   UNL     1      -6.987  13.246  67.508  1.00  0.00    -0.152 OA 
HETATM   29  C   UNL     1      -6.295  12.017  67.482  1.00  0.00    -0.118 C  
ENDBRANCH  26  28
ENDBRANCH  17  26
ENDBRANCH  14  17
ENDBRANCH  11  13
TORSDOF 5
ENDMDL
MODEL       76
REMARK 921   NORMALIZED FREE ENERGY PREDICTED BY IDOCK:   -5.76 KCAL/MOL
REMARK 922        TOTAL FREE ENERGY PREDICTED BY IDOCK:   -8.20 KCAL/MOL
REMARK 923 INTER-LIGAND FREE ENERGY PREDICTED BY IDOCK:   -7.36 KCAL/MOL
REMARK 924 INTRA-LIGAND FREE ENERGY PREDICTED BY IDOCK:   -0.84 KCAL/MOL
REMARK 927      BINDING AFFINITY PREDICTED BY RF-SCORE:    0.00 PKD
ROOT
HETATM    1  CE  UNL     1     -11.428  12.464  67.016  1.00  0.00    -0.358 C  
HETATM    2  SD  UNL     1     -10.784  12.641  65.389  1.00  0.00    -0.288 SA 
HETATM    3  CG  UNL     1     -10.105  10.992  65.028  1.00  0.00    -0.296 C  
HETATM    4  CB  UNL     1     -10.268   9.943  66.069  1.00  0.00    -0.269 C  
HETATM    5  CA  UNL     1     -10.706  10.086  67.331  1.00  0.00    -0.274 C  
HETATM    6  N   UNL     1     -11.066  11.322  67.787  1.00  0.00    -0.249 N  
HETATM    7  C   UNL     1     -10.644   8.867  68.200  1.00  0.00    -0.157 C  
HETATM    8  C   UNL     1     -11.226  11.907  69.008  1.00  0.00    -0.258 C  
HETATM    9  O   UNL     1     -11.008   8.973  69.467  1.00  0.00    -0.207 OA 
HETATM   10  OXT UNL     1     -10.280   7.773  67.763  1.00  0.00    -0.187 OA 
HETATM   11  CA  UNL     1     -11.106  13.313  68.332  1.00  0.00    -0.270 C  
HETATM   12  O   UNL     1     -11.231  11.439  70.098  1.00  0.00    -0.183 OA 
ENDROOT
BRANCH  11  13
HETATM   13  N   UNL     1      -9.865  14.029  68.818  1.00  0.00    -0.360 N  
HETATM   14  C   UNL     1      -9.535  15.349  69.159  1.00  0.00    -0.242 C  
HETATM   15  H   UNL     1      -9.073  13.395  68.923  1.00  0.00     0.000 HD 
HETATM   16  O   UNL     1      -8.360  15.583  69.437  1.00  0.00    -0.242 OA 
BRANCH  14  17
HETATM   17  C   UNL     1     -10.566  16.446  69.373  1.00  0.00    -0.317 C  
BRANCH  17  18
HETATM   18  C   UNL     1     -10.513  17.707  68.617  1.00  0.00    -0.317 A  
HETATM   19  N   UNL     1     -11.079  17.795  67.350  1.00  0.00    -0.043 NA 
HETATM   20  C   UNL     1      -9.675  18.775  68.922  1.00  0.00    -0.344 A  
HETATM   21  N   UNL     1     -10.687  18.884  65.339  1.00  0.00    -0.497 NA 
HETATM   22  H2  UNL     1     -10.191  19.628  64.848  1.00  0.00     0.000 HD 
HETATM   23  S   UNL     1      -9.479  19.787  67.550  1.00  0.00    -0.363 SA 
HETATM   24  H1  UNL     1     -11.301  18.266  64.809  1.00  0.00     0.000 HD 
HETATM   25  C   UNL     1     -10.512  18.748  66.658  1.00  0.00    -0.426 A  
ENDBRANCH  17  18
BRANCH  17  26
HETATM   26  N   UNL     1     -11.415  16.540  70.360  1.00  0.00    -0.456 NA 
HETATM   27  H   UNL     1     -11.752  17.473  70.603  1.00  0.00     0.000 HD 
BRANCH  26  28
HETATM   28  O   UNL     1     -11.899  15.464  71.113  1.00  0.00    -0.303 OA 
HETATM   29  C   UNL     1     -13.271  15.138  71.073  1.00  0.00    -0.450 C  
ENDBRANCH  26  28
ENDBRANCH  17  26
ENDBRANCH  14  17
ENDBRANCH  11  13
TORSDOF 5
ENDMDL
MODEL       77
REMARK 921   NORMALIZED FREE ENERGY PREDICTED BY IDOCK:   -5.70 KCAL/MOL
REMARK 922        TOTAL FREE ENERGY PREDICTED BY IDOCK:   -8.12 KCAL/MOL
REMARK 923 INTER-LIGAND FREE ENERGY PREDICTED BY IDOCK:   -7.05 KCAL/MOL
REMARK 924 INTRA-LIGAND FREE ENERGY PREDICTED BY IDOCK:   -1.07 KCAL/MOL
REMARK 927      BINDING AFFINITY PREDICTED BY RF-SCORE:    0.00 PKD
ROOT
HETATM    1  CE  UNL     1      -9.777  14.794  67.987  1.00  0.00    -0.213 C  
HETATM    2  SD  UNL     1      -8.629  16.066  68.384  1.00  0.00    -0.194 SA 
HETATM    3  CG  UNL     1      -8.833  17.252  67.018  1.00  0.00    -0.228 C  
HETATM    4  CB  UNL     1      -9.860  16.938  65.988  1.00  0.00    -0.281 C  
HETATM    5  CA  UNL     1     -10.555  15.799  65.829  1.00  0.00    -0.355 C  
HETATM    6  N   UNL     1     -10.348  14.754  66.683  1.00  0.00    -0.268 N  
HETATM    7  C   UNL     1     -11.435  15.720  64.619  1.00  0.00    -0.282 C  
HETATM    8  C   UNL     1     -10.583  13.411  66.661  1.00  0.00    -0.282 C  
HETATM    9  O   UNL     1     -12.094  14.597  64.386  1.00  0.00    -0.476 OA 
HETATM   10  OXT UNL     1     -11.571  16.674  63.849  1.00  0.00    -1.204 OA 
HETATM   11  CA  UNL     1      -9.528  13.225  67.802  1.00  0.00    -0.208 C  
HETATM   12  O   UNL     1     -11.198  12.743  65.898  1.00  0.00    -0.283 OA 
ENDROOT
BRANCH  11  13
HETATM   13  N   UNL     1      -8.347  12.422  67.304  1.00  0.00    -0.177 N  
HETATM   14  C   UNL     1      -8.096  11.070  67.026  1.00  0.00    -0.136 C  
HETATM   15  H   UNL     1      -7.531  13.009  67.128  1.00  0.00     0.000 HD 
HETATM   16  O   UNL     1      -6.948  10.762  66.710  1.00  0.00    -0.104 OA 
BRANCH  14  17
HETATM   17  C   UNL     1      -9.187  10.016  66.920  1.00  0.00    -0.147 C  
BRANCH  17  18
HETATM   18  C   UNL     1      -9.230   8.863  67.833  1.00  0.00    -0.138 A  
HETATM   19  N   UNL     1     -10.309   7.985  67.812  1.00  0.00    -0.225 NA 
HETATM   20  C   UNL     1      -8.419   8.713  68.953  1.00  0.00    -0.129 A  
HETATM   21  N   UNL     1     -11.521   6.679  69.298  1.00  0.00    -0.628 NA 
HETATM   22  H2  UNL     1     -11.572   6.256  70.224  1.00  0.00     0.000 HD 
HETATM   23  S   UNL     1      -9.118   7.588  70.045  1.00  0.00    -0.147 SA 
HETATM   24  H1  UNL     1     -12.303   6.555  68.654  1.00  0.00     0.000 HD 
HETATM   25  C   UNL     1     -10.431   7.380  68.963  1.00  0.00    -0.210 A  
ENDBRANCH  17  18
BRANCH  17  26
HETATM   26  N   UNL     1     -10.016   9.844  65.926  1.00  0.00    -0.278 NA 
HETATM   27  H   UNL     1     -10.984   9.619  66.156  1.00  0.00     0.000 HD 
BRANCH  26  28
HETATM   28  O   UNL     1      -9.682   9.944  64.571  1.00  0.00    -0.291 OA 
HETATM   29  C   UNL     1      -8.659   9.134  64.035  1.00  0.00    -0.166 C  
ENDBRANCH  26  28
ENDBRANCH  17  26
ENDBRANCH  14  17
ENDBRANCH  11  13
TORSDOF 5
ENDMDL
MODEL       78
REMARK 921   NORMALIZED FREE ENERGY PREDICTED BY IDOCK:   -5.69 KCAL/MOL
REMARK 922        TOTAL FREE ENERGY PREDICTED BY IDOCK:   -8.11 KCAL/MOL
REMARK 923 INTER-LIGAND FREE ENERGY PREDICTED BY IDOCK:   -7.46 KCAL/MOL
REMARK 924 INTRA-LIGAND FREE ENERGY PREDICTED BY IDOCK:   -0.66 KCAL/MOL
REMARK 927      BINDING AFFINITY PREDICTED BY RF-SCORE:    0.00 PKD
ROOT
HETATM    1  CE  UNL     1     -11.464   9.603  71.353  1.00  0.00    -0.385 C  
HETATM    2  SD  UNL     1     -13.156   9.974  71.045  1.00  0.00    -0.301 SA 
HETATM    3  CG  UNL     1     -14.008   8.428  71.487  1.00  0.00    -0.349 C  
HETATM    4  CB  UNL     1     -13.172   7.312  72.006  1.00  0.00    -0.181 C  
HETATM    5  CA  UNL     1     -11.833   7.223  72.038  1.00  0.00    -0.296 C  
HETATM    6  N   UNL     1     -11.073   8.248  71.551  1.00  0.00    -0.248 N  
HETATM    7  C   UNL     1     -11.263   5.917  72.503  1.00  0.00    -0.294 C  
HETATM    8  C   UNL     1      -9.789   8.396  71.120  1.00  0.00    -0.192 C  
HETATM    9  O   UNL     1      -9.949   5.760  72.495  1.00  0.00    -0.168 OA 
HETATM   10  OXT UNL     1     -11.981   4.998  72.905  1.00  0.00    -0.191 OA 
HETATM   11  CA  UNL     1     -10.209   9.702  70.366  1.00  0.00    -0.288 C  
HETATM   12  O   UNL     1      -8.861   7.659  71.177  1.00  0.00    -0.135 OA 
ENDROOT
BRANCH  11  13
HETATM   13  N   UNL     1     -10.057   9.522  68.873  1.00  0.00    -0.181 N  
HETATM   14  C   UNL     1     -10.438  10.241  67.730  1.00  0.00    -0.226 C  
HETATM   15  H   UNL     1      -9.553   8.667  68.638  1.00  0.00     0.000 HD 
HETATM   16  O   UNL     1     -10.211   9.726  66.636  1.00  0.00    -0.226 OA 
BRANCH  14  17
HETATM   17  C   UNL     1     -10.942  11.676  67.767  1.00  0.00    -0.233 C  
BRANCH  17  18
HETATM   18  C   UNL     1     -11.199  12.431  66.531  1.00  0.00    -0.319 A  
HETATM   19  N   UNL     1     -12.366  12.219  65.804  1.00  0.00    -0.543 NA 
HETATM   20  C   UNL     1     -10.235  13.148  65.830  1.00  0.00    -0.289 A  
HETATM   21  N   UNL     1     -13.064  12.218  63.591  1.00  0.00    -0.760 NA 
HETATM   22  H2  UNL     1     -12.858  12.478  62.626  1.00  0.00     0.000 HD 
HETATM   23  S   UNL     1     -10.744  13.401  64.210  1.00  0.00    -0.269 SA 
HETATM   24  H1  UNL     1     -13.926  11.713  63.794  1.00  0.00     0.000 HD 
HETATM   25  C   UNL     1     -12.194  12.551  64.552  1.00  0.00    -0.453 A  
ENDBRANCH  17  18
BRANCH  17  26
HETATM   26  N   UNL     1     -10.962  12.471  68.802  1.00  0.00    -0.248 NA 
HETATM   27  H   UNL     1     -10.165  12.435  69.438  1.00  0.00     0.000 HD 
BRANCH  26  28
HETATM   28  O   UNL     1     -11.990  13.371  69.107  1.00  0.00    -0.317 OA 
HETATM   29  C   UNL     1     -12.206  13.767  70.444  1.00  0.00    -0.363 C  
ENDBRANCH  26  28
ENDBRANCH  17  26
ENDBRANCH  14  17
ENDBRANCH  11  13
TORSDOF 5
ENDMDL
MODEL       79
REMARK 921   NORMALIZED FREE ENERGY PREDICTED BY IDOCK:   -5.68 KCAL/MOL
REMARK 922        TOTAL FREE ENERGY PREDICTED BY IDOCK:   -8.10 KCAL/MOL
REMARK 923 INTER-LIGAND FREE ENERGY PREDICTED BY IDOCK:   -7.12 KCAL/MOL
REMARK 924 INTRA-LIGAND FREE ENERGY PREDICTED BY IDOCK:   -0.99 KCAL/MOL
REMARK 927      BINDING AFFINITY PREDICTED BY RF-SCORE:    0.00 PKD
ROOT
HETATM    1  CE  UNL     1     -10.003   8.818  70.335  1.00  0.00    -0.189 C  
HETATM    2  SD  UNL     1     -11.062   8.221  71.607  1.00  0.00    -0.284 SA 
HETATM    3  CG  UNL     1     -11.808   6.736  70.865  1.00  0.00    -0.385 C  
HETATM    4  CB  UNL     1     -11.367   6.362  69.494  1.00  0.00    -0.460 C  
HETATM    5  CA  UNL     1     -10.607   7.072  68.644  1.00  0.00    -0.210 C  
HETATM    6  N   UNL     1     -10.141   8.301  69.016  1.00  0.00    -0.197 N  
HETATM    7  C   UNL     1     -10.429   6.498  67.271  1.00  0.00    -0.272 C  
HETATM    8  C   UNL     1      -9.660   9.402  68.371  1.00  0.00    -0.146 C  
HETATM    9  O   UNL     1      -9.738   7.189  66.380  1.00  0.00    -0.159 OA 
HETATM   10  OXT UNL     1     -10.893   5.399  66.959  1.00  0.00    -0.216 OA 
HETATM   11  CA  UNL     1      -9.963  10.260  69.644  1.00  0.00    -0.207 C  
HETATM   12  O   UNL     1      -9.361   9.567  67.234  1.00  0.00    -0.132 OA 
ENDROOT
BRANCH  11  13
HETATM   13  N   UNL     1     -11.029  11.289  69.347  1.00  0.00    -0.330 N  
HETATM   14  C   UNL     1     -11.139  12.410  68.510  1.00  0.00    -0.258 C  
HETATM   15  H   UNL     1     -11.879  11.130  69.890  1.00  0.00     0.000 HD 
HETATM   16  O   UNL     1     -12.164  13.085  68.602  1.00  0.00    -0.223 OA 
BRANCH  14  17
HETATM   17  C   UNL     1     -10.159  12.724  67.391  1.00  0.00    -0.219 C  
BRANCH  17  18
HETATM   18  C   UNL     1     -10.598  12.817  65.990  1.00  0.00    -0.268 A  
HETATM   19  N   UNL     1     -10.906  14.051  65.427  1.00  0.00    -0.313 NA 
HETATM   20  C   UNL     1     -11.033  11.738  65.226  1.00  0.00    -0.295 A  
HETATM   21  N   UNL     1     -12.380  14.935  63.867  1.00  0.00    -1.064 NA 
HETATM   22  H2  UNL     1     -13.036  14.753  63.108  1.00  0.00     0.000 HD 
HETATM   23  S   UNL     1     -11.969  12.290  63.898  1.00  0.00    -0.524 SA 
HETATM   24  H1  UNL     1     -12.238  15.895  64.180  1.00  0.00     0.000 HD 
HETATM   25  C   UNL     1     -11.731  13.905  64.424  1.00  0.00    -0.404 A  
ENDBRANCH  17  18
BRANCH  17  26
HETATM   26  N   UNL     1      -8.856  12.694  67.461  1.00  0.00    -0.175 NA 
HETATM   27  H   UNL     1      -8.353  12.290  66.670  1.00  0.00     0.000 HD 
BRANCH  26  28
HETATM   28  O   UNL     1      -8.094  13.170  68.533  1.00  0.00    -0.144 OA 
HETATM   29  C   UNL     1      -7.052  12.381  69.064  1.00  0.00    -0.041 C  
ENDBRANCH  26  28
ENDBRANCH  17  26
ENDBRANCH  14  17
ENDBRANCH  11  13
TORSDOF 5
ENDMDL
MODEL       80
REMARK 921   NORMALIZED FREE ENERGY PREDICTED BY IDOCK:   -5.66 KCAL/MOL
REMARK 922        TOTAL FREE ENERGY PREDICTED BY IDOCK:   -8.07 KCAL/MOL
REMARK 923 INTER-LIGAND FREE ENERGY PREDICTED BY IDOCK:   -7.32 KCAL/MOL
REMARK 924 INTRA-LIGAND FREE ENERGY PREDICTED BY IDOCK:   -0.76 KCAL/MOL
REMARK 927      BINDING AFFINITY PREDICTED BY RF-SCORE:    0.00 PKD
ROOT
HETATM    1  CE  UNL     1      -9.338  17.750  66.377  1.00  0.00    -0.249 C  
HETATM    2  SD  UNL     1     -10.512  19.007  66.007  1.00  0.00    -0.380 SA 
HETATM    3  CG  UNL     1     -10.000  20.384  67.082  1.00  0.00    -0.428 C  
HETATM    4  CB  UNL     1      -8.789  20.181  67.922  1.00  0.00    -0.294 C  
HETATM    5  CA  UNL     1      -8.104  19.045  68.130  1.00  0.00    -0.312 C  
HETATM    6  N   UNL     1      -8.509  17.889  67.526  1.00  0.00    -0.230 N  
HETATM    7  C   UNL     1      -6.994  19.111  69.134  1.00  0.00    -0.326 C  
HETATM    8  C   UNL     1      -8.309  16.556  67.729  1.00  0.00    -0.170 C  
HETATM    9  O   UNL     1      -6.329  18.003  69.418  1.00  0.00    -0.244 OA 
HETATM   10  OXT UNL     1      -6.676  20.167  69.687  1.00  0.00    -0.299 OA 
HETATM   11  CA  UNL     1      -9.582  16.250  66.873  1.00  0.00    -0.232 C  
HETATM   12  O   UNL     1      -7.564  15.984  68.455  1.00  0.00    -0.142 OA 
ENDROOT
BRANCH  11  13
HETATM   13  N   UNL     1     -10.653  15.609  67.727  1.00  0.00    -0.275 N  
HETATM   14  C   UNL     1     -11.571  14.560  67.569  1.00  0.00    -0.381 C  
HETATM   15  H   UNL     1     -10.726  16.049  68.645  1.00  0.00     0.000 HD 
HETATM   16  O   UNL     1     -12.377  14.373  68.480  1.00  0.00    -0.202 OA 
BRANCH  14  17
HETATM   17  C   UNL     1     -11.505  13.548  66.436  1.00  0.00    -0.331 C  
BRANCH  17  18
HETATM   18  C   UNL     1     -10.548  12.431  66.459  1.00  0.00    -0.235 A  
HETATM   19  N   UNL     1      -9.580  12.310  65.468  1.00  0.00    -0.160 NA 
HETATM   20  C   UNL     1     -10.694  11.282  67.231  1.00  0.00    -0.251 A  
HETATM   21  N   UNL     1      -8.466  10.631  64.317  1.00  0.00    -0.329 NA 
HETATM   22  H2  UNL     1      -8.224   9.641  64.265  1.00  0.00     0.000 HD 
HETATM   23  S   UNL     1      -9.734  10.012  66.591  1.00  0.00    -0.205 SA 
HETATM   24  H1  UNL     1      -8.146  11.258  63.579  1.00  0.00     0.000 HD 
HETATM   25  C   UNL     1      -9.195  11.066  65.351  1.00  0.00    -0.210 A  
ENDBRANCH  17  18
BRANCH  17  26
HETATM   26  N   UNL     1     -12.049  13.660  65.255  1.00  0.00    -0.382 NA 
HETATM   27  H   UNL     1     -11.734  14.430  64.664  1.00  0.00     0.000 HD 
BRANCH  26  28
HETATM   28  O   UNL     1     -13.029  12.807  64.734  1.00  0.00    -0.768 OA 
HETATM   29  C   UNL     1     -12.851  12.222  63.463  1.00  0.00    -0.283 C  
ENDBRANCH  26  28
ENDBRANCH  17  26
ENDBRANCH  14  17
ENDBRANCH  11  13
TORSDOF 5
ENDMDL
MODEL       81
REMARK 921   NORMALIZED FREE ENERGY PREDICTED BY IDOCK:   -5.64 KCAL/MOL
REMARK 922        TOTAL FREE ENERGY PREDICTED BY IDOCK:   -8.06 KCAL/MOL
REMARK 923 INTER-LIGAND FREE ENERGY PREDICTED BY IDOCK:   -6.85 KCAL/MOL
REMARK 924 INTRA-LIGAND FREE ENERGY PREDICTED BY IDOCK:   -1.21 KCAL/MOL
REMARK 927      BINDING AFFINITY PREDICTED BY RF-SCORE:    0.00 PKD
ROOT
HETATM    1  CE  UNL     1     -10.657  15.297  69.700  1.00  0.00    -0.276 C  
HETATM    2  SD  UNL     1     -12.126  14.399  69.338  1.00  0.00    -0.266 SA 
HETATM    3  CG  UNL     1     -11.512  12.942  68.436  1.00  0.00    -0.312 C  
HETATM    4  CB  UNL     1     -10.040  12.819  68.259  1.00  0.00    -0.237 C  
HETATM    5  CA  UNL     1      -9.092  13.731  68.529  1.00  0.00    -0.133 C  
HETATM    6  N   UNL     1      -9.447  14.949  69.035  1.00  0.00    -0.211 N  
HETATM    7  C   UNL     1      -7.693  13.376  68.128  1.00  0.00    -0.143 C  
HETATM    8  C   UNL     1      -8.869  16.180  69.119  1.00  0.00    -0.239 C  
HETATM    9  O   UNL     1      -6.733  14.266  68.319  1.00  0.00    -0.086 OA 
HETATM   10  OXT UNL     1      -7.413  12.277  67.642  1.00  0.00    -0.112 OA 
HETATM   11  CA  UNL     1     -10.282  16.811  69.349  1.00  0.00    -0.225 C  
HETATM   12  O   UNL     1      -7.761  16.535  68.883  1.00  0.00    -0.214 OA 
ENDROOT
BRANCH  11  13
HETATM   13  N   UNL     1     -10.648  17.722  68.198  1.00  0.00    -0.371 N  
HETATM   14  C   UNL     1     -10.312  17.808  66.839  1.00  0.00    -0.344 C  
HETATM   15  H   UNL     1     -11.301  18.454  68.480  1.00  0.00     0.000 HD 
HETATM   16  O   UNL     1     -10.751  18.770  66.209  1.00  0.00    -0.383 OA 
BRANCH  14  17
HETATM   17  C   UNL     1      -9.598  16.703  66.076  1.00  0.00    -0.266 C  
BRANCH  17  18
HETATM   18  C   UNL     1     -10.280  15.447  65.728  1.00  0.00    -0.354 A  
HETATM   19  N   UNL     1      -9.562  14.371  65.219  1.00  0.00    -0.029 NA 
HETATM   20  C   UNL     1     -11.657  15.313  65.575  1.00  0.00    -0.067 A  
HETATM   21  N   UNL     1      -9.863  12.631  63.713  1.00  0.00    -0.679 NA 
HETATM   22  H2  UNL     1     -10.518  12.076  63.163  1.00  0.00     0.000 HD 
HETATM   23  S   UNL     1     -12.017  13.916  64.645  1.00  0.00    -0.440 SA 
HETATM   24  H1  UNL     1      -8.864  12.437  63.636  1.00  0.00     0.000 HD 
HETATM   25  C   UNL     1     -10.339  13.591  64.515  1.00  0.00    -0.358 A  
ENDBRANCH  17  18
BRANCH  17  26
HETATM   26  N   UNL     1      -8.314  16.599  65.871  1.00  0.00    -0.400 NA 
HETATM   27  H   UNL     1      -7.909  15.661  65.893  1.00  0.00     0.000 HD 
BRANCH  26  28
HETATM   28  O   UNL     1      -7.446  17.668  65.622  1.00  0.00    -0.508 OA 
HETATM   29  C   UNL     1      -6.105  17.605  66.055  1.00  0.00    -0.194 C  
ENDBRANCH  26  28
ENDBRANCH  17  26
ENDBRANCH  14  17
ENDBRANCH  11  13
TORSDOF 5
ENDMDL
MODEL       82
REMARK 921   NORMALIZED FREE ENERGY PREDICTED BY IDOCK:   -5.64 KCAL/MOL
REMARK 922        TOTAL FREE ENERGY PREDICTED BY IDOCK:   -8.05 KCAL/MOL
REMARK 923 INTER-LIGAND FREE ENERGY PREDICTED BY IDOCK:   -7.47 KCAL/MOL
REMARK 924 INTRA-LIGAND FREE ENERGY PREDICTED BY IDOCK:   -0.57 KCAL/MOL
REMARK 927      BINDING AFFINITY PREDICTED BY RF-SCORE:    0.00 PKD
ROOT
HETATM    1  CE  UNL     1     -11.034   6.267  70.026  1.00  0.00    -0.358 C  
HETATM    2  SD  UNL     1     -10.256   5.098  68.965  1.00  0.00    -0.129 SA 
HETATM    3  CG  UNL     1      -9.305   4.059  70.117  1.00  0.00    -0.170 C  
HETATM    4  CB  UNL     1      -9.418   4.367  71.568  1.00  0.00    -0.215 C  
HETATM    5  CA  UNL     1     -10.002   5.428  72.148  1.00  0.00    -0.181 C  
HETATM    6  N   UNL     1     -10.588   6.387  71.373  1.00  0.00    -0.224 N  
HETATM    7  C   UNL     1      -9.850   5.541  73.634  1.00  0.00    -0.169 C  
HETATM    8  C   UNL     1     -10.960   7.688  71.539  1.00  0.00    -0.233 C  
HETATM    9  O   UNL     1     -10.356   6.600  74.244  1.00  0.00    -0.361 OA 
HETATM   10  OXT UNL     1      -9.284   4.671  74.300  1.00  0.00    -0.113 OA 
HETATM   11  CA  UNL     1     -10.981   7.864  69.984  1.00  0.00    -0.207 C  
HETATM   12  O   UNL     1     -11.009   8.363  72.514  1.00  0.00    -0.356 OA 
ENDROOT
BRANCH  11  13
HETATM   13  N   UNL     1      -9.918   8.849  69.550  1.00  0.00    -0.186 N  
HETATM   14  C   UNL     1      -9.867   9.958  68.693  1.00  0.00    -0.158 C  
HETATM   15  H   UNL     1      -9.017   8.659  69.988  1.00  0.00     0.000 HD 
HETATM   16  O   UNL     1      -8.768  10.481  68.511  1.00  0.00    -0.126 OA 
BRANCH  14  17
HETATM   17  C   UNL     1     -11.101  10.646  68.130  1.00  0.00    -0.285 C  
BRANCH  17  18
HETATM   18  C   UNL     1     -11.024  11.503  66.937  1.00  0.00    -0.296 A  
HETATM   19  N   UNL     1     -11.813  12.644  66.835  1.00  0.00    -0.463 NA 
HETATM   20  C   UNL     1     -10.441  11.126  65.731  1.00  0.00    -0.246 A  
HETATM   21  N   UNL     1     -12.915  13.859  65.194  1.00  0.00    -0.773 NA 
HETATM   22  H2  UNL     1     -13.038  14.041  64.198  1.00  0.00     0.000 HD 
HETATM   23  S   UNL     1     -11.027  12.112  64.454  1.00  0.00    -0.353 SA 
HETATM   24  H1  UNL     1     -13.494  14.365  65.864  1.00  0.00     0.000 HD 
HETATM   25  C   UNL     1     -12.000  12.963  65.581  1.00  0.00    -0.440 A  
ENDBRANCH  17  18
BRANCH  17  26
HETATM   26  N   UNL     1     -12.256  10.787  68.721  1.00  0.00    -0.814 NA 
HETATM   27  H   UNL     1     -13.048  10.274  68.333  1.00  0.00     0.000 HD 
BRANCH  26  28
HETATM   28  O   UNL     1     -12.494  11.586  69.845  1.00  0.00    -0.200 OA 
HETATM   29  C   UNL     1     -12.786  10.985  71.088  1.00  0.00    -0.419 C  
ENDBRANCH  26  28
ENDBRANCH  17  26
ENDBRANCH  14  17
ENDBRANCH  11  13
TORSDOF 5
ENDMDL
MODEL       83
REMARK 921   NORMALIZED FREE ENERGY PREDICTED BY IDOCK:   -5.64 KCAL/MOL
REMARK 922        TOTAL FREE ENERGY PREDICTED BY IDOCK:   -8.05 KCAL/MOL
REMARK 923 INTER-LIGAND FREE ENERGY PREDICTED BY IDOCK:   -7.32 KCAL/MOL
REMARK 924 INTRA-LIGAND FREE ENERGY PREDICTED BY IDOCK:   -0.73 KCAL/MOL
REMARK 927      BINDING AFFINITY PREDICTED BY RF-SCORE:    0.00 PKD
ROOT
HETATM    1  CE  UNL     1     -11.298  11.650  66.917  1.00  0.00    -0.295 C  
HETATM    2  SD  UNL     1     -10.462  11.441  65.383  1.00  0.00    -0.279 SA 
HETATM    3  CG  UNL     1      -9.717   9.788  65.538  1.00  0.00    -0.312 C  
HETATM    4  CB  UNL     1      -9.989   9.030  66.789  1.00  0.00    -0.332 C  
HETATM    5  CA  UNL     1     -10.580   9.467  67.913  1.00  0.00    -0.244 C  
HETATM    6  N   UNL     1     -11.015  10.760  67.991  1.00  0.00    -0.259 N  
HETATM    7  C   UNL     1     -10.605   8.512  69.067  1.00  0.00    -0.154 C  
HETATM    8  C   UNL     1     -11.333  11.626  68.994  1.00  0.00    -0.275 C  
HETATM    9  O   UNL     1     -11.123   8.918  70.214  1.00  0.00    -0.245 OA 
HETATM   10  OXT UNL     1     -10.172   7.361  68.970  1.00  0.00    -0.188 OA 
HETATM   11  CA  UNL     1     -11.154  12.820  67.998  1.00  0.00    -0.250 C  
HETATM   12  O   UNL     1     -11.463  11.449  70.161  1.00  0.00    -0.288 OA 
ENDROOT
BRANCH  11  13
HETATM   13  N   UNL     1      -9.994  13.693  68.422  1.00  0.00    -0.236 N  
HETATM   14  C   UNL     1      -9.334  14.812  67.894  1.00  0.00    -0.193 C  
HETATM   15  H   UNL     1      -9.594  13.394  69.312  1.00  0.00     0.000 HD 
HETATM   16  O   UNL     1      -8.338  15.216  68.494  1.00  0.00    -0.144 OA 
BRANCH  14  17
HETATM   17  C   UNL     1      -9.877  15.645  66.743  1.00  0.00    -0.244 C  
BRANCH  17  18
HETATM   18  C   UNL     1     -10.090  17.094  66.880  1.00  0.00    -0.298 A  
HETATM   19  N   UNL     1      -9.348  17.992  66.119  1.00  0.00    -0.503 NA 
HETATM   20  C   UNL     1     -10.772  17.696  67.933  1.00  0.00    -0.337 A  
HETATM   21  N   UNL     1      -8.440  20.117  66.328  1.00  0.00    -0.524 NA 
HETATM   22  H2  UNL     1      -8.417  20.993  66.850  1.00  0.00     0.000 HD 
HETATM   23  S   UNL     1     -10.338  19.352  68.052  1.00  0.00    -0.411 SA 
HETATM   24  H1  UNL     1      -7.815  20.001  65.530  1.00  0.00     0.000 HD 
HETATM   25  C   UNL     1      -9.288  19.156  66.711  1.00  0.00    -0.323 A  
ENDBRANCH  17  18
BRANCH  17  26
HETATM   26  N   UNL     1     -10.439  15.201  65.653  1.00  0.00    -0.332 NA 
HETATM   27  H   UNL     1      -9.842  15.072  64.835  1.00  0.00     0.000 HD 
BRANCH  26  28
HETATM   28  O   UNL     1     -11.796  14.887  65.515  1.00  0.00    -0.279 OA 
HETATM   29  C   UNL     1     -12.300  14.467  64.266  1.00  0.00    -0.373 C  
ENDBRANCH  26  28
ENDBRANCH  17  26
ENDBRANCH  14  17
ENDBRANCH  11  13
TORSDOF 5
ENDMDL
MODEL       84
REMARK 921   NORMALIZED FREE ENERGY PREDICTED BY IDOCK:   -5.63 KCAL/MOL
REMARK 922        TOTAL FREE ENERGY PREDICTED BY IDOCK:   -8.04 KCAL/MOL
REMARK 923 INTER-LIGAND FREE ENERGY PREDICTED BY IDOCK:   -6.64 KCAL/MOL
REMARK 924 INTRA-LIGAND FREE ENERGY PREDICTED BY IDOCK:   -1.39 KCAL/MOL
REMARK 927      BINDING AFFINITY PREDICTED BY RF-SCORE:    0.00 PKD
ROOT
HETATM    1  CE  UNL     1      -8.414   8.840  71.125  1.00  0.00    -0.187 C  
HETATM    2  SD  UNL     1      -7.211   7.937  70.212  1.00  0.00    -0.058 SA 
HETATM    3  CG  UNL     1      -7.764   8.131  68.489  1.00  0.00    -0.112 C  
HETATM    4  CB  UNL     1      -8.971   8.968  68.248  1.00  0.00    -0.133 C  
HETATM    5  CA  UNL     1      -9.824   9.474  69.154  1.00  0.00    -0.176 C  
HETATM    6  N   UNL     1      -9.623   9.233  70.483  1.00  0.00    -0.243 N  
HETATM    7  C   UNL     1     -11.031  10.176  68.612  1.00  0.00    -0.230 C  
HETATM    8  C   UNL     1     -10.386   9.274  71.612  1.00  0.00    -0.230 C  
HETATM    9  O   UNL     1     -11.931  10.639  69.464  1.00  0.00    -0.288 OA 
HETATM   10  OXT UNL     1     -11.198  10.347  67.402  1.00  0.00    -0.301 OA 
HETATM   11  CA  UNL     1      -9.344   8.354  72.331  1.00  0.00    -0.285 C  
HETATM   12  O   UNL     1     -11.482   9.692  71.793  1.00  0.00    -0.365 OA 
ENDROOT
BRANCH  11  13
HETATM   13  N   UNL     1      -9.967   7.021  72.679  1.00  0.00    -0.168 N  
HETATM   14  C   UNL     1     -10.949   6.193  72.115  1.00  0.00    -0.262 C  
HETATM   15  H   UNL     1      -9.576   6.626  73.534  1.00  0.00     0.000 HD 
HETATM   16  O   UNL     1     -11.270   5.186  72.746  1.00  0.00    -0.263 OA 
BRANCH  14  17
HETATM   17  C   UNL     1     -11.498   6.375  70.708  1.00  0.00    -0.353 C  
BRANCH  17  18
HETATM   18  C   UNL     1     -10.714   5.991  69.524  1.00  0.00    -0.335 A  
HETATM   19  N   UNL     1     -11.158   6.316  68.247  1.00  0.00    -0.325 NA 
HETATM   20  C   UNL     1      -9.687   5.052  69.528  1.00  0.00    -0.189 A  
HETATM   21  N   UNL     1     -11.111   5.423  66.106  1.00  0.00    -0.784 NA 
HETATM   22  H2  UNL     1     -10.702   4.738  65.471  1.00  0.00     0.000 HD 
HETATM   23  S   UNL     1      -9.410   4.468  67.938  1.00  0.00    -0.149 SA 
HETATM   24  H1  UNL     1     -11.853   6.033  65.764  1.00  0.00     0.000 HD 
HETATM   25  C   UNL     1     -10.658   5.494  67.363  1.00  0.00    -0.199 A  
ENDBRANCH  17  18
BRANCH  17  26
HETATM   26  N   UNL     1     -12.537   7.082  70.359  1.00  0.00    -0.571 NA 
HETATM   27  H   UNL     1     -12.397   7.807  69.653  1.00  0.00     0.000 HD 
BRANCH  26  28
HETATM   28  O   UNL     1     -13.829   6.927  70.874  1.00  0.00     0.038 OA 
HETATM   29  C   UNL     1     -14.361   7.899  71.748  1.00  0.00    -0.475 C  
ENDBRANCH  26  28
ENDBRANCH  17  26
ENDBRANCH  14  17
ENDBRANCH  11  13
TORSDOF 5
ENDMDL
MODEL       85
REMARK 921   NORMALIZED FREE ENERGY PREDICTED BY IDOCK:   -5.60 KCAL/MOL
REMARK 922        TOTAL FREE ENERGY PREDICTED BY IDOCK:   -8.00 KCAL/MOL
REMARK 923 INTER-LIGAND FREE ENERGY PREDICTED BY IDOCK:   -7.30 KCAL/MOL
REMARK 924 INTRA-LIGAND FREE ENERGY PREDICTED BY IDOCK:   -0.70 KCAL/MOL
REMARK 927      BINDING AFFINITY PREDICTED BY RF-SCORE:    0.00 PKD
ROOT
HETATM    1  CE  UNL     1     -11.605  10.080  71.041  1.00  0.00    -0.393 C  
HETATM    2  SD  UNL     1     -13.270  10.080  71.609  1.00  0.00    -0.413 SA 
HETATM    3  CG  UNL     1     -13.680   8.309  71.697  1.00  0.00    -0.361 C  
HETATM    4  CB  UNL     1     -12.606   7.341  71.347  1.00  0.00    -0.423 C  
HETATM    5  CA  UNL     1     -11.404   7.595  70.803  1.00  0.00    -0.281 C  
HETATM    6  N   UNL     1     -11.052   8.881  70.508  1.00  0.00    -0.247 N  
HETATM    7  C   UNL     1     -10.573   6.403  70.439  1.00  0.00    -0.241 C  
HETATM    8  C   UNL     1     -10.135   9.484  69.700  1.00  0.00    -0.212 C  
HETATM    9  O   UNL     1      -9.407   6.600  69.847  1.00  0.00    -0.152 OA 
HETATM   10  OXT UNL     1     -10.938   5.252  70.690  1.00  0.00    -0.131 OA 
HETATM   11  CA  UNL     1     -10.969  10.806  69.766  1.00  0.00    -0.252 C  
HETATM   12  O   UNL     1      -9.228   9.032  69.082  1.00  0.00    -0.142 OA 
ENDROOT
BRANCH  11  13
HETATM   13  N   UNL     1     -11.517  11.155  68.400  1.00  0.00    -0.287 N  
HETATM   14  C   UNL     1     -11.885  12.335  67.736  1.00  0.00    -0.273 C  
HETATM   15  H   UNL     1     -11.652  10.328  67.818  1.00  0.00     0.000 HD 
HETATM   16  O   UNL     1     -12.392  12.221  66.621  1.00  0.00    -0.471 OA 
BRANCH  14  17
HETATM   17  C   UNL     1     -11.532  13.727  68.236  1.00  0.00    -0.312 C  
BRANCH  17  18
HETATM   18  C   UNL     1     -10.135  14.181  68.318  1.00  0.00    -0.241 A  
HETATM   19  N   UNL     1      -9.813  15.359  68.983  1.00  0.00    -0.221 NA 
HETATM   20  C   UNL     1      -9.099  13.694  67.526  1.00  0.00    -0.213 A  
HETATM   21  N   UNL     1      -8.280  17.093  68.814  1.00  0.00    -0.258 NA 
HETATM   22  H2  UNL     1      -7.410  17.432  68.403  1.00  0.00     0.000 HD 
HETATM   23  S   UNL     1      -7.798  14.812  67.499  1.00  0.00    -0.200 SA 
HETATM   24  H1  UNL     1      -8.811  17.710  69.427  1.00  0.00     0.000 HD 
HETATM   25  C   UNL     1      -8.691  15.851  68.530  1.00  0.00    -0.194 A  
ENDBRANCH  17  18
BRANCH  17  26
HETATM   26  N   UNL     1     -12.320  14.556  68.865  1.00  0.00    -0.582 NA 
HETATM   27  H   UNL     1     -12.683  15.351  68.337  1.00  0.00     0.000 HD 
BRANCH  26  28
HETATM   28  O   UNL     1     -12.708  14.442  70.205  1.00  0.00    -0.334 OA 
HETATM   29  C   UNL     1     -12.774  15.591  71.020  1.00  0.00    -0.467 C  
ENDBRANCH  26  28
ENDBRANCH  17  26
ENDBRANCH  14  17
ENDBRANCH  11  13
TORSDOF 5
ENDMDL
MODEL       86
REMARK 921   NORMALIZED FREE ENERGY PREDICTED BY IDOCK:   -5.60 KCAL/MOL
REMARK 922        TOTAL FREE ENERGY PREDICTED BY IDOCK:   -8.00 KCAL/MOL
REMARK 923 INTER-LIGAND FREE ENERGY PREDICTED BY IDOCK:   -7.22 KCAL/MOL
REMARK 924 INTRA-LIGAND FREE ENERGY PREDICTED BY IDOCK:   -0.78 KCAL/MOL
REMARK 927      BINDING AFFINITY PREDICTED BY RF-SCORE:    0.00 PKD
ROOT
HETATM    1  CE  UNL     1     -10.817   6.056  67.285  1.00  0.00    -0.315 C  
HETATM    2  SD  UNL     1      -9.939   5.021  66.166  1.00  0.00    -0.224 SA 
HETATM    3  CG  UNL     1      -8.831   4.073  67.256  1.00  0.00    -0.119 C  
HETATM    4  CB  UNL     1      -8.933   4.325  68.718  1.00  0.00    -0.158 C  
HETATM    5  CA  UNL     1      -9.621   5.290  69.349  1.00  0.00    -0.156 C  
HETATM    6  N   UNL     1     -10.345   6.192  68.622  1.00  0.00    -0.184 N  
HETATM    7  C   UNL     1      -9.436   5.380  70.833  1.00  0.00    -0.167 C  
HETATM    8  C   UNL     1     -10.866   7.432  68.841  1.00  0.00    -0.060 C  
HETATM    9  O   UNL     1     -10.046   6.351  71.491  1.00  0.00    -0.190 OA 
HETATM   10  OXT UNL     1      -8.746   4.567  71.454  1.00  0.00    -0.113 OA 
HETATM   11  CA  UNL     1     -10.959   7.648  67.293  1.00  0.00    -0.052 C  
HETATM   12  O   UNL     1     -10.964   8.069  69.837  1.00  0.00    -0.242 OA 
ENDROOT
BRANCH  11  13
HETATM   13  N   UNL     1     -10.039   8.767  66.859  1.00  0.00    -0.252 N  
HETATM   14  C   UNL     1     -10.158  10.153  66.677  1.00  0.00    -0.223 C  
HETATM   15  H   UNL     1      -9.099   8.430  66.646  1.00  0.00     0.000 HD 
HETATM   16  O   UNL     1      -9.186  10.747  66.212  1.00  0.00    -0.165 OA 
BRANCH  14  17
HETATM   17  C   UNL     1     -11.336  10.970  67.182  1.00  0.00    -0.136 C  
BRANCH  17  18
HETATM   18  C   UNL     1     -11.633  12.305  66.638  1.00  0.00    -0.375 A  
HETATM   19  N   UNL     1     -12.332  12.441  65.444  1.00  0.00    -0.614 NA 
HETATM   20  C   UNL     1     -11.018  13.481  67.054  1.00  0.00    -0.288 A  
HETATM   21  N   UNL     1     -12.392  13.866  63.613  1.00  0.00    -1.007 NA 
HETATM   22  H2  UNL     1     -12.121  14.766  63.217  1.00  0.00     0.000 HD 
HETATM   23  S   UNL     1     -11.186  14.696  65.853  1.00  0.00    -0.338 SA 
HETATM   24  H1  UNL     1     -12.910  13.206  63.033  1.00  0.00     0.000 HD 
HETATM   25  C   UNL     1     -12.057  13.587  64.878  1.00  0.00    -0.397 A  
ENDBRANCH  17  18
BRANCH  17  26
HETATM   26  N   UNL     1     -12.036  10.750  68.262  1.00  0.00    -0.810 NA 
HETATM   27  H   UNL     1     -12.780  10.054  68.205  1.00  0.00     0.000 HD 
BRANCH  26  28
HETATM   28  O   UNL     1     -11.846  11.393  69.491  1.00  0.00    -0.299 OA 
HETATM   29  C   UNL     1     -12.621  11.019  70.609  1.00  0.00    -0.338 C  
ENDBRANCH  26  28
ENDBRANCH  17  26
ENDBRANCH  14  17
ENDBRANCH  11  13
TORSDOF 5
ENDMDL
MODEL       87
REMARK 921   NORMALIZED FREE ENERGY PREDICTED BY IDOCK:   -5.57 KCAL/MOL
REMARK 922        TOTAL FREE ENERGY PREDICTED BY IDOCK:   -7.96 KCAL/MOL
REMARK 923 INTER-LIGAND FREE ENERGY PREDICTED BY IDOCK:   -6.09 KCAL/MOL
REMARK 924 INTRA-LIGAND FREE ENERGY PREDICTED BY IDOCK:   -1.87 KCAL/MOL
REMARK 927      BINDING AFFINITY PREDICTED BY RF-SCORE:    0.00 PKD
ROOT
HETATM    1  CE  UNL     1      -9.048  12.796  67.747  1.00  0.00    -0.197 C  
HETATM    2  SD  UNL     1     -10.362  13.348  66.715  1.00  0.00    -0.266 SA 
HETATM    3  CG  UNL     1     -11.766  12.317  67.241  1.00  0.00    -0.324 C  
HETATM    4  CB  UNL     1     -11.531  11.358  68.354  1.00  0.00    -0.367 C  
HETATM    5  CA  UNL     1     -10.363  11.019  68.925  1.00  0.00    -0.205 C  
HETATM    6  N   UNL     1      -9.203  11.586  68.482  1.00  0.00    -0.184 N  
HETATM    7  C   UNL     1     -10.415   9.923  69.945  1.00  0.00    -0.269 C  
HETATM    8  C   UNL     1      -7.875  11.284  68.556  1.00  0.00    -0.138 C  
HETATM    9  O   UNL     1      -9.283   9.513  70.492  1.00  0.00    -0.248 OA 
HETATM   10  OXT UNL     1     -11.480   9.409  70.297  1.00  0.00    -0.244 OA 
HETATM   11  CA  UNL     1      -7.608  12.233  67.341  1.00  0.00    -0.159 C  
HETATM   12  O   UNL     1      -7.301  10.459  69.187  1.00  0.00    -0.082 OA 
ENDROOT
BRANCH  11  13
HETATM   13  N   UNL     1      -7.109  11.443  66.152  1.00  0.00    -0.368 N  
HETATM   14  C   UNL     1      -7.528  10.298  65.459  1.00  0.00    -0.149 C  
HETATM   15  H   UNL     1      -6.257  11.841  65.757  1.00  0.00     0.000 HD 
HETATM   16  O   UNL     1      -6.797   9.881  64.562  1.00  0.00    -0.114 OA 
BRANCH  14  17
HETATM   17  C   UNL     1      -8.899   9.664  65.633  1.00  0.00    -0.159 C  
BRANCH  17  18
HETATM   18  C   UNL     1      -9.075   8.413  66.388  1.00  0.00    -0.187 A  
HETATM   19  N   UNL     1     -10.348   7.955  66.710  1.00  0.00    -0.316 NA 
HETATM   20  C   UNL     1      -8.062   7.766  67.090  1.00  0.00    -0.118 A  
HETATM   21  N   UNL     1     -11.405   6.811  68.430  1.00  0.00    -0.553 NA 
HETATM   22  H2  UNL     1     -11.305   6.233  69.264  1.00  0.00     0.000 HD 
HETATM   23  S   UNL     1      -8.736   6.712  68.265  1.00  0.00    -0.117 SA 
HETATM   24  H1  UNL     1     -12.339   7.091  68.131  1.00  0.00     0.000 HD 
HETATM   25  C   UNL     1     -10.306   7.182  67.762  1.00  0.00    -0.202 A  
ENDBRANCH  17  18
BRANCH  17  26
HETATM   26  N   UNL     1      -9.987   9.956  64.973  1.00  0.00    -0.385 NA 
HETATM   27  H   UNL     1     -10.875   9.864  65.467  1.00  0.00     0.000 HD 
BRANCH  26  28
HETATM   28  O   UNL     1     -10.032  10.388  63.643  1.00  0.00    -0.294 OA 
HETATM   29  C   UNL     1     -10.230  11.754  63.350  1.00  0.00    -0.449 C  
ENDBRANCH  26  28
ENDBRANCH  17  26
ENDBRANCH  14  17
ENDBRANCH  11  13
TORSDOF 5
ENDMDL
MODEL       88
REMARK 921   NORMALIZED FREE ENERGY PREDICTED BY IDOCK:   -5.57 KCAL/MOL
REMARK 922        TOTAL FREE ENERGY PREDICTED BY IDOCK:   -7.95 KCAL/MOL
REMARK 923 INTER-LIGAND FREE ENERGY PREDICTED BY IDOCK:   -7.04 KCAL/MOL
REMARK 924 INTRA-LIGAND FREE ENERGY PREDICTED BY IDOCK:   -0.91 KCAL/MOL
REMARK 927      BINDING AFFINITY PREDICTED BY RF-SCORE:    0.00 PKD
ROOT
HETATM    1  CE  UNL     1     -12.008  12.005  68.744  1.00  0.00    -0.244 C  
HETATM    2  SD  UNL     1     -12.014  13.610  69.465  1.00  0.00    -0.330 SA 
HETATM    3  CG  UNL     1     -11.501  14.686  68.089  1.00  0.00    -0.323 C  
HETATM    4  CB  UNL     1     -11.257  14.040  66.771  1.00  0.00    -0.323 C  
HETATM    5  CA  UNL     1     -11.198  12.728  66.488  1.00  0.00    -0.307 C  
HETATM    6  N   UNL     1     -11.376  11.811  67.484  1.00  0.00    -0.296 N  
HETATM    7  C   UNL     1     -10.807  12.367  65.087  1.00  0.00    -0.297 C  
HETATM    8  C   UNL     1     -11.078  10.493  67.665  1.00  0.00    -0.309 C  
HETATM    9  O   UNL     1     -10.676  11.088  64.775  1.00  0.00    -0.309 OA 
HETATM   10  OXT UNL     1     -10.620  13.225  64.220  1.00  0.00    -0.414 OA 
HETATM   11  CA  UNL     1     -11.230  10.688  69.210  1.00  0.00    -0.273 C  
HETATM   12  O   UNL     1     -10.674   9.676  66.905  1.00  0.00    -0.203 OA 
ENDROOT
BRANCH  11  13
HETATM   13  N   UNL     1      -9.904  10.467  69.904  1.00  0.00    -0.417 N  
HETATM   14  C   UNL     1      -9.166   9.352  70.328  1.00  0.00    -0.245 C  
HETATM   15  H   UNL     1      -9.431  11.345  70.117  1.00  0.00     0.000 HD 
HETATM   16  O   UNL     1      -8.132   9.566  70.960  1.00  0.00    -0.312 OA 
BRANCH  14  17
HETATM   17  C   UNL     1      -9.474   7.926  69.900  1.00  0.00    -0.160 C  
BRANCH  17  18
HETATM   18  C   UNL     1     -10.350   7.057  70.702  1.00  0.00    -0.207 A  
HETATM   19  N   UNL     1     -11.731   7.210  70.656  1.00  0.00    -0.318 NA 
HETATM   20  C   UNL     1      -9.919   6.262  71.760  1.00  0.00    -0.171 A  
HETATM   21  N   UNL     1     -13.556   7.004  72.074  1.00  0.00    -0.556 NA 
HETATM   22  H2  UNL     1     -13.919   6.649  72.959  1.00  0.00     0.000 HD 
HETATM   23  S   UNL     1     -11.241   5.859  72.777  1.00  0.00    -0.255 SA 
HETATM   24  H1  UNL     1     -14.175   7.537  71.464  1.00  0.00     0.000 HD 
HETATM   25  C   UNL     1     -12.281   6.756  71.750  1.00  0.00    -0.358 A  
ENDBRANCH  17  18
BRANCH  17  26
HETATM   26  N   UNL     1      -8.852   7.230  68.987  1.00  0.00    -0.132 NA 
HETATM   27  H   UNL     1      -7.931   7.559  68.693  1.00  0.00     0.000 HD 
BRANCH  26  28
HETATM   28  O   UNL     1      -9.346   6.071  68.380  1.00  0.00    -0.120 OA 
HETATM   29  C   UNL     1     -10.140   6.167  67.218  1.00  0.00    -0.165 C  
ENDBRANCH  26  28
ENDBRANCH  17  26
ENDBRANCH  14  17
ENDBRANCH  11  13
TORSDOF 5
ENDMDL
MODEL       89
REMARK 921   NORMALIZED FREE ENERGY PREDICTED BY IDOCK:   -5.56 KCAL/MOL
REMARK 922        TOTAL FREE ENERGY PREDICTED BY IDOCK:   -7.94 KCAL/MOL
REMARK 923 INTER-LIGAND FREE ENERGY PREDICTED BY IDOCK:   -7.32 KCAL/MOL
REMARK 924 INTRA-LIGAND FREE ENERGY PREDICTED BY IDOCK:   -0.63 KCAL/MOL
REMARK 927      BINDING AFFINITY PREDICTED BY RF-SCORE:    0.00 PKD
ROOT
HETATM    1  CE  UNL     1     -11.728  13.493  69.140  1.00  0.00    -0.327 C  
HETATM    2  SD  UNL     1     -10.988  14.921  69.853  1.00  0.00    -0.200 SA 
HETATM    3  CG  UNL     1     -10.644  15.975  68.410  1.00  0.00    -0.270 C  
HETATM    4  CB  UNL     1     -11.065  15.468  67.077  1.00  0.00    -0.238 C  
HETATM    5  CA  UNL     1     -11.521  14.244  66.760  1.00  0.00    -0.367 C  
HETATM    6  N   UNL     1     -11.642  13.293  67.733  1.00  0.00    -0.320 N  
HETATM    7  C   UNL     1     -11.749  13.975  65.304  1.00  0.00    -0.346 C  
HETATM    8  C   UNL     1     -11.734  11.934  67.767  1.00  0.00    -0.292 C  
HETATM    9  O   UNL     1     -12.140  12.766  64.937  1.00  0.00    -0.386 OA 
HETATM   10  OXT UNL     1     -11.597  14.849  64.447  1.00  0.00    -0.362 OA 
HETATM   11  CA  UNL     1     -11.299  11.957  69.270  1.00  0.00    -0.277 C  
HETATM   12  O   UNL     1     -11.884  11.144  66.894  1.00  0.00    -0.339 OA 
ENDROOT
BRANCH  11  13
HETATM   13  N   UNL     1      -9.962  11.273  69.444  1.00  0.00    -0.419 N  
HETATM   14  C   UNL     1      -9.528   9.961  69.683  1.00  0.00    -0.231 C  
HETATM   15  H   UNL     1      -9.183  11.928  69.369  1.00  0.00     0.000 HD 
HETATM   16  O   UNL     1      -8.323   9.787  69.860  1.00  0.00    -0.155 OA 
BRANCH  14  17
HETATM   17  C   UNL     1     -10.427   8.741  69.557  1.00  0.00    -0.220 C  
BRANCH  17  18
HETATM   18  C   UNL     1     -10.118   7.653  68.616  1.00  0.00    -0.190 A  
HETATM   19  N   UNL     1      -9.192   7.844  67.596  1.00  0.00    -0.136 NA 
HETATM   20  C   UNL     1     -10.892   6.508  68.452  1.00  0.00    -0.289 A  
HETATM   21  N   UNL     1      -8.845   7.157  65.407  1.00  0.00    -0.374 NA 
HETATM   22  H2  UNL     1      -9.089   6.502  64.664  1.00  0.00     0.000 HD 
HETATM   23  S   UNL     1     -10.558   5.780  66.934  1.00  0.00    -0.301 SA 
HETATM   24  H1  UNL     1      -8.169   7.895  65.213  1.00  0.00     0.000 HD 
HETATM   25  C   UNL     1      -9.422   7.021  66.607  1.00  0.00    -0.165 A  
ENDBRANCH  17  18
BRANCH  17  26
HETATM   26  N   UNL     1     -11.639   8.611  70.024  1.00  0.00    -0.452 NA 
HETATM   27  H   UNL     1     -12.400   8.559  69.346  1.00  0.00     0.000 HD 
BRANCH  26  28
HETATM   28  O   UNL     1     -11.978   8.537  71.380  1.00  0.00    -0.284 OA 
HETATM   29  C   UNL     1     -13.330   8.617  71.774  1.00  0.00    -0.374 C  
ENDBRANCH  26  28
ENDBRANCH  17  26
ENDBRANCH  14  17
ENDBRANCH  11  13
TORSDOF 5
ENDMDL
MODEL       90
REMARK 921   NORMALIZED FREE ENERGY PREDICTED BY IDOCK:   -5.51 KCAL/MOL
REMARK 922        TOTAL FREE ENERGY PREDICTED BY IDOCK:   -7.88 KCAL/MOL
REMARK 923 INTER-LIGAND FREE ENERGY PREDICTED BY IDOCK:   -6.97 KCAL/MOL
REMARK 924 INTRA-LIGAND FREE ENERGY PREDICTED BY IDOCK:   -0.91 KCAL/MOL
REMARK 927      BINDING AFFINITY PREDICTED BY RF-SCORE:    0.00 PKD
ROOT
HETATM    1  CE  UNL     1      -6.853  13.977  68.500  1.00  0.00    -0.104 C  
HETATM    2  SD  UNL     1      -6.286  15.400  69.365  1.00  0.00    -0.138 SA 
HETATM    3  CG  UNL     1      -5.479  14.699  70.838  1.00  0.00    -0.151 C  
HETATM    4  CB  UNL     1      -5.439  13.216  70.954  1.00  0.00    -0.186 C  
HETATM    5  CA  UNL     1      -6.073  12.306  70.196  1.00  0.00    -0.111 C  
HETATM    6  N   UNL     1      -6.872  12.719  69.168  1.00  0.00    -0.087 N  
HETATM    7  C   UNL     1      -5.949  10.877  70.628  1.00  0.00    -0.087 C  
HETATM    8  C   UNL     1      -7.881  12.172  68.432  1.00  0.00    -0.149 C  
HETATM    9  O   UNL     1      -6.604   9.950  69.948  1.00  0.00    -0.058 OA 
HETATM   10  OXT UNL     1      -5.245  10.543  71.584  1.00  0.00    -0.171 OA 
HETATM   11  CA  UNL     1      -8.330  13.611  68.009  1.00  0.00    -0.170 C  
HETATM   12  O   UNL     1      -8.289  11.059  68.380  1.00  0.00    -0.125 OA 
ENDROOT
BRANCH  11  13
HETATM   13  N   UNL     1      -9.704  13.919  68.560  1.00  0.00    -0.265 N  
HETATM   14  C   UNL     1     -11.019  13.541  68.250  1.00  0.00    -0.258 C  
HETATM   15  H   UNL     1      -9.665  14.560  69.353  1.00  0.00     0.000 HD 
HETATM   16  O   UNL     1     -11.926  14.081  68.883  1.00  0.00    -0.335 OA 
BRANCH  14  17
HETATM   17  C   UNL     1     -11.367  12.391  67.319  1.00  0.00    -0.323 C  
BRANCH  17  18
HETATM   18  C   UNL     1     -11.310  12.544  65.856  1.00  0.00    -0.340 A  
HETATM   19  N   UNL     1     -12.470  12.475  65.093  1.00  0.00    -0.628 NA 
HETATM   20  C   UNL     1     -10.145  12.458  65.099  1.00  0.00    -0.256 A  
HETATM   21  N   UNL     1     -13.135  11.737  62.996  1.00  0.00    -0.768 NA 
HETATM   22  H2  UNL     1     -12.853  11.438  62.062  1.00  0.00     0.000 HD 
HETATM   23  S   UNL     1     -10.527  12.123  63.460  1.00  0.00    -0.419 SA 
HETATM   24  H1  UNL     1     -14.125  11.734  63.238  1.00  0.00     0.000 HD 
HETATM   25  C   UNL     1     -12.193  12.119  63.867  1.00  0.00    -0.489 A  
ENDBRANCH  17  18
BRANCH  17  26
HETATM   26  N   UNL     1     -11.974  11.281  67.639  1.00  0.00    -0.607 NA 
HETATM   27  H   UNL     1     -12.161  10.614  66.888  1.00  0.00     0.000 HD 
BRANCH  26  28
HETATM   28  O   UNL     1     -12.389  10.931  68.929  1.00  0.00    -0.486 OA 
HETATM   29  C   UNL     1     -11.493  10.284  69.806  1.00  0.00    -0.256 C  
ENDBRANCH  26  28
ENDBRANCH  17  26
ENDBRANCH  14  17
ENDBRANCH  11  13
TORSDOF 5
ENDMDL
MODEL       91
REMARK 921   NORMALIZED FREE ENERGY PREDICTED BY IDOCK:   -5.50 KCAL/MOL
REMARK 922        TOTAL FREE ENERGY PREDICTED BY IDOCK:   -7.87 KCAL/MOL
REMARK 923 INTER-LIGAND FREE ENERGY PREDICTED BY IDOCK:   -7.17 KCAL/MOL
REMARK 924 INTRA-LIGAND FREE ENERGY PREDICTED BY IDOCK:   -0.69 KCAL/MOL
REMARK 927      BINDING AFFINITY PREDICTED BY RF-SCORE:    0.00 PKD
ROOT
HETATM    1  CE  UNL     1      -8.315  10.457  68.450  1.00  0.00    -0.119 C  
HETATM    2  SD  UNL     1      -7.369  10.283  69.923  1.00  0.00    -0.139 SA 
HETATM    3  CG  UNL     1      -7.624   8.540  70.378  1.00  0.00    -0.074 C  
HETATM    4  CB  UNL     1      -8.459   7.711  69.468  1.00  0.00    -0.132 C  
HETATM    5  CA  UNL     1      -9.204   8.115  68.426  1.00  0.00    -0.135 C  
HETATM    6  N   UNL     1      -9.249   9.441  68.099  1.00  0.00    -0.130 N  
HETATM    7  C   UNL     1     -10.047   7.069  67.764  1.00  0.00    -0.165 C  
HETATM    8  C   UNL     1     -10.085  10.244  67.383  1.00  0.00    -0.202 C  
HETATM    9  O   UNL     1     -10.843   7.430  66.771  1.00  0.00    -0.303 OA 
HETATM   10  OXT UNL     1     -10.006   5.885  68.108  1.00  0.00    -0.129 OA 
HETATM   11  CA  UNL     1      -9.488  11.492  68.115  1.00  0.00    -0.184 C  
HETATM   12  O   UNL     1     -11.001   9.979  66.676  1.00  0.00    -0.056 OA 
ENDROOT
BRANCH  11  13
HETATM   13  N   UNL     1     -10.544  12.162  68.965  1.00  0.00    -0.399 N  
HETATM   14  C   UNL     1     -11.039  13.466  69.109  1.00  0.00    -0.213 C  
HETATM   15  H   UNL     1     -11.011  11.502  69.587  1.00  0.00     0.000 HD 
HETATM   16  O   UNL     1     -11.870  13.661  69.995  1.00  0.00    -0.303 OA 
BRANCH  14  17
HETATM   17  C   UNL     1     -10.743  14.592  68.130  1.00  0.00    -0.242 C  
BRANCH  17  18
HETATM   18  C   UNL     1     -11.025  14.452  66.693  1.00  0.00    -0.318 A  
HETATM   19  N   UNL     1     -10.718  15.482  65.810  1.00  0.00    -0.339 NA 
HETATM   20  C   UNL     1     -11.859  13.484  66.143  1.00  0.00    -0.389 A  
HETATM   21  N   UNL     1     -11.560  16.410  63.856  1.00  0.00    -1.602 NA 
HETATM   22  H2  UNL     1     -12.189  16.309  63.060  1.00  0.00     0.000 HD 
HETATM   23  S   UNL     1     -12.381  13.968  64.581  1.00  0.00    -0.363 SA 
HETATM   24  H1  UNL     1     -11.018  17.268  63.952  1.00  0.00     0.000 HD 
HETATM   25  C   UNL     1     -11.470  15.412  64.743  1.00  0.00    -0.336 A  
ENDBRANCH  17  18
BRANCH  17  26
HETATM   26  N   UNL     1     -10.012  15.651  68.352  1.00  0.00    -0.208 NA 
HETATM   27  H   UNL     1      -9.049  15.635  68.015  1.00  0.00     0.000 HD 
BRANCH  26  28
HETATM   28  O   UNL     1     -10.444  16.804  69.016  1.00  0.00    -0.297 OA 
HETATM   29  C   UNL     1     -10.201  18.075  68.453  1.00  0.00    -0.391 C  
ENDBRANCH  26  28
ENDBRANCH  17  26
ENDBRANCH  14  17
ENDBRANCH  11  13
TORSDOF 5
ENDMDL
MODEL       92
REMARK 921   NORMALIZED FREE ENERGY PREDICTED BY IDOCK:   -5.48 KCAL/MOL
REMARK 922        TOTAL FREE ENERGY PREDICTED BY IDOCK:   -7.84 KCAL/MOL
REMARK 923 INTER-LIGAND FREE ENERGY PREDICTED BY IDOCK:   -5.86 KCAL/MOL
REMARK 924 INTRA-LIGAND FREE ENERGY PREDICTED BY IDOCK:   -1.98 KCAL/MOL
REMARK 927      BINDING AFFINITY PREDICTED BY RF-SCORE:    0.00 PKD
ROOT
HETATM    1  CE  UNL     1      -9.817   6.983  68.523  1.00  0.00    -0.147 C  
HETATM    2  SD  UNL     1      -9.611   8.682  68.118  1.00  0.00    -0.150 SA 
HETATM    3  CG  UNL     1      -8.175   9.178  69.120  1.00  0.00    -0.117 C  
HETATM    4  CB  UNL     1      -7.524   8.127  69.949  1.00  0.00    -0.069 C  
HETATM    5  CA  UNL     1      -7.956   6.880  70.196  1.00  0.00    -0.115 C  
HETATM    6  N   UNL     1      -9.132   6.449  69.652  1.00  0.00    -0.143 N  
HETATM    7  C   UNL     1      -7.154   6.080  71.177  1.00  0.00    -0.073 C  
HETATM    8  C   UNL     1     -10.023   5.450  69.911  1.00  0.00    -0.224 C  
HETATM    9  O   UNL     1      -7.573   4.867  71.499  1.00  0.00    -0.079 OA 
HETATM   10  OXT UNL     1      -6.113   6.515  71.676  1.00  0.00    -0.036 OA 
HETATM   11  CA  UNL     1     -11.107   6.226  69.091  1.00  0.00    -0.390 C  
HETATM   12  O   UNL     1      -9.958   4.524  70.649  1.00  0.00    -0.212 OA 
ENDROOT
BRANCH  11  13
HETATM   13  N   UNL     1     -12.242   6.659  69.991  1.00  0.00    -0.520 N  
HETATM   14  C   UNL     1     -12.368   7.465  71.133  1.00  0.00    -0.314 C  
HETATM   15  H   UNL     1     -13.137   6.270  69.695  1.00  0.00     0.000 HD 
HETATM   16  O   UNL     1     -13.476   7.520  71.666  1.00  0.00    -0.362 OA 
BRANCH  14  17
HETATM   17  C   UNL     1     -11.274   8.396  71.631  1.00  0.00    -0.278 C  
BRANCH  17  18
HETATM   18  C   UNL     1     -10.452   8.056  72.803  1.00  0.00    -0.345 A  
HETATM   19  N   UNL     1      -9.282   8.757  73.073  1.00  0.00    -0.159 NA 
HETATM   20  C   UNL     1     -10.570   6.877  73.534  1.00  0.00    -0.348 A  
HETATM   21  N   UNL     1      -7.179   8.358  73.970  1.00  0.00    -0.257 NA 
HETATM   22  H2  UNL     1      -6.581   7.732  74.508  1.00  0.00     0.000 HD 
HETATM   23  S   UNL     1      -9.131   6.585  74.424  1.00  0.00    -0.203 SA 
HETATM   24  H1  UNL     1      -6.781   9.217  73.590  1.00  0.00     0.000 HD 
HETATM   25  C   UNL     1      -8.463   8.028  73.784  1.00  0.00    -0.257 A  
ENDBRANCH  17  18
BRANCH  17  26
HETATM   26  N   UNL     1     -11.095   9.644  71.294  1.00  0.00    -0.365 NA 
HETATM   27  H   UNL     1     -10.184  10.059  71.496  1.00  0.00     0.000 HD 
BRANCH  26  28
HETATM   28  O   UNL     1     -12.051  10.458  70.676  1.00  0.00    -0.293 OA 
HETATM   29  C   UNL     1     -13.035  11.104  71.454  1.00  0.00    -0.403 C  
ENDBRANCH  26  28
ENDBRANCH  17  26
ENDBRANCH  14  17
ENDBRANCH  11  13
TORSDOF 5
ENDMDL
MODEL       93
REMARK 921   NORMALIZED FREE ENERGY PREDICTED BY IDOCK:   -5.47 KCAL/MOL
REMARK 922        TOTAL FREE ENERGY PREDICTED BY IDOCK:   -7.83 KCAL/MOL
REMARK 923 INTER-LIGAND FREE ENERGY PREDICTED BY IDOCK:   -6.64 KCAL/MOL
REMARK 924 INTRA-LIGAND FREE ENERGY PREDICTED BY IDOCK:   -1.19 KCAL/MOL
REMARK 927      BINDING AFFINITY PREDICTED BY RF-SCORE:    0.00 PKD
ROOT
HETATM    1  CE  UNL     1      -9.484  14.501  67.805  1.00  0.00    -0.210 C  
HETATM    2  SD  UNL     1      -9.283  16.146  67.216  1.00  0.00    -0.211 SA 
HETATM    3  CG  UNL     1     -10.497  17.089  68.191  1.00  0.00    -0.357 C  
HETATM    4  CB  UNL     1     -11.286  16.341  69.207  1.00  0.00    -0.312 C  
HETATM    5  CA  UNL     1     -11.350  15.013  69.395  1.00  0.00    -0.297 C  
HETATM    6  N   UNL     1     -10.626  14.178  68.592  1.00  0.00    -0.244 N  
HETATM    7  C   UNL     1     -12.334  14.533  70.418  1.00  0.00    -0.338 C  
HETATM    8  C   UNL     1     -10.673  12.858  68.259  1.00  0.00    -0.244 C  
HETATM    9  O   UNL     1     -12.477  13.230  70.598  1.00  0.00    -0.339 OA 
HETATM   10  OXT UNL     1     -12.997  15.316  71.103  1.00  0.00    -0.383 OA 
HETATM   11  CA  UNL     1      -9.811  13.165  66.989  1.00  0.00    -0.244 C  
HETATM   12  O   UNL     1     -11.315  11.966  68.706  1.00  0.00    -0.227 OA 
ENDROOT
BRANCH  11  13
HETATM   13  N   UNL     1     -10.607  12.895  65.731  1.00  0.00    -0.271 N  
HETATM   14  C   UNL     1     -10.481  12.041  64.626  1.00  0.00    -0.297 C  
HETATM   15  H   UNL     1     -11.442  13.479  65.673  1.00  0.00     0.000 HD 
HETATM   16  O   UNL     1     -11.304  12.165  63.719  1.00  0.00    -0.376 OA 
BRANCH  14  17
HETATM   17  C   UNL     1      -9.510  10.872  64.571  1.00  0.00    -0.244 C  
BRANCH  17  18
HETATM   18  C   UNL     1      -9.687   9.688  65.426  1.00  0.00    -0.295 A  
HETATM   19  N   UNL     1     -10.605   9.701  66.471  1.00  0.00    -0.130 NA 
HETATM   20  C   UNL     1      -8.797   8.619  65.488  1.00  0.00    -0.179 A  
HETATM   21  N   UNL     1     -10.832   8.812  68.602  1.00  0.00    -0.435 NA 
HETATM   22  H2  UNL     1     -10.506   8.130  69.286  1.00  0.00     0.000 HD 
HETATM   23  S   UNL     1      -9.021   7.744  66.947  1.00  0.00    -0.140 SA 
HETATM   24  H1  UNL     1     -11.575   9.459  68.864  1.00  0.00     0.000 HD 
HETATM   25  C   UNL     1     -10.271   8.832  67.387  1.00  0.00    -0.252 A  
ENDBRANCH  17  18
BRANCH  17  26
HETATM   26  N   UNL     1      -8.332  10.859  64.009  1.00  0.00    -0.369 NA 
HETATM   27  H   UNL     1      -7.557  11.266  64.534  1.00  0.00     0.000 HD 
BRANCH  26  28
HETATM   28  O   UNL     1      -8.048  10.331  62.745  1.00  0.00    -0.141 OA 
HETATM   29  C   UNL     1      -6.729   9.946  62.421  1.00  0.00    -0.110 C  
ENDBRANCH  26  28
ENDBRANCH  17  26
ENDBRANCH  14  17
ENDBRANCH  11  13
TORSDOF 5
ENDMDL
MODEL       94
REMARK 921   NORMALIZED FREE ENERGY PREDICTED BY IDOCK:   -5.47 KCAL/MOL
REMARK 922        TOTAL FREE ENERGY PREDICTED BY IDOCK:   -7.83 KCAL/MOL
REMARK 923 INTER-LIGAND FREE ENERGY PREDICTED BY IDOCK:   -6.96 KCAL/MOL
REMARK 924 INTRA-LIGAND FREE ENERGY PREDICTED BY IDOCK:   -0.87 KCAL/MOL
REMARK 927      BINDING AFFINITY PREDICTED BY RF-SCORE:    0.00 PKD
ROOT
HETATM    1  CE  UNL     1     -10.834  12.682  67.334  1.00  0.00    -0.243 C  
HETATM    2  SD  UNL     1     -12.071  13.872  66.947  1.00  0.00    -0.393 SA 
HETATM    3  CG  UNL     1     -12.326  13.640  65.160  1.00  0.00    -0.452 C  
HETATM    4  CB  UNL     1     -11.542  12.567  64.491  1.00  0.00    -0.406 C  
HETATM    5  CA  UNL     1     -10.529  11.842  64.994  1.00  0.00    -0.289 C  
HETATM    6  N   UNL     1     -10.112  12.059  66.277  1.00  0.00    -0.217 N  
HETATM    7  C   UNL     1      -9.838  10.914  64.043  1.00  0.00    -0.322 C  
HETATM    8  C   UNL     1      -8.986  11.796  66.997  1.00  0.00    -0.186 C  
HETATM    9  O   UNL     1      -8.797  10.222  64.476  1.00  0.00    -0.175 OA 
HETATM   10  OXT UNL     1     -10.221  10.768  62.880  1.00  0.00    -0.216 OA 
HETATM   11  CA  UNL     1      -9.411  12.890  68.032  1.00  0.00    -0.213 C  
HETATM   12  O   UNL     1      -8.034  11.136  66.737  1.00  0.00    -0.144 OA 
ENDROOT
BRANCH  11  13
HETATM   13  N   UNL     1      -8.420  14.033  68.029  1.00  0.00    -0.160 N  
HETATM   14  C   UNL     1      -8.490  15.423  68.206  1.00  0.00    -0.159 C  
HETATM   15  H   UNL     1      -7.467  13.715  67.856  1.00  0.00     0.000 HD 
HETATM   16  O   UNL     1      -7.453  16.066  68.042  1.00  0.00    -0.121 OA 
BRANCH  14  17
HETATM   17  C   UNL     1      -9.712  16.143  68.754  1.00  0.00    -0.233 C  
BRANCH  17  18
HETATM   18  C   UNL     1     -10.076  17.493  68.298  1.00  0.00    -0.346 A  
HETATM   19  N   UNL     1     -10.705  17.678  67.071  1.00  0.00    -0.241 NA 
HETATM   20  C   UNL     1      -9.583  18.672  68.848  1.00  0.00    -0.293 A  
HETATM   21  N   UNL     1     -10.757  19.244  65.359  1.00  0.00    -0.454 NA 
HETATM   22  H2  UNL     1     -10.531  20.192  65.056  1.00  0.00     0.000 HD 
HETATM   23  S   UNL     1      -9.767  19.968  67.738  1.00  0.00    -0.405 SA 
HETATM   24  H1  UNL     1     -11.183  18.600  64.694  1.00  0.00     0.000 HD 
HETATM   25  C   UNL     1     -10.484  18.885  66.619  1.00  0.00    -0.428 A  
ENDBRANCH  17  18
BRANCH  17  26
HETATM   26  N   UNL     1     -10.404  15.815  69.811  1.00  0.00    -0.292 NA 
HETATM   27  H   UNL     1      -9.984  15.147  70.459  1.00  0.00     0.000 HD 
BRANCH  26  28
HETATM   28  O   UNL     1     -11.676  16.306  70.127  1.00  0.00    -0.244 OA 
HETATM   29  C   UNL     1     -12.160  16.211  71.449  1.00  0.00    -0.333 C  
ENDBRANCH  26  28
ENDBRANCH  17  26
ENDBRANCH  14  17
ENDBRANCH  11  13
TORSDOF 5
ENDMDL
MODEL       95
REMARK 921   NORMALIZED FREE ENERGY PREDICTED BY IDOCK:   -5.47 KCAL/MOL
REMARK 922        TOTAL FREE ENERGY PREDICTED BY IDOCK:   -7.83 KCAL/MOL
REMARK 923 INTER-LIGAND FREE ENERGY PREDICTED BY IDOCK:   -6.64 KCAL/MOL
REMARK 924 INTRA-LIGAND FREE ENERGY PREDICTED BY IDOCK:   -1.19 KCAL/MOL
REMARK 927      BINDING AFFINITY PREDICTED BY RF-SCORE:    0.00 PKD
ROOT
HETATM    1  CE  UNL     1      -9.380  10.834  65.876  1.00  0.00    -0.189 C  
HETATM    2  SD  UNL     1      -8.501  10.094  64.544  1.00  0.00    -0.186 SA 
HETATM    3  CG  UNL     1      -9.333  10.767  63.072  1.00  0.00    -0.330 C  
HETATM    4  CB  UNL     1     -10.438  11.738  63.295  1.00  0.00    -0.439 C  
HETATM    5  CA  UNL     1     -11.032  12.067  64.454  1.00  0.00    -0.333 C  
HETATM    6  N   UNL     1     -10.623  11.479  65.617  1.00  0.00    -0.267 N  
HETATM    7  C   UNL     1     -12.212  12.986  64.360  1.00  0.00    -0.406 C  
HETATM    8  C   UNL     1     -11.151  11.297  66.860  1.00  0.00    -0.275 C  
HETATM    9  O   UNL     1     -12.867  13.292  65.467  1.00  0.00    -0.481 OA 
HETATM   10  OXT UNL     1     -12.575  13.473  63.286  1.00  0.00    -0.773 OA 
HETATM   11  CA  UNL     1     -10.128  10.139  67.107  1.00  0.00    -0.209 C  
HETATM   12  O   UNL     1     -12.127  11.747  67.363  1.00  0.00    -0.595 OA 
ENDROOT
BRANCH  11  13
HETATM   13  N   UNL     1     -10.851   8.819  67.260  1.00  0.00    -0.418 N  
HETATM   14  C   UNL     1     -10.536   7.470  67.042  1.00  0.00    -0.339 C  
HETATM   15  H   UNL     1     -11.802   8.940  67.609  1.00  0.00     0.000 HD 
HETATM   16  O   UNL     1     -11.438   6.647  67.199  1.00  0.00    -0.230 OA 
BRANCH  14  17
HETATM   17  C   UNL     1      -9.123   6.963  66.801  1.00  0.00    -0.145 C  
BRANCH  17  18
HETATM   18  C   UNL     1      -8.013   7.336  67.692  1.00  0.00    -0.114 A  
HETATM   19  N   UNL     1      -8.239   7.564  69.045  1.00  0.00    -0.126 NA 
HETATM   20  C   UNL     1      -6.769   7.783  67.257  1.00  0.00    -0.068 A  
HETATM   21  N   UNL     1      -7.431   8.927  70.740  1.00  0.00    -0.086 NA 
HETATM   22  H2  UNL     1      -6.693   9.556  71.057  1.00  0.00     0.000 HD 
HETATM   23  S   UNL     1      -5.971   8.634  68.516  1.00  0.00    -0.046 SA 
HETATM   24  H1  UNL     1      -8.232   8.758  71.348  1.00  0.00     0.000 HD 
HETATM   25  C   UNL     1      -7.318   8.350  69.538  1.00  0.00    -0.073 A  
ENDBRANCH  17  18
BRANCH  17  26
HETATM   26  N   UNL     1      -8.669   6.395  65.717  1.00  0.00    -0.202 NA 
HETATM   27  H   UNL     1      -7.995   6.920  65.159  1.00  0.00     0.000 HD 
BRANCH  26  28
HETATM   28  O   UNL     1      -9.032   5.124  65.260  1.00  0.00    -0.156 OA 
HETATM   29  C   UNL     1      -9.227   4.072  66.180  1.00  0.00    -0.155 C  
ENDBRANCH  26  28
ENDBRANCH  17  26
ENDBRANCH  14  17
ENDBRANCH  11  13
TORSDOF 5
ENDMDL
MODEL       96
REMARK 921   NORMALIZED FREE ENERGY PREDICTED BY IDOCK:   -5.45 KCAL/MOL
REMARK 922        TOTAL FREE ENERGY PREDICTED BY IDOCK:   -7.81 KCAL/MOL
REMARK 923 INTER-LIGAND FREE ENERGY PREDICTED BY IDOCK:   -6.84 KCAL/MOL
REMARK 924 INTRA-LIGAND FREE ENERGY PREDICTED BY IDOCK:   -0.97 KCAL/MOL
REMARK 927      BINDING AFFINITY PREDICTED BY RF-SCORE:    0.00 PKD
ROOT
HETATM    1  CE  UNL     1      -8.156   9.446  68.901  1.00  0.00    -0.103 C  
HETATM    2  SD  UNL     1      -7.383   9.517  70.479  1.00  0.00    -0.123 SA 
HETATM    3  CG  UNL     1      -8.081   8.079  71.350  1.00  0.00    -0.107 C  
HETATM    4  CB  UNL     1      -9.027   7.216  70.593  1.00  0.00    -0.154 C  
HETATM    5  CA  UNL     1      -9.579   7.445  69.390  1.00  0.00    -0.155 C  
HETATM    6  N   UNL     1      -9.281   8.593  68.715  1.00  0.00    -0.142 N  
HETATM    7  C   UNL     1     -10.603   6.453  68.928  1.00  0.00    -0.252 C  
HETATM    8  C   UNL     1      -9.847   9.309  67.702  1.00  0.00    -0.176 C  
HETATM    9  O   UNL     1     -11.219   6.667  67.777  1.00  0.00    -0.274 OA 
HETATM   10  OXT UNL     1     -10.873   5.442  69.581  1.00  0.00    -0.289 OA 
HETATM   11  CA  UNL     1      -9.018  10.560  68.144  1.00  0.00    -0.138 C  
HETATM   12  O   UNL     1     -10.750   9.048  66.977  1.00  0.00    -0.242 OA 
ENDROOT
BRANCH  11  13
HETATM   13  N   UNL     1      -9.936  11.658  68.631  1.00  0.00    -0.280 N  
HETATM   14  C   UNL     1     -10.374  12.896  68.136  1.00  0.00    -0.240 C  
HETATM   15  H   UNL     1     -10.336  11.447  69.545  1.00  0.00     0.000 HD 
HETATM   16  O   UNL     1     -11.077  13.583  68.875  1.00  0.00    -0.252 OA 
BRANCH  14  17
HETATM   17  C   UNL     1     -10.179  13.343  66.696  1.00  0.00    -0.274 C  
BRANCH  17  18
HETATM   18  C   UNL     1     -10.850  12.657  65.581  1.00  0.00    -0.274 A  
HETATM   19  N   UNL     1     -10.202  11.645  64.881  1.00  0.00    -0.257 NA 
HETATM   20  C   UNL     1     -11.996  13.123  64.943  1.00  0.00    -0.388 A  
HETATM   21  N   UNL     1     -10.101  10.813  62.717  1.00  0.00    -0.750 NA 
HETATM   22  H2  UNL     1     -10.520  10.786  61.788  1.00  0.00     0.000 HD 
HETATM   23  S   UNL     1     -12.146  12.401  63.393  1.00  0.00    -0.467 SA 
HETATM   24  H1  UNL     1      -9.239  10.294  62.886  1.00  0.00     0.000 HD 
HETATM   25  C   UNL     1     -10.698  11.529  63.678  1.00  0.00    -0.424 A  
ENDBRANCH  17  18
BRANCH  17  26
HETATM   26  N   UNL     1      -9.260  14.155  66.246  1.00  0.00    -0.486 NA 
HETATM   27  H   UNL     1      -8.506  13.749  65.691  1.00  0.00     0.000 HD 
BRANCH  26  28
HETATM   28  O   UNL     1      -9.228  15.537  66.464  1.00  0.00    -0.245 OA 
HETATM   29  C   UNL     1     -10.287  16.348  66.005  1.00  0.00    -0.352 C  
ENDBRANCH  26  28
ENDBRANCH  17  26
ENDBRANCH  14  17
ENDBRANCH  11  13
TORSDOF 5
ENDMDL
MODEL       97
REMARK 921   NORMALIZED FREE ENERGY PREDICTED BY IDOCK:   -5.45 KCAL/MOL
REMARK 922        TOTAL FREE ENERGY PREDICTED BY IDOCK:   -7.81 KCAL/MOL
REMARK 923 INTER-LIGAND FREE ENERGY PREDICTED BY IDOCK:   -6.84 KCAL/MOL
REMARK 924 INTRA-LIGAND FREE ENERGY PREDICTED BY IDOCK:   -0.97 KCAL/MOL
REMARK 927      BINDING AFFINITY PREDICTED BY RF-SCORE:    0.00 PKD
ROOT
HETATM    1  CE  UNL     1      -9.814  13.739  67.667  1.00  0.00    -0.234 C  
HETATM    2  SD  UNL     1      -8.727  15.110  67.479  1.00  0.00    -0.187 SA 
HETATM    3  CG  UNL     1      -9.417  15.993  66.045  1.00  0.00    -0.349 C  
HETATM    4  CB  UNL     1     -10.656  15.442  65.434  1.00  0.00    -0.430 C  
HETATM    5  CA  UNL     1     -11.256  14.267  65.689  1.00  0.00    -0.314 C  
HETATM    6  N   UNL     1     -10.720  13.420  66.617  1.00  0.00    -0.280 N  
HETATM    7  C   UNL     1     -12.428  13.916  64.824  1.00  0.00    -0.354 C  
HETATM    8  C   UNL     1     -10.822  12.091  66.903  1.00  0.00    -0.259 C  
HETATM    9  O   UNL     1     -13.015  12.744  64.998  1.00  0.00    -0.811 OA 
HETATM   10  OXT UNL     1     -12.865  14.693  63.971  1.00  0.00    -0.690 OA 
HETATM   11  CA  UNL     1      -9.477  12.176  67.699  1.00  0.00    -0.187 C  
HETATM   12  O   UNL     1     -11.560  11.261  66.485  1.00  0.00    -0.344 OA 
ENDROOT
BRANCH  11  13
HETATM   13  N   UNL     1      -8.412  11.338  67.028  1.00  0.00    -0.145 N  
HETATM   14  C   UNL     1      -8.146   9.967  66.896  1.00  0.00    -0.117 C  
HETATM   15  H   UNL     1      -7.714  11.912  66.553  1.00  0.00     0.000 HD 
HETATM   16  O   UNL     1      -7.100   9.646  66.333  1.00  0.00    -0.090 OA 
BRANCH  14  17
HETATM   17  C   UNL     1      -9.148   8.878  67.246  1.00  0.00    -0.134 C  
BRANCH  17  18
HETATM   18  C   UNL     1      -9.540   8.615  68.639  1.00  0.00    -0.155 A  
HETATM   19  N   UNL     1     -10.879   8.451  68.977  1.00  0.00    -0.070 NA 
HETATM   20  C   UNL     1      -8.712   8.807  69.742  1.00  0.00    -0.133 A  
HETATM   21  N   UNL     1     -12.295   8.909  70.757  1.00  0.00    -0.492 NA 
HETATM   22  H2  UNL     1     -12.382   9.167  71.740  1.00  0.00     0.000 HD 
HETATM   23  S   UNL     1      -9.651   8.947  71.171  1.00  0.00    -0.291 SA 
HETATM   24  H1  UNL     1     -13.141   8.787  70.201  1.00  0.00     0.000 HD 
HETATM   25  C   UNL     1     -11.074   8.741  70.236  1.00  0.00    -0.222 A  
ENDBRANCH  17  18
BRANCH  17  26
HETATM   26  N   UNL     1      -9.567   7.921  66.464  1.00  0.00    -0.259 NA 
HETATM   27  H   UNL     1     -10.333   8.138  65.826  1.00  0.00     0.000 HD 
BRANCH  26  28
HETATM   28  O   UNL     1      -9.050   6.621  66.432  1.00  0.00    -0.147 OA 
HETATM   29  C   UNL     1      -8.409   6.145  65.268  1.00  0.00    -0.144 C  
ENDBRANCH  26  28
ENDBRANCH  17  26
ENDBRANCH  14  17
ENDBRANCH  11  13
TORSDOF 5
ENDMDL
MODEL       98
REMARK 921   NORMALIZED FREE ENERGY PREDICTED BY IDOCK:   -5.45 KCAL/MOL
REMARK 922        TOTAL FREE ENERGY PREDICTED BY IDOCK:   -7.80 KCAL/MOL
REMARK 923 INTER-LIGAND FREE ENERGY PREDICTED BY IDOCK:   -7.33 KCAL/MOL
REMARK 924 INTRA-LIGAND FREE ENERGY PREDICTED BY IDOCK:   -0.47 KCAL/MOL
REMARK 927      BINDING AFFINITY PREDICTED BY RF-SCORE:    0.00 PKD
ROOT
HETATM    1  CE  UNL     1      -7.868  18.244  69.014  1.00  0.00    -0.108 C  
HETATM    2  SD  UNL     1      -6.224  18.869  69.009  1.00  0.00    -0.255 SA 
HETATM    3  CG  UNL     1      -6.228  20.042  67.618  1.00  0.00    -0.213 C  
HETATM    4  CB  UNL     1      -7.510  20.231  66.887  1.00  0.00    -0.337 C  
HETATM    5  CA  UNL     1      -8.645  19.521  67.004  1.00  0.00    -0.301 C  
HETATM    6  N   UNL     1      -8.705  18.481  67.887  1.00  0.00    -0.279 N  
HETATM    7  C   UNL     1      -9.743  19.858  66.043  1.00  0.00    -0.375 C  
HETATM    8  C   UNL     1      -9.495  17.382  68.051  1.00  0.00    -0.281 C  
HETATM    9  O   UNL     1     -10.858  19.147  66.080  1.00  0.00    -0.376 OA 
HETATM   10  OXT UNL     1      -9.641  20.785  65.235  1.00  0.00     0.480 OA 
HETATM   11  CA  UNL     1      -8.377  16.730  68.931  1.00  0.00    -0.222 C  
HETATM   12  O   UNL     1     -10.508  17.067  67.520  1.00  0.00    -0.324 OA 
ENDROOT
BRANCH  11  13
HETATM   13  N   UNL     1      -7.825  15.494  68.257  1.00  0.00    -0.125 N  
HETATM   14  C   UNL     1      -8.353  14.275  67.807  1.00  0.00    -0.171 C  
HETATM   15  H   UNL     1      -6.822  15.564  68.087  1.00  0.00     0.000 HD 
HETATM   16  O   UNL     1      -7.559  13.442  67.371  1.00  0.00    -0.162 OA 
BRANCH  14  17
HETATM   17  C   UNL     1      -9.843  14.004  67.664  1.00  0.00    -0.233 C  
BRANCH  17  18
HETATM   18  C   UNL     1     -10.503  14.023  66.350  1.00  0.00    -0.284 A  
HETATM   19  N   UNL     1     -10.344  15.108  65.495  1.00  0.00    -0.343 NA 
HETATM   20  C   UNL     1     -11.540  13.173  65.975  1.00  0.00    -0.353 A  
HETATM   21  N   UNL     1     -11.577  16.277  63.914  1.00  0.00    -1.573 NA 
HETATM   22  H2  UNL     1     -12.400  16.298  63.312  1.00  0.00     0.000 HD 
HETATM   23  S   UNL     1     -12.405  13.841  64.652  1.00  0.00    -0.344 SA 
HETATM   24  H1  UNL     1     -10.951  17.081  63.924  1.00  0.00     0.000 HD 
HETATM   25  C   UNL     1     -11.352  15.194  64.668  1.00  0.00    -0.356 A  
ENDBRANCH  17  18
BRANCH  17  26
HETATM   26  N   UNL     1     -10.730  13.983  68.621  1.00  0.00    -0.254 NA 
HETATM   27  H   UNL     1     -11.512  13.335  68.522  1.00  0.00     0.000 HD 
BRANCH  26  28
HETATM   28  O   UNL     1     -10.693  14.778  69.773  1.00  0.00    -0.228 OA 
HETATM   29  C   UNL     1     -11.887  15.318  70.295  1.00  0.00    -0.318 C  
ENDBRANCH  26  28
ENDBRANCH  17  26
ENDBRANCH  14  17
ENDBRANCH  11  13
TORSDOF 5
ENDMDL
MODEL       99
REMARK 921   NORMALIZED FREE ENERGY PREDICTED BY IDOCK:   -5.45 KCAL/MOL
REMARK 922        TOTAL FREE ENERGY PREDICTED BY IDOCK:   -7.80 KCAL/MOL
REMARK 923 INTER-LIGAND FREE ENERGY PREDICTED BY IDOCK:   -7.14 KCAL/MOL
REMARK 924 INTRA-LIGAND FREE ENERGY PREDICTED BY IDOCK:   -0.66 KCAL/MOL
REMARK 927      BINDING AFFINITY PREDICTED BY RF-SCORE:    0.00 PKD
ROOT
HETATM    1  CE  UNL     1     -11.968   9.656  71.378  1.00  0.00    -0.399 C  
HETATM    2  SD  UNL     1     -13.572   8.971  71.607  1.00  0.00    -0.372 SA 
HETATM    3  CG  UNL     1     -13.301   7.187  71.365  1.00  0.00    -0.307 C  
HETATM    4  CB  UNL     1     -11.908   6.738  71.098  1.00  0.00    -0.410 C  
HETATM    5  CA  UNL     1     -10.827   7.493  70.839  1.00  0.00    -0.240 C  
HETATM    6  N   UNL     1     -10.944   8.853  70.801  1.00  0.00    -0.240 N  
HETATM    7  C   UNL     1      -9.572   6.757  70.480  1.00  0.00    -0.169 C  
HETATM    8  C   UNL     1     -10.220   9.883  70.278  1.00  0.00    -0.264 C  
HETATM    9  O   UNL     1      -8.497   7.458  70.159  1.00  0.00    -0.134 OA 
HETATM   10  OXT UNL     1      -9.512   5.525  70.492  1.00  0.00    -0.155 OA 
HETATM   11  CA  UNL     1     -11.488  10.796  70.365  1.00  0.00    -0.307 C  
HETATM   12  O   UNL     1      -9.138   9.903  69.791  1.00  0.00    -0.212 OA 
ENDROOT
BRANCH  11  13
HETATM   13  N   UNL     1     -11.943  11.202  68.981  1.00  0.00    -0.345 N  
HETATM   14  C   UNL     1     -11.694  12.278  68.117  1.00  0.00    -0.349 C  
HETATM   15  H   UNL     1     -12.592  10.527  68.577  1.00  0.00     0.000 HD 
HETATM   16  O   UNL     1     -12.334  12.319  67.066  1.00  0.00    -0.393 OA 
BRANCH  14  17
HETATM   17  C   UNL     1     -10.567  13.279  68.321  1.00  0.00    -0.251 C  
BRANCH  17  18
HETATM   18  C   UNL     1     -10.742  14.706  68.005  1.00  0.00    -0.246 A  
HETATM   19  N   UNL     1     -10.467  15.185  66.729  1.00  0.00    -0.277 NA 
HETATM   20  C   UNL     1     -10.879  15.713  68.955  1.00  0.00    -0.252 A  
HETATM   21  N   UNL     1      -9.638  17.109  65.731  1.00  0.00    -0.537 NA 
HETATM   22  H2  UNL     1      -9.405  18.096  65.834  1.00  0.00     0.000 HD 
HETATM   23  S   UNL     1     -10.494  17.236  68.263  1.00  0.00    -0.387 SA 
HETATM   24  H1  UNL     1      -9.451  16.647  64.842  1.00  0.00     0.000 HD 
HETATM   25  C   UNL     1     -10.179  16.459  66.768  1.00  0.00    -0.285 A  
ENDBRANCH  17  18
BRANCH  17  26
HETATM   26  N   UNL     1      -9.308  13.008  68.531  1.00  0.00    -0.375 NA 
HETATM   27  H   UNL     1      -9.089  12.130  69.004  1.00  0.00     0.000 HD 
BRANCH  26  28
HETATM   28  O   UNL     1      -8.234  13.825  68.159  1.00  0.00    -0.141 OA 
HETATM   29  C   UNL     1      -7.302  14.249  69.129  1.00  0.00    -0.092 C  
ENDBRANCH  26  28
ENDBRANCH  17  26
ENDBRANCH  14  17
ENDBRANCH  11  13
TORSDOF 5
ENDMDL
MODEL      100
REMARK 921   NORMALIZED FREE ENERGY PREDICTED BY IDOCK:   -5.43 KCAL/MOL
REMARK 922        TOTAL FREE ENERGY PREDICTED BY IDOCK:   -7.78 KCAL/MOL
REMARK 923 INTER-LIGAND FREE ENERGY PREDICTED BY IDOCK:   -7.23 KCAL/MOL
REMARK 924 INTRA-LIGAND FREE ENERGY PREDICTED BY IDOCK:   -0.55 KCAL/MOL
REMARK 927      BINDING AFFINITY PREDICTED BY RF-SCORE:    0.00 PKD
ROOT
HETATM    1  CE  UNL     1      -8.914   8.177  69.308  1.00  0.00    -0.148 C  
HETATM    2  SD  UNL     1      -7.609   9.285  69.714  1.00  0.00    -0.094 SA 
HETATM    3  CG  UNL     1      -7.201   8.836  71.430  1.00  0.00    -0.090 C  
HETATM    4  CB  UNL     1      -7.956   7.709  72.039  1.00  0.00    -0.112 C  
HETATM    5  CA  UNL     1      -9.033   7.071  71.552  1.00  0.00    -0.139 C  
HETATM    6  N   UNL     1      -9.557   7.449  70.348  1.00  0.00    -0.166 N  
HETATM    7  C   UNL     1      -9.666   6.051  72.449  1.00  0.00    -0.158 C  
HETATM    8  C   UNL     1     -10.752   7.297  69.711  1.00  0.00    -0.239 C  
HETATM    9  O   UNL     1     -10.763   5.439  72.037  1.00  0.00    -0.224 OA 
HETATM   10  OXT UNL     1      -9.183   5.759  73.546  1.00  0.00    -0.132 OA 
HETATM   11  CA  UNL     1     -10.387   8.498  68.776  1.00  0.00    -0.213 C  
HETATM   12  O   UNL     1     -11.697   6.632  69.980  1.00  0.00    -0.383 OA 
ENDROOT
BRANCH  11  13
HETATM   13  N   UNL     1     -11.335   9.654  69.005  1.00  0.00    -0.460 N  
HETATM   14  C   UNL     1     -11.600  10.877  68.370  1.00  0.00    -0.276 C  
HETATM   15  H   UNL     1     -11.928   9.508  69.822  1.00  0.00     0.000 HD 
HETATM   16  O   UNL     1     -12.411  11.629  68.910  1.00  0.00    -0.355 OA 
BRANCH  14  17
HETATM   17  C   UNL     1     -11.085  11.236  66.985  1.00  0.00    -0.293 C  
BRANCH  17  18
HETATM   18  C   UNL     1     -11.423  12.520  66.351  1.00  0.00    -0.365 A  
HETATM   19  N   UNL     1     -12.266  12.561  65.245  1.00  0.00    -0.541 NA 
HETATM   20  C   UNL     1     -10.736  13.711  66.565  1.00  0.00    -0.284 A  
HETATM   21  N   UNL     1     -12.531  13.801  63.302  1.00  0.00    -1.092 NA 
HETATM   22  H2  UNL     1     -12.295  14.649  62.786  1.00  0.00     0.000 HD 
HETATM   23  S   UNL     1     -11.033  14.807  65.278  1.00  0.00    -0.399 SA 
HETATM   24  H1  UNL     1     -13.132  13.105  62.861  1.00  0.00     0.000 HD 
HETATM   25  C   UNL     1     -12.042  13.637  64.537  1.00  0.00    -0.419 A  
ENDBRANCH  17  18
BRANCH  17  26
HETATM   26  N   UNL     1     -10.541  10.427  66.118  1.00  0.00    -0.144 NA 
HETATM   27  H   UNL     1     -10.933   9.487  66.043  1.00  0.00     0.000 HD 
BRANCH  26  28
HETATM   28  O   UNL     1      -9.463  10.744  65.285  1.00  0.00    -0.193 OA 
HETATM   29  C   UNL     1      -9.575  10.567  63.889  1.00  0.00    -0.309 C  
ENDBRANCH  26  28
ENDBRANCH  17  26
ENDBRANCH  14  17
ENDBRANCH  11  13
TORSDOF 5
ENDMDL
MODEL      101
REMARK 921   NORMALIZED FREE ENERGY PREDICTED BY IDOCK:   -5.42 KCAL/MOL
REMARK 922        TOTAL FREE ENERGY PREDICTED BY IDOCK:   -7.77 KCAL/MOL
REMARK 923 INTER-LIGAND FREE ENERGY PREDICTED BY IDOCK:   -6.67 KCAL/MOL
REMARK 924 INTRA-LIGAND FREE ENERGY PREDICTED BY IDOCK:   -1.10 KCAL/MOL
REMARK 927      BINDING AFFINITY PREDICTED BY RF-SCORE:    0.00 PKD
ROOT
HETATM    1  CE  UNL     1      -9.490  13.543  67.094  1.00  0.00    -0.244 C  
HETATM    2  SD  UNL     1      -8.437  14.951  67.167  1.00  0.00    -0.226 SA 
HETATM    3  CG  UNL     1      -9.225  16.121  66.017  1.00  0.00    -0.328 C  
HETATM    4  CB  UNL     1     -10.491  15.690  65.365  1.00  0.00    -0.435 C  
HETATM    5  CA  UNL     1     -11.057  14.472  65.375  1.00  0.00    -0.345 C  
HETATM    6  N   UNL     1     -10.454  13.449  66.050  1.00  0.00    -0.289 N  
HETATM    7  C   UNL     1     -12.274  14.296  64.518  1.00  0.00    -0.455 C  
HETATM    8  C   UNL     1     -10.519  12.088  66.026  1.00  0.00    -0.249 C  
HETATM    9  O   UNL     1     -12.832  13.099  64.448  1.00  0.00    -0.672 OA 
HETATM   10  OXT UNL     1     -12.773  15.235  63.894  1.00  0.00    -0.732 OA 
HETATM   11  CA  UNL     1      -9.129  12.025  66.744  1.00  0.00    -0.197 C  
HETATM   12  O   UNL     1     -11.268  11.356  65.469  1.00  0.00    -0.199 OA 
ENDROOT
BRANCH  11  13
HETATM   13  N   UNL     1      -8.094  11.395  65.839  1.00  0.00    -0.369 N  
HETATM   14  C   UNL     1      -7.733  10.087  65.483  1.00  0.00    -0.135 C  
HETATM   15  H   UNL     1      -7.516  12.094  65.373  1.00  0.00     0.000 HD 
HETATM   16  O   UNL     1      -6.747   9.950  64.760  1.00  0.00    -0.109 OA 
BRANCH  14  17
HETATM   17  C   UNL     1      -8.586   8.865  65.789  1.00  0.00    -0.160 C  
BRANCH  17  18
HETATM   18  C   UNL     1      -7.992   7.524  65.903  1.00  0.00    -0.117 A  
HETATM   19  N   UNL     1      -8.226   6.562  64.927  1.00  0.00    -0.126 NA 
HETATM   20  C   UNL     1      -7.438   7.003  67.069  1.00  0.00    -0.094 A  
HETATM   21  N   UNL     1      -8.484   4.261  64.774  1.00  0.00    -0.115 NA 
HETATM   22  H2  UNL     1      -8.372   3.354  65.225  1.00  0.00     0.000 HD 
HETATM   23  S   UNL     1      -7.376   5.290  66.982  1.00  0.00    -0.084 SA 
HETATM   24  H1  UNL     1      -8.902   4.303  63.845  1.00  0.00     0.000 HD 
HETATM   25  C   UNL     1      -8.079   5.361  65.420  1.00  0.00    -0.120 A  
ENDBRANCH  17  18
BRANCH  17  26
HETATM   26  N   UNL     1      -9.888   8.786  65.733  1.00  0.00    -0.458 NA 
HETATM   27  H   UNL     1     -10.337   9.050  64.856  1.00  0.00     0.000 HD 
BRANCH  26  28
HETATM   28  O   UNL     1     -10.716   8.366  66.780  1.00  0.00    -0.249 OA 
HETATM   29  C   UNL     1     -10.579   8.941  68.061  1.00  0.00    -0.168 C  
ENDBRANCH  26  28
ENDBRANCH  17  26
ENDBRANCH  14  17
ENDBRANCH  11  13
TORSDOF 5
ENDMDL
MODEL      102
REMARK 921   NORMALIZED FREE ENERGY PREDICTED BY IDOCK:   -5.42 KCAL/MOL
REMARK 922        TOTAL FREE ENERGY PREDICTED BY IDOCK:   -7.76 KCAL/MOL
REMARK 923 INTER-LIGAND FREE ENERGY PREDICTED BY IDOCK:   -6.96 KCAL/MOL
REMARK 924 INTRA-LIGAND FREE ENERGY PREDICTED BY IDOCK:   -0.81 KCAL/MOL
REMARK 927      BINDING AFFINITY PREDICTED BY RF-SCORE:    0.00 PKD
ROOT
HETATM    1  CE  UNL     1     -11.818   9.656  71.305  1.00  0.00    -0.381 C  
HETATM    2  SD  UNL     1     -13.464   9.327  71.833  1.00  0.00    -0.445 SA 
HETATM    3  CG  UNL     1     -13.604   7.521  71.661  1.00  0.00    -0.368 C  
HETATM    4  CB  UNL     1     -12.397   6.783  71.199  1.00  0.00    -0.386 C  
HETATM    5  CA  UNL     1     -11.247   7.288  70.722  1.00  0.00    -0.274 C  
HETATM    6  N   UNL     1     -11.092   8.641  70.620  1.00  0.00    -0.246 N  
HETATM    7  C   UNL     1     -10.247   6.297  70.210  1.00  0.00    -0.196 C  
HETATM    8  C   UNL     1     -10.276   9.482  69.924  1.00  0.00    -0.231 C  
HETATM    9  O   UNL     1      -9.124   6.748  69.676  1.00  0.00    -0.143 OA 
HETATM   10  OXT UNL     1     -10.436   5.080  70.288  1.00  0.00    -0.261 OA 
HETATM   11  CA  UNL     1     -11.299  10.643  70.159  1.00  0.00    -0.323 C  
HETATM   12  O   UNL     1      -9.312   9.263  69.267  1.00  0.00    -0.152 OA 
ENDROOT
BRANCH  11  13
HETATM   13  N   UNL     1     -11.894  11.098  68.846  1.00  0.00    -0.338 N  
HETATM   14  C   UNL     1     -11.460  11.875  67.761  1.00  0.00    -0.319 C  
HETATM   15  H   UNL     1     -12.846  10.756  68.716  1.00  0.00     0.000 HD 
HETATM   16  O   UNL     1     -12.278  12.115  66.874  1.00  0.00    -0.537 OA 
BRANCH  14  17
HETATM   17  C   UNL     1     -10.010  12.276  67.540  1.00  0.00    -0.199 C  
BRANCH  17  18
HETATM   18  C   UNL     1      -9.203  11.678  66.465  1.00  0.00    -0.198 A  
HETATM   19  N   UNL     1      -9.775  11.390  65.230  1.00  0.00    -0.235 NA 
HETATM   20  C   UNL     1      -7.961  11.079  66.651  1.00  0.00    -0.156 A  
HETATM   21  N   UNL     1      -9.580   9.803  63.548  1.00  0.00    -0.498 NA 
HETATM   22  H2  UNL     1      -9.029   9.049  63.140  1.00  0.00     0.000 HD 
HETATM   23  S   UNL     1      -7.606  10.030  65.340  1.00  0.00    -0.143 SA 
HETATM   24  H1  UNL     1     -10.474  10.048  63.123  1.00  0.00     0.000 HD 
HETATM   25  C   UNL     1      -9.109  10.442  64.626  1.00  0.00    -0.222 A  
ENDBRANCH  17  18
BRANCH  17  26
HETATM   26  N   UNL     1      -9.250  12.949  68.362  1.00  0.00    -0.326 NA 
HETATM   27  H   UNL     1      -8.941  12.474  69.211  1.00  0.00     0.000 HD 
BRANCH  26  28
HETATM   28  O   UNL     1      -8.826  14.269  68.171  1.00  0.00    -0.169 OA 
HETATM   29  C   UNL     1      -9.777  15.295  67.985  1.00  0.00    -0.211 C  
ENDBRANCH  26  28
ENDBRANCH  17  26
ENDBRANCH  14  17
ENDBRANCH  11  13
TORSDOF 5
ENDMDL
MODEL      103
REMARK 921   NORMALIZED FREE ENERGY PREDICTED BY IDOCK:   -5.41 KCAL/MOL
REMARK 922        TOTAL FREE ENERGY PREDICTED BY IDOCK:   -7.75 KCAL/MOL
REMARK 923 INTER-LIGAND FREE ENERGY PREDICTED BY IDOCK:   -6.89 KCAL/MOL
REMARK 924 INTRA-LIGAND FREE ENERGY PREDICTED BY IDOCK:   -0.86 KCAL/MOL
REMARK 927      BINDING AFFINITY PREDICTED BY RF-SCORE:    0.00 PKD
ROOT
HETATM    1  CE  UNL     1     -11.402  15.134  67.250  1.00  0.00    -0.303 C  
HETATM    2  SD  UNL     1     -10.625  14.242  68.553  1.00  0.00    -0.263 SA 
HETATM    3  CG  UNL     1      -9.246  15.327  69.036  1.00  0.00    -0.223 C  
HETATM    4  CB  UNL     1      -9.117  16.626  68.323  1.00  0.00    -0.218 C  
HETATM    5  CA  UNL     1      -9.787  17.048  67.238  1.00  0.00    -0.260 C  
HETATM    6  N   UNL     1     -10.721  16.237  66.660  1.00  0.00    -0.252 N  
HETATM    7  C   UNL     1      -9.355  18.360  66.657  1.00  0.00    -0.305 C  
HETATM    8  C   UNL     1     -11.330  16.157  65.443  1.00  0.00     0.134 C  
HETATM    9  O   UNL     1      -9.944  18.790  65.554  1.00  0.00    -0.339 OA 
HETATM   10  OXT UNL     1      -8.482  19.052  67.187  1.00  0.00    -0.272 OA 
HETATM   11  CA  UNL     1     -11.715  14.672  65.752  1.00  0.00    -0.302 C  
HETATM   12  O   UNL     1     -11.321  16.902  64.520  1.00  0.00    -1.006 OA 
ENDROOT
BRANCH  11  13
HETATM   13  N   UNL     1     -11.014  13.733  64.796  1.00  0.00    -0.371 N  
HETATM   14  C   UNL     1     -10.290  12.537  64.911  1.00  0.00    -0.300 C  
HETATM   15  H   UNL     1     -11.085  14.047  63.828  1.00  0.00     0.000 HD 
HETATM   16  O   UNL     1      -9.773  12.089  63.889  1.00  0.00    -0.235 OA 
BRANCH  14  17
HETATM   17  C   UNL     1     -10.262  11.688  66.173  1.00  0.00    -0.226 C  
BRANCH  17  18
HETATM   18  C   UNL     1      -8.998  11.371  66.856  1.00  0.00    -0.171 A  
HETATM   19  N   UNL     1      -7.937  12.270  66.833  1.00  0.00    -0.119 NA 
HETATM   20  C   UNL     1      -8.634  10.101  67.293  1.00  0.00    -0.125 A  
HETATM   21  N   UNL     1      -5.618  12.227  66.788  1.00  0.00    -0.459 NA 
HETATM   22  H2  UNL     1      -4.767  11.679  66.915  1.00  0.00     0.000 HD 
HETATM   23  S   UNL     1      -6.934  10.011  67.507  1.00  0.00    -0.087 SA 
HETATM   24  H1  UNL     1      -5.539  13.201  66.494  1.00  0.00     0.000 HD 
HETATM   25  C   UNL     1      -6.803  11.647  67.012  1.00  0.00    -0.144 A  
ENDBRANCH  17  18
BRANCH  17  26
HETATM   26  N   UNL     1     -11.233  10.955  66.644  1.00  0.00    -0.211 NA 
HETATM   27  H   UNL     1     -11.336  10.013  66.265  1.00  0.00     0.000 HD 
BRANCH  26  28
HETATM   28  O   UNL     1     -12.144  11.358  67.627  1.00  0.00    -0.630 OA 
HETATM   29  C   UNL     1     -12.014  10.879  68.947  1.00  0.00    -0.206 C  
ENDBRANCH  26  28
ENDBRANCH  17  26
ENDBRANCH  14  17
ENDBRANCH  11  13
TORSDOF 5
ENDMDL
MODEL      104
REMARK 921   NORMALIZED FREE ENERGY PREDICTED BY IDOCK:   -5.41 KCAL/MOL
REMARK 922        TOTAL FREE ENERGY PREDICTED BY IDOCK:   -7.75 KCAL/MOL
REMARK 923 INTER-LIGAND FREE ENERGY PREDICTED BY IDOCK:   -6.83 KCAL/MOL
REMARK 924 INTRA-LIGAND FREE ENERGY PREDICTED BY IDOCK:   -0.92 KCAL/MOL
REMARK 927      BINDING AFFINITY PREDICTED BY RF-SCORE:    0.00 PKD
ROOT
HETATM    1  CE  UNL     1      -6.290  14.266  69.584  1.00  0.00    -0.136 C  
HETATM    2  SD  UNL     1      -5.637  13.989  71.194  1.00  0.00    -0.224 SA 
HETATM    3  CG  UNL     1      -5.446  12.180  71.260  1.00  0.00     0.018 C  
HETATM    4  CB  UNL     1      -5.806  11.410  70.039  1.00  0.00    -0.126 C  
HETATM    5  CA  UNL     1      -6.422  11.852  68.930  1.00  0.00    -0.082 C  
HETATM    6  N   UNL     1      -6.794  13.163  68.838  1.00  0.00    -0.102 N  
HETATM    7  C   UNL     1      -6.774  10.817  67.906  1.00  0.00    -0.064 C  
HETATM    8  C   UNL     1      -7.677  13.880  68.086  1.00  0.00    -0.142 C  
HETATM    9  O   UNL     1      -7.434  11.194  66.823  1.00  0.00    -0.133 OA 
HETATM   10  OXT UNL     1      -6.451   9.633  68.037  1.00  0.00    -0.056 OA 
HETATM   11  CA  UNL     1      -7.629  15.026  69.150  1.00  0.00    -0.176 C  
HETATM   12  O   UNL     1      -8.319  13.570  67.137  1.00  0.00    -0.187 OA 
ENDROOT
BRANCH  11  13
HETATM   13  N   UNL     1      -8.979  15.191  69.811  1.00  0.00    -0.450 N  
HETATM   14  C   UNL     1     -10.155  15.901  69.529  1.00  0.00    -0.277 C  
HETATM   15  H   UNL     1      -9.052  14.653  70.675  1.00  0.00     0.000 HD 
HETATM   16  O   UNL     1     -11.053  15.864  70.370  1.00  0.00    -0.321 OA 
BRANCH  14  17
HETATM   17  C   UNL     1     -10.444  16.552  68.185  1.00  0.00    -0.313 C  
BRANCH  17  18
HETATM   18  C   UNL     1     -10.754  15.747  66.994  1.00  0.00    -0.306 A  
HETATM   19  N   UNL     1     -10.632  16.294  65.721  1.00  0.00    -0.343 NA 
HETATM   20  C   UNL     1     -11.460  14.548  67.013  1.00  0.00    -0.370 A  
HETATM   21  N   UNL     1     -11.668  16.136  63.650  1.00  0.00    -1.250 NA 
HETATM   22  H2  UNL     1     -12.304  15.616  63.046  1.00  0.00     0.000 HD 
HETATM   23  S   UNL     1     -12.101  14.211  65.458  1.00  0.00    -0.423 SA 
HETATM   24  H1  UNL     1     -11.252  17.001  63.303  1.00  0.00     0.000 HD 
HETATM   25  C   UNL     1     -11.403  15.664  64.874  1.00  0.00    -0.315 A  
ENDBRANCH  17  18
BRANCH  17  26
HETATM   26  N   UNL     1     -10.216  17.793  67.852  1.00  0.00    -0.343 NA 
HETATM   27  H   UNL     1     -10.546  18.102  66.937  1.00  0.00     0.000 HD 
BRANCH  26  28
HETATM   28  O   UNL     1      -9.556  18.735  68.650  1.00  0.00    -0.353 OA 
HETATM   29  C   UNL     1      -8.165  18.925  68.511  1.00  0.00    -0.353 C  
ENDBRANCH  26  28
ENDBRANCH  17  26
ENDBRANCH  14  17
ENDBRANCH  11  13
TORSDOF 5
ENDMDL
MODEL      105
REMARK 921   NORMALIZED FREE ENERGY PREDICTED BY IDOCK:   -5.41 KCAL/MOL
REMARK 922        TOTAL FREE ENERGY PREDICTED BY IDOCK:   -7.75 KCAL/MOL
REMARK 923 INTER-LIGAND FREE ENERGY PREDICTED BY IDOCK:   -6.67 KCAL/MOL
REMARK 924 INTRA-LIGAND FREE ENERGY PREDICTED BY IDOCK:   -1.08 KCAL/MOL
REMARK 927      BINDING AFFINITY PREDICTED BY RF-SCORE:    0.00 PKD
ROOT
HETATM    1  CE  UNL     1      -9.439   9.285  70.258  1.00  0.00    -0.238 C  
HETATM    2  SD  UNL     1      -9.739   8.543  71.825  1.00  0.00    -0.293 SA 
HETATM    3  CG  UNL     1     -10.472   6.935  71.391  1.00  0.00    -0.209 C  
HETATM    4  CB  UNL     1     -10.602   6.611  69.945  1.00  0.00    -0.268 C  
HETATM    5  CA  UNL     1     -10.406   7.421  68.892  1.00  0.00    -0.206 C  
HETATM    6  N   UNL     1     -10.038   8.721  69.096  1.00  0.00    -0.192 N  
HETATM    7  C   UNL     1     -10.738   6.855  67.545  1.00  0.00    -0.298 C  
HETATM    8  C   UNL     1     -10.068   9.872  68.367  1.00  0.00    -0.167 C  
HETATM    9  O   UNL     1     -10.618   7.634  66.483  1.00  0.00    -0.174 OA 
HETATM   10  OXT UNL     1     -11.101   5.685  67.402  1.00  0.00    -0.094 OA 
HETATM   11  CA  UNL     1      -9.937  10.695  69.692  1.00  0.00    -0.050 C  
HETATM   12  O   UNL     1     -10.314  10.060  67.222  1.00  0.00    -0.208 OA 
ENDROOT
BRANCH  11  13
HETATM   13  N   UNL     1     -11.183  11.518  69.930  1.00  0.00    -0.478 N  
HETATM   14  C   UNL     1     -11.703  12.721  69.431  1.00  0.00    -0.319 C  
HETATM   15  H   UNL     1     -11.797  11.093  70.625  1.00  0.00     0.000 HD 
HETATM   16  O   UNL     1     -12.741  13.143  69.940  1.00  0.00     0.027 OA 
BRANCH  14  17
HETATM   17  C   UNL     1     -11.162  13.424  68.196  1.00  0.00    -0.273 C  
BRANCH  17  18
HETATM   18  C   UNL     1     -10.864  14.865  68.202  1.00  0.00    -0.256 A  
HETATM   19  N   UNL     1     -11.003  15.620  67.043  1.00  0.00    -0.301 NA 
HETATM   20  C   UNL     1     -10.156  15.520  69.205  1.00  0.00    -0.256 A  
HETATM   21  N   UNL     1      -9.992  17.439  66.016  1.00  0.00    -0.494 NA 
HETATM   22  H2  UNL     1      -9.361  18.235  66.109  1.00  0.00     0.000 HD 
HETATM   23  S   UNL     1      -9.532  17.006  68.617  1.00  0.00    -0.273 SA 
HETATM   24  H1  UNL     1     -10.413  17.245  65.108  1.00  0.00     0.000 HD 
HETATM   25  C   UNL     1     -10.240  16.680  67.090  1.00  0.00    -0.290 A  
ENDBRANCH  17  18
BRANCH  17  26
HETATM   26  N   UNL     1     -11.138  12.958  66.977  1.00  0.00    -0.266 NA 
HETATM   27  H   UNL     1     -10.229  12.893  66.517  1.00  0.00     0.000 HD 
BRANCH  26  28
HETATM   28  O   UNL     1     -12.259  12.539  66.251  1.00  0.00    -0.600 OA 
HETATM   29  C   UNL     1     -12.314  12.747  64.857  1.00  0.00    -0.490 C  
ENDBRANCH  26  28
ENDBRANCH  17  26
ENDBRANCH  14  17
ENDBRANCH  11  13
TORSDOF 5
ENDMDL
MODEL      106
REMARK 921   NORMALIZED FREE ENERGY PREDICTED BY IDOCK:   -5.39 KCAL/MOL
REMARK 922        TOTAL FREE ENERGY PREDICTED BY IDOCK:   -7.73 KCAL/MOL
REMARK 923 INTER-LIGAND FREE ENERGY PREDICTED BY IDOCK:   -6.49 KCAL/MOL
REMARK 924 INTRA-LIGAND FREE ENERGY PREDICTED BY IDOCK:   -1.24 KCAL/MOL
REMARK 927      BINDING AFFINITY PREDICTED BY RF-SCORE:    0.00 PKD
ROOT
HETATM    1  CE  UNL     1     -10.401  10.371  67.277  1.00  0.00    -0.228 C  
HETATM    2  SD  UNL     1     -10.454  10.827  68.976  1.00  0.00    -0.225 SA 
HETATM    3  CG  UNL     1     -11.466  12.339  68.970  1.00  0.00    -0.297 C  
HETATM    4  CB  UNL     1     -12.013  12.790  67.662  1.00  0.00    -0.331 C  
HETATM    5  CA  UNL     1     -11.722  12.326  66.435  1.00  0.00    -0.365 C  
HETATM    6  N   UNL     1     -10.820  11.310  66.292  1.00  0.00    -0.264 N  
HETATM    7  C   UNL     1     -12.332  13.062  65.282  1.00  0.00    -0.486 C  
HETATM    8  C   UNL     1     -10.053  10.818  65.278  1.00  0.00    -0.290 C  
HETATM    9  O   UNL     1     -12.028  12.679  64.053  1.00  0.00    -0.381 OA 
HETATM   10  OXT UNL     1     -13.118  13.998  65.449  1.00  0.00    -0.763 OA 
HETATM   11  CA  UNL     1      -9.134  10.119  66.335  1.00  0.00    -0.152 C  
HETATM   12  O   UNL     1     -10.050  11.063  64.117  1.00  0.00    -0.287 OA 
ENDROOT
BRANCH  11  13
HETATM   13  N   UNL     1      -7.743  10.711  66.300  1.00  0.00    -0.139 N  
HETATM   14  C   UNL     1      -7.102  11.808  66.896  1.00  0.00    -0.097 C  
HETATM   15  H   UNL     1      -7.115  10.182  65.694  1.00  0.00     0.000 HD 
HETATM   16  O   UNL     1      -5.943  12.040  66.553  1.00  0.00    -0.198 OA 
BRANCH  14  17
HETATM   17  C   UNL     1      -7.690  12.601  68.052  1.00  0.00    -0.139 C  
BRANCH  17  18
HETATM   18  C   UNL     1      -8.295  13.925  67.845  1.00  0.00    -0.167 A  
HETATM   19  N   UNL     1      -8.638  14.723  68.931  1.00  0.00    -0.172 NA 
HETATM   20  C   UNL     1      -8.848  14.361  66.644  1.00  0.00    -0.159 A  
HETATM   21  N   UNL     1     -10.268  16.270  69.511  1.00  0.00    -0.262 NA 
HETATM   22  H2  UNL     1     -11.016  16.887  69.196  1.00  0.00     0.000 HD 
HETATM   23  S   UNL     1      -9.925  15.668  66.927  1.00  0.00    -0.255 SA 
HETATM   24  H1  UNL     1     -10.065  16.209  70.509  1.00  0.00     0.000 HD 
HETATM   25  C   UNL     1      -9.583  15.565  68.604  1.00  0.00    -0.203 A  
ENDBRANCH  17  18
BRANCH  17  26
HETATM   26  N   UNL     1      -7.521  12.369  69.326  1.00  0.00    -0.323 NA 
HETATM   27  H   UNL     1      -8.350  12.385  69.920  1.00  0.00     0.000 HD 
BRANCH  26  28
HETATM   28  O   UNL     1      -6.293  12.101  69.941  1.00  0.00    -0.136 OA 
HETATM   29  C   UNL     1      -5.559  13.149  70.536  1.00  0.00    -0.175 C  
ENDBRANCH  26  28
ENDBRANCH  17  26
ENDBRANCH  14  17
ENDBRANCH  11  13
TORSDOF 5
ENDMDL
MODEL      107
REMARK 921   NORMALIZED FREE ENERGY PREDICTED BY IDOCK:   -5.39 KCAL/MOL
REMARK 922        TOTAL FREE ENERGY PREDICTED BY IDOCK:   -7.72 KCAL/MOL
REMARK 923 INTER-LIGAND FREE ENERGY PREDICTED BY IDOCK:   -6.84 KCAL/MOL
REMARK 924 INTRA-LIGAND FREE ENERGY PREDICTED BY IDOCK:   -0.88 KCAL/MOL
REMARK 927      BINDING AFFINITY PREDICTED BY RF-SCORE:    0.00 PKD
ROOT
HETATM    1  CE  UNL     1     -11.543  11.660  67.177  1.00  0.00    -0.212 C  
HETATM    2  SD  UNL     1     -11.442  12.647  68.630  1.00  0.00    -0.331 SA 
HETATM    3  CG  UNL     1     -11.802  14.324  68.020  1.00  0.00    -0.344 C  
HETATM    4  CB  UNL     1     -12.117  14.472  66.574  1.00  0.00    -0.330 C  
HETATM    5  CA  UNL     1     -12.008  13.552  65.602  1.00  0.00    -0.397 C  
HETATM    6  N   UNL     1     -11.560  12.297  65.903  1.00  0.00    -0.385 N  
HETATM    7  C   UNL     1     -12.276  14.023  64.205  1.00  0.00    -0.418 C  
HETATM    8  C   UNL     1     -11.024  11.256  65.206  1.00  0.00    -0.137 C  
HETATM    9  O   UNL     1     -12.124  13.169  63.207  1.00  0.00    -0.563 OA 
HETATM   10  OXT UNL     1     -12.648  15.175  63.966  1.00  0.00    -0.791 OA 
HETATM   11  CA  UNL     1     -10.455  10.675  66.543  1.00  0.00    -0.224 C  
HETATM   12  O   UNL     1     -10.912  11.079  64.038  1.00  0.00    -0.313 OA 
ENDROOT
BRANCH  11  13
HETATM   13  N   UNL     1      -8.943  10.686  66.524  1.00  0.00    -0.153 N  
HETATM   14  C   UNL     1      -7.924   9.990  67.193  1.00  0.00    -0.109 C  
HETATM   15  H   UNL     1      -8.572  11.367  65.862  1.00  0.00     0.000 HD 
HETATM   16  O   UNL     1      -6.765  10.341  66.977  1.00  0.00    -0.075 OA 
BRANCH  14  17
HETATM   17  C   UNL     1      -8.163   8.734  68.016  1.00  0.00    -0.118 C  
BRANCH  17  18
HETATM   18  C   UNL     1      -8.494   7.451  67.378  1.00  0.00    -0.119 A  
HETATM   19  N   UNL     1      -9.690   7.294  66.686  1.00  0.00    -0.195 NA 
HETATM   20  C   UNL     1      -7.850   6.246  67.647  1.00  0.00    -0.106 A  
HETATM   21  N   UNL     1     -11.258   5.634  66.271  1.00  0.00    -0.749 NA 
HETATM   22  H2  UNL     1     -11.481   4.639  66.294  1.00  0.00     0.000 HD 
HETATM   23  S   UNL     1      -8.840   4.926  67.174  1.00  0.00    -0.106 SA 
HETATM   24  H1  UNL     1     -11.971   6.293  65.959  1.00  0.00     0.000 HD 
HETATM   25  C   UNL     1     -10.039   6.035  66.650  1.00  0.00    -0.174 A  
ENDBRANCH  17  18
BRANCH  17  26
HETATM   26  N   UNL     1      -8.359   8.668  69.305  1.00  0.00    -0.117 NA 
HETATM   27  H   UNL     1      -7.570   8.382  69.886  1.00  0.00     0.000 HD 
BRANCH  26  28
HETATM   28  O   UNL     1      -9.565   8.958  69.953  1.00  0.00    -0.168 OA 
HETATM   29  C   UNL     1     -10.314   7.921  70.547  1.00  0.00    -0.205 C  
ENDBRANCH  26  28
ENDBRANCH  17  26
ENDBRANCH  14  17
ENDBRANCH  11  13
TORSDOF 5
ENDMDL
MODEL      108
REMARK 921   NORMALIZED FREE ENERGY PREDICTED BY IDOCK:   -5.37 KCAL/MOL
REMARK 922        TOTAL FREE ENERGY PREDICTED BY IDOCK:   -7.70 KCAL/MOL
REMARK 923 INTER-LIGAND FREE ENERGY PREDICTED BY IDOCK:   -6.69 KCAL/MOL
REMARK 924 INTRA-LIGAND FREE ENERGY PREDICTED BY IDOCK:   -1.02 KCAL/MOL
REMARK 927      BINDING AFFINITY PREDICTED BY RF-SCORE:    0.00 PKD
ROOT
HETATM    1  CE  UNL     1      -9.560   8.381  69.823  1.00  0.00    -0.170 C  
HETATM    2  SD  UNL     1      -8.446   7.676  70.987  1.00  0.00    -0.117 SA 
HETATM    3  CG  UNL     1      -9.400   7.690  72.537  1.00  0.00    -0.163 C  
HETATM    4  CB  UNL     1     -10.795   8.204  72.476  1.00  0.00    -0.431 C  
HETATM    5  CA  UNL     1     -11.407   8.826  71.455  1.00  0.00    -0.304 C  
HETATM    6  N   UNL     1     -10.727   9.049  70.292  1.00  0.00    -0.221 N  
HETATM    7  C   UNL     1     -12.784   9.350  71.724  1.00  0.00    -0.390 C  
HETATM    8  C   UNL     1     -10.863   9.884  69.223  1.00  0.00    -0.227 C  
HETATM    9  O   UNL     1     -13.405  10.023  70.769  1.00  0.00    -0.350 OA 
HETATM   10  OXT UNL     1     -13.356   9.159  72.800  1.00  0.00    -0.410 OA 
HETATM   11  CA  UNL     1      -9.359   9.646  68.865  1.00  0.00    -0.151 C  
HETATM   12  O   UNL     1     -11.750  10.609  68.913  1.00  0.00    -0.272 OA 
ENDROOT
BRANCH  11  13
HETATM   13  N   UNL     1      -8.571  10.929  69.006  1.00  0.00    -0.292 N  
HETATM   14  C   UNL     1      -8.193  11.975  68.151  1.00  0.00    -0.163 C  
HETATM   15  H   UNL     1      -8.232  11.068  69.958  1.00  0.00     0.000 HD 
HETATM   16  O   UNL     1      -7.451  12.841  68.613  1.00  0.00    -0.116 OA 
BRANCH  14  17
HETATM   17  C   UNL     1      -8.784  12.186  66.766  1.00  0.00    -0.183 C  
BRANCH  17  18
HETATM   18  C   UNL     1      -9.995  12.997  66.565  1.00  0.00    -0.262 A  
HETATM   19  N   UNL     1     -10.400  13.913  67.529  1.00  0.00    -0.244 NA 
HETATM   20  C   UNL     1     -10.974  12.729  65.612  1.00  0.00    -0.273 A  
HETATM   21  N   UNL     1     -12.373  14.775  68.393  1.00  0.00    -0.593 NA 
HETATM   22  H2  UNL     1     -13.381  14.890  68.282  1.00  0.00     0.000 HD 
HETATM   23  S   UNL     1     -12.444  13.506  66.039  1.00  0.00    -0.351 SA 
HETATM   24  H1  UNL     1     -11.922  15.151  69.227  1.00  0.00     0.000 HD 
HETATM   25  C   UNL     1     -11.685  14.136  67.441  1.00  0.00    -0.391 A  
ENDBRANCH  17  18
BRANCH  17  26
HETATM   26  N   UNL     1      -8.493  11.522  65.681  1.00  0.00    -0.379 NA 
HETATM   27  H   UNL     1      -9.138  11.602  64.894  1.00  0.00     0.000 HD 
BRANCH  26  28
HETATM   28  O   UNL     1      -7.366  10.709  65.511  1.00  0.00    -0.135 OA 
HETATM   29  C   UNL     1      -7.524   9.339  65.210  1.00  0.00    -0.098 C  
ENDBRANCH  26  28
ENDBRANCH  17  26
ENDBRANCH  14  17
ENDBRANCH  11  13
TORSDOF 5
ENDMDL
MODEL      109
REMARK 921   NORMALIZED FREE ENERGY PREDICTED BY IDOCK:   -5.35 KCAL/MOL
REMARK 922        TOTAL FREE ENERGY PREDICTED BY IDOCK:   -7.68 KCAL/MOL
REMARK 923 INTER-LIGAND FREE ENERGY PREDICTED BY IDOCK:   -6.98 KCAL/MOL
REMARK 924 INTRA-LIGAND FREE ENERGY PREDICTED BY IDOCK:   -0.70 KCAL/MOL
REMARK 927      BINDING AFFINITY PREDICTED BY RF-SCORE:    0.00 PKD
ROOT
HETATM    1  CE  UNL     1     -11.752  13.357  70.236  1.00  0.00    -0.159 C  
HETATM    2  SD  UNL     1     -12.826  14.660  70.733  1.00  0.00    -0.349 SA 
HETATM    3  CG  UNL     1     -13.997  13.831  71.852  1.00  0.00    -0.378 C  
HETATM    4  CB  UNL     1     -13.783  12.382  72.114  1.00  0.00    -0.271 C  
HETATM    5  CA  UNL     1     -12.932  11.544  71.499  1.00  0.00    -0.380 C  
HETATM    6  N   UNL     1     -12.128  12.009  70.497  1.00  0.00    -0.364 N  
HETATM    7  C   UNL     1     -13.024  10.099  71.885  1.00  0.00    -0.447 C  
HETATM    8  C   UNL     1     -11.426  11.455  69.469  1.00  0.00    -0.312 C  
HETATM    9  O   UNL     1     -12.248   9.226  71.264  1.00  0.00    -0.307 OA 
HETATM   10  OXT UNL     1     -13.787   9.709  72.772  1.00  0.00    -0.224 OA 
HETATM   11  CA  UNL     1     -11.386  12.852  68.764  1.00  0.00    -0.290 C  
HETATM   12  O   UNL     1     -11.186  10.321  69.215  1.00  0.00    -0.231 OA 
ENDROOT
BRANCH  11  13
HETATM   13  N   UNL     1     -12.161  12.812  67.467  1.00  0.00    -0.261 N  
HETATM   14  C   UNL     1     -11.854  12.566  66.120  1.00  0.00    -0.397 C  
HETATM   15  H   UNL     1     -13.151  13.014  67.604  1.00  0.00     0.000 HD 
HETATM   16  O   UNL     1     -12.759  12.713  65.299  1.00  0.00    -0.652 OA 
BRANCH  14  17
HETATM   17  C   UNL     1     -10.538  11.965  65.652  1.00  0.00    -0.268 C  
BRANCH  17  18
HETATM   18  C   UNL     1      -9.959  10.782  66.309  1.00  0.00    -0.222 A  
HETATM   19  N   UNL     1      -8.666  10.821  66.821  1.00  0.00    -0.141 NA 
HETATM   20  C   UNL     1     -10.475   9.494  66.213  1.00  0.00    -0.067 A  
HETATM   21  N   UNL     1      -6.857   9.394  67.095  1.00  0.00    -0.083 NA 
HETATM   22  H2  UNL     1      -6.515   8.433  67.097  1.00  0.00     0.000 HD 
HETATM   23  S   UNL     1      -9.268   8.340  66.609  1.00  0.00    -0.192 SA 
HETATM   24  H1  UNL     1      -6.197  10.154  67.256  1.00  0.00     0.000 HD 
HETATM   25  C   UNL     1      -8.159   9.618  66.880  1.00  0.00    -0.113 A  
ENDBRANCH  17  18
BRANCH  17  26
HETATM   26  N   UNL     1      -9.668  12.514  64.850  1.00  0.00    -0.484 NA 
HETATM   27  H   UNL     1      -8.919  13.063  65.274  1.00  0.00     0.000 HD 
BRANCH  26  28
HETATM   28  O   UNL     1      -9.680  12.411  63.454  1.00  0.00    -0.312 OA 
HETATM   29  C   UNL     1     -10.317  11.316  62.834  1.00  0.00    -0.078 C  
ENDBRANCH  26  28
ENDBRANCH  17  26
ENDBRANCH  14  17
ENDBRANCH  11  13
TORSDOF 5
ENDMDL
MODEL      110
REMARK 921   NORMALIZED FREE ENERGY PREDICTED BY IDOCK:   -5.35 KCAL/MOL
REMARK 922        TOTAL FREE ENERGY PREDICTED BY IDOCK:   -7.67 KCAL/MOL
REMARK 923 INTER-LIGAND FREE ENERGY PREDICTED BY IDOCK:   -7.10 KCAL/MOL
REMARK 924 INTRA-LIGAND FREE ENERGY PREDICTED BY IDOCK:   -0.57 KCAL/MOL
REMARK 927      BINDING AFFINITY PREDICTED BY RF-SCORE:    0.00 PKD
ROOT
HETATM    1  CE  UNL     1      -9.435   7.419  72.430  1.00  0.00    -0.152 C  
HETATM    2  SD  UNL     1      -9.303   6.920  74.112  1.00  0.00    -0.246 SA 
HETATM    3  CG  UNL     1      -9.288   5.103  74.007  1.00  0.00    -0.128 C  
HETATM    4  CB  UNL     1      -9.340   4.497  72.650  1.00  0.00    -0.154 C  
HETATM    5  CA  UNL     1      -9.569   5.108  71.475  1.00  0.00    -0.156 C  
HETATM    6  N   UNL     1      -9.790   6.455  71.444  1.00  0.00    -0.176 N  
HETATM    7  C   UNL     1      -9.692   4.219  70.275  1.00  0.00    -0.210 C  
HETATM    8  C   UNL     1     -10.354   7.334  70.569  1.00  0.00    -0.206 C  
HETATM    9  O   UNL     1      -9.976   4.768  69.106  1.00  0.00    -0.191 OA 
HETATM   10  OXT UNL     1      -9.519   3.000  70.346  1.00  0.00    -0.154 OA 
HETATM   11  CA  UNL     1     -10.524   8.363  71.736  1.00  0.00    -0.283 C  
HETATM   12  O   UNL     1     -10.716   7.190  69.448  1.00  0.00    -0.231 OA 
ENDROOT
BRANCH  11  13
HETATM   13  N   UNL     1     -11.989   8.618  72.008  1.00  0.00    -0.346 N  
HETATM   14  C   UNL     1     -12.900   9.646  71.724  1.00  0.00    -0.421 C  
HETATM   15  H   UNL     1     -12.422   7.853  72.526  1.00  0.00     0.000 HD 
HETATM   16  O   UNL     1     -14.032   9.545  72.197  1.00  0.00    -0.342 OA 
BRANCH  14  17
HETATM   17  C   UNL     1     -12.624  10.766  70.734  1.00  0.00    -0.383 C  
BRANCH  17  18
HETATM   18  C   UNL     1     -12.871  12.175  71.080  1.00  0.00    -0.217 A  
HETATM   19  N   UNL     1     -12.052  13.180  70.578  1.00  0.00    -0.346 NA 
HETATM   20  C   UNL     1     -13.687  12.599  72.125  1.00  0.00    -0.312 A  
HETATM   21  N   UNL     1     -11.205  15.234  71.247  1.00  0.00    -0.478 NA 
HETATM   22  H2  UNL     1     -11.258  16.011  71.905  1.00  0.00     0.000 HD 
HETATM   23  S   UNL     1     -13.292  14.209  72.570  1.00  0.00    -0.544 SA 
HETATM   24  H1  UNL     1     -10.485  15.247  70.525  1.00  0.00     0.000 HD 
HETATM   25  C   UNL     1     -12.081  14.229  71.357  1.00  0.00    -0.279 A  
ENDBRANCH  17  18
BRANCH  17  26
HETATM   26  N   UNL     1     -12.403  10.642  69.453  1.00  0.00    -0.663 NA 
HETATM   27  H   UNL     1     -13.217  10.617  68.837  1.00  0.00     0.000 HD 
BRANCH  26  28
HETATM   28  O   UNL     1     -11.141  10.542  68.858  1.00  0.00    -0.230 OA 
HETATM   29  C   UNL     1     -11.028  10.174  67.501  1.00  0.00    -0.255 C  
ENDBRANCH  26  28
ENDBRANCH  17  26
ENDBRANCH  14  17
ENDBRANCH  11  13
TORSDOF 5
ENDMDL
MODEL      111
REMARK 921   NORMALIZED FREE ENERGY PREDICTED BY IDOCK:   -5.34 KCAL/MOL
REMARK 922        TOTAL FREE ENERGY PREDICTED BY IDOCK:   -7.66 KCAL/MOL
REMARK 923 INTER-LIGAND FREE ENERGY PREDICTED BY IDOCK:   -7.07 KCAL/MOL
REMARK 924 INTRA-LIGAND FREE ENERGY PREDICTED BY IDOCK:   -0.59 KCAL/MOL
REMARK 927      BINDING AFFINITY PREDICTED BY RF-SCORE:    0.00 PKD
ROOT
HETATM    1  CE  UNL     1     -10.469   8.355  68.739  1.00  0.00    -0.178 C  
HETATM    2  SD  UNL     1      -9.104   7.289  68.433  1.00  0.00    -0.134 SA 
HETATM    3  CG  UNL     1      -8.809   6.514  70.053  1.00  0.00    -0.144 C  
HETATM    4  CB  UNL     1      -9.728   6.882  71.164  1.00  0.00    -0.177 C  
HETATM    5  CA  UNL     1     -10.659   7.850  71.185  1.00  0.00    -0.213 C  
HETATM    6  N   UNL     1     -10.844   8.636  70.083  1.00  0.00    -0.235 N  
HETATM    7  C   UNL     1     -11.352   8.078  72.493  1.00  0.00    -0.406 C  
HETATM    8  C   UNL     1     -11.405   9.853  69.833  1.00  0.00    -0.222 C  
HETATM    9  O   UNL     1     -12.235   9.060  72.580  1.00  0.00    -0.304 OA 
HETATM   10  OXT UNL     1     -11.135   7.369  73.479  1.00  0.00    -0.290 OA 
HETATM   11  CA  UNL     1     -10.600   9.929  68.492  1.00  0.00    -0.217 C  
HETATM   12  O   UNL     1     -12.057  10.565  70.523  1.00  0.00    -0.289 OA 
ENDROOT
BRANCH  11  13
HETATM   13  N   UNL     1      -9.603  11.065  68.537  1.00  0.00    -0.181 N  
HETATM   14  C   UNL     1      -8.974  11.889  67.591  1.00  0.00    -0.169 C  
HETATM   15  H   UNL     1      -9.318  11.288  69.491  1.00  0.00     0.000 HD 
HETATM   16  O   UNL     1      -8.123  12.675  68.004  1.00  0.00    -0.140 OA 
BRANCH  14  17
HETATM   17  C   UNL     1      -9.409  11.985  66.137  1.00  0.00    -0.211 C  
BRANCH  17  18
HETATM   18  C   UNL     1     -10.741  12.488  65.766  1.00  0.00    -0.269 A  
HETATM   19  N   UNL     1     -11.135  12.527  64.433  1.00  0.00    -0.318 NA 
HETATM   20  C   UNL     1     -11.569  13.224  66.608  1.00  0.00    -0.365 A  
HETATM   21  N   UNL     1     -12.436  13.851  63.040  1.00  0.00    -1.009 NA 
HETATM   22  H2  UNL     1     -13.141  14.584  62.966  1.00  0.00     0.000 HD 
HETATM   23  S   UNL     1     -12.730  14.091  65.689  1.00  0.00    -0.375 SA 
HETATM   24  H1  UNL     1     -12.038  13.459  62.187  1.00  0.00     0.000 HD 
HETATM   25  C   UNL     1     -12.061  13.432  64.255  1.00  0.00    -0.424 A  
ENDBRANCH  17  18
BRANCH  17  26
HETATM   26  N   UNL     1      -8.825  11.433  65.108  1.00  0.00    -0.394 NA 
HETATM   27  H   UNL     1      -8.049  11.940  64.681  1.00  0.00     0.000 HD 
BRANCH  26  28
HETATM   28  O   UNL     1      -9.179  10.203  64.544  1.00  0.00    -0.213 OA 
HETATM   29  C   UNL     1      -8.910   9.005  65.239  1.00  0.00    -0.193 C  
ENDBRANCH  26  28
ENDBRANCH  17  26
ENDBRANCH  14  17
ENDBRANCH  11  13
TORSDOF 5
ENDMDL
MODEL      112
REMARK 921   NORMALIZED FREE ENERGY PREDICTED BY IDOCK:   -5.34 KCAL/MOL
REMARK 922        TOTAL FREE ENERGY PREDICTED BY IDOCK:   -7.66 KCAL/MOL
REMARK 923 INTER-LIGAND FREE ENERGY PREDICTED BY IDOCK:   -6.95 KCAL/MOL
REMARK 924 INTRA-LIGAND FREE ENERGY PREDICTED BY IDOCK:   -0.70 KCAL/MOL
REMARK 927      BINDING AFFINITY PREDICTED BY RF-SCORE:    0.00 PKD
ROOT
HETATM    1  CE  UNL     1     -11.143  10.252  70.778  1.00  0.00    -0.227 C  
HETATM    2  SD  UNL     1     -12.902  10.271  70.733  1.00  0.00    -0.299 SA 
HETATM    3  CG  UNL     1     -13.362   8.952  71.900  1.00  0.00    -0.405 C  
HETATM    4  CB  UNL     1     -12.258   8.245  72.603  1.00  0.00    -0.293 C  
HETATM    5  CA  UNL     1     -10.937   8.330  72.370  1.00  0.00    -0.368 C  
HETATM    6  N   UNL     1     -10.474   9.149  71.380  1.00  0.00    -0.323 N  
HETATM    7  C   UNL     1     -10.062   7.400  73.154  1.00  0.00    -0.291 C  
HETATM    8  C   UNL     1      -9.325   9.254  70.654  1.00  0.00    -0.270 C  
HETATM    9  O   UNL     1      -8.761   7.403  72.917  1.00  0.00    -0.119 OA 
HETATM   10  OXT UNL     1     -10.519   6.648  74.018  1.00  0.00    -0.346 OA 
HETATM   11  CA  UNL     1     -10.100  10.084  69.577  1.00  0.00    -0.227 C  
HETATM   12  O   UNL     1      -8.276   8.713  70.778  1.00  0.00    -0.114 OA 
ENDROOT
BRANCH  11  13
HETATM   13  N   UNL     1     -10.153   9.332  68.266  1.00  0.00    -0.177 N  
HETATM   14  C   UNL     1     -10.008   9.663  66.911  1.00  0.00    -0.212 C  
HETATM   15  H   UNL     1     -10.339   8.338  68.401  1.00  0.00     0.000 HD 
HETATM   16  O   UNL     1     -10.211   8.773  66.087  1.00  0.00    -0.233 OA 
BRANCH  14  17
HETATM   17  C   UNL     1      -9.450  10.992  66.424  1.00  0.00    -0.193 C  
BRANCH  17  18
HETATM   18  C   UNL     1     -10.332  12.132  66.128  1.00  0.00    -0.234 A  
HETATM   19  N   UNL     1     -10.607  13.084  67.103  1.00  0.00    -0.245 NA 
HETATM   20  C   UNL     1     -11.182  12.207  65.028  1.00  0.00    -0.322 A  
HETATM   21  N   UNL     1     -12.364  14.452  67.755  1.00  0.00    -0.603 NA 
HETATM   22  H2  UNL     1     -13.266  14.864  67.515  1.00  0.00     0.000 HD 
HETATM   23  S   UNL     1     -12.418  13.363  65.312  1.00  0.00    -0.471 SA 
HETATM   24  H1  UNL     1     -11.963  14.641  68.674  1.00  0.00     0.000 HD 
HETATM   25  C   UNL     1     -11.744  13.680  66.856  1.00  0.00    -0.389 A  
ENDBRANCH  17  18
BRANCH  17  26
HETATM   26  N   UNL     1      -8.245  11.217  65.977  1.00  0.00    -0.338 NA 
HETATM   27  H   UNL     1      -8.152  11.828  65.164  1.00  0.00     0.000 HD 
BRANCH  26  28
HETATM   28  O   UNL     1      -7.070  10.690  66.524  1.00  0.00    -0.117 OA 
HETATM   29  C   UNL     1      -5.880  10.685  65.766  1.00  0.00    -0.138 C  
ENDBRANCH  26  28
ENDBRANCH  17  26
ENDBRANCH  14  17
ENDBRANCH  11  13
TORSDOF 5
ENDMDL
MODEL      113
REMARK 921   NORMALIZED FREE ENERGY PREDICTED BY IDOCK:   -5.33 KCAL/MOL
REMARK 922        TOTAL FREE ENERGY PREDICTED BY IDOCK:   -7.65 KCAL/MOL
REMARK 923 INTER-LIGAND FREE ENERGY PREDICTED BY IDOCK:   -6.75 KCAL/MOL
REMARK 924 INTRA-LIGAND FREE ENERGY PREDICTED BY IDOCK:   -0.90 KCAL/MOL
REMARK 927      BINDING AFFINITY PREDICTED BY RF-SCORE:    0.00 PKD
ROOT
HETATM    1  CE  UNL     1     -10.779   7.153  67.231  1.00  0.00    -0.329 C  
HETATM    2  SD  UNL     1     -10.050   5.684  66.593  1.00  0.00    -0.209 SA 
HETATM    3  CG  UNL     1      -9.618   4.748  68.093  1.00  0.00    -0.148 C  
HETATM    4  CB  UNL     1      -9.982   5.352  69.403  1.00  0.00    -0.280 C  
HETATM    5  CA  UNL     1     -10.442   6.590  69.648  1.00  0.00    -0.216 C  
HETATM    6  N   UNL     1     -10.627   7.461  68.613  1.00  0.00    -0.185 N  
HETATM    7  C   UNL     1     -10.603   6.968  71.089  1.00  0.00    -0.217 C  
HETATM    8  C   UNL     1     -10.745   8.812  68.480  1.00  0.00    -0.060 C  
HETATM    9  O   UNL     1     -10.997   8.196  71.382  1.00  0.00    -0.228 OA 
HETATM   10  OXT UNL     1     -10.394   6.164  72.001  1.00  0.00    -0.193 OA 
HETATM   11  CA  UNL     1     -10.383   8.679  66.963  1.00  0.00    -0.298 C  
HETATM   12  O   UNL     1     -10.864   9.665  69.296  1.00  0.00    -0.224 OA 
ENDROOT
BRANCH  11  13
HETATM   13  N   UNL     1      -9.068   9.365  66.671  1.00  0.00    -0.145 N  
HETATM   14  C   UNL     1      -8.672  10.650  66.270  1.00  0.00    -0.156 C  
HETATM   15  H   UNL     1      -8.272   8.740  66.796  1.00  0.00     0.000 HD 
HETATM   16  O   UNL     1      -7.477  10.826  66.036  1.00  0.00    -0.149 OA 
BRANCH  14  17
HETATM   17  C   UNL     1      -9.596  11.858  66.282  1.00  0.00    -0.229 C  
BRANCH  17  18
HETATM   18  C   UNL     1     -10.411  12.212  65.109  1.00  0.00    -0.279 A  
HETATM   19  N   UNL     1     -10.756  13.536  64.863  1.00  0.00    -0.357 NA 
HETATM   20  C   UNL     1     -11.143  11.301  64.353  1.00  0.00    -0.203 A  
HETATM   21  N   UNL     1     -12.532  14.737  63.974  1.00  0.00    -1.000 NA 
HETATM   22  H2  UNL     1     -13.392  14.718  63.427  1.00  0.00     0.000 HD 
HETATM   23  S   UNL     1     -12.369  12.114  63.469  1.00  0.00    -0.509 SA 
HETATM   24  H1  UNL     1     -12.220  15.622  64.375  1.00  0.00     0.000 HD 
HETATM   25  C   UNL     1     -11.845  13.601  64.143  1.00  0.00    -0.422 A  
ENDBRANCH  17  18
BRANCH  17  26
HETATM   26  N   UNL     1      -9.603  12.829  67.154  1.00  0.00    -0.213 NA 
HETATM   27  H   UNL     1      -9.157  13.707  66.883  1.00  0.00     0.000 HD 
BRANCH  26  28
HETATM   28  O   UNL     1     -10.172  12.763  68.431  1.00  0.00    -0.234 OA 
HETATM   29  C   UNL     1     -11.273  13.584  68.755  1.00  0.00    -0.274 C  
ENDBRANCH  26  28
ENDBRANCH  17  26
ENDBRANCH  14  17
ENDBRANCH  11  13
TORSDOF 5
ENDMDL
MODEL      114
REMARK 921   NORMALIZED FREE ENERGY PREDICTED BY IDOCK:   -5.32 KCAL/MOL
REMARK 922        TOTAL FREE ENERGY PREDICTED BY IDOCK:   -7.64 KCAL/MOL
REMARK 923 INTER-LIGAND FREE ENERGY PREDICTED BY IDOCK:   -6.29 KCAL/MOL
REMARK 924 INTRA-LIGAND FREE ENERGY PREDICTED BY IDOCK:   -1.35 KCAL/MOL
REMARK 927      BINDING AFFINITY PREDICTED BY RF-SCORE:    0.00 PKD
ROOT
HETATM    1  CE  UNL     1      -9.034   6.155  69.157  1.00  0.00    -0.126 C  
HETATM    2  SD  UNL     1      -7.359   6.692  69.191  1.00  0.00    -0.095 SA 
HETATM    3  CG  UNL     1      -7.088   7.098  70.944  1.00  0.00    -0.069 C  
HETATM    4  CB  UNL     1      -8.219   6.866  71.882  1.00  0.00    -0.104 C  
HETATM    5  CA  UNL     1      -9.491   6.551  71.587  1.00  0.00    -0.156 C  
HETATM    6  N   UNL     1      -9.869   6.407  70.283  1.00  0.00    -0.167 N  
HETATM    7  C   UNL     1     -10.449   6.504  72.738  1.00  0.00    -0.215 C  
HETATM    8  C   UNL     1     -11.046   6.426  69.597  1.00  0.00    -0.401 C  
HETATM    9  O   UNL     1     -11.725   6.257  72.491  1.00  0.00    -0.274 OA 
HETATM   10  OXT UNL     1     -10.079   6.672  73.903  1.00  0.00    -0.256 OA 
HETATM   11  CA  UNL     1     -10.253   6.695  68.275  1.00  0.00    -0.171 C  
HETATM   12  O   UNL     1     -12.169   6.438  69.982  1.00  0.00    -0.087 OA 
ENDROOT
BRANCH  11  13
HETATM   13  N   UNL     1     -10.597   8.059  67.719  1.00  0.00    -0.406 N  
HETATM   14  C   UNL     1     -10.744   9.351  68.247  1.00  0.00    -0.171 C  
HETATM   15  H   UNL     1     -10.764   8.033  66.713  1.00  0.00     0.000 HD 
HETATM   16  O   UNL     1     -11.132  10.233  67.481  1.00  0.00    -0.311 OA 
BRANCH  14  17
HETATM   17  C   UNL     1     -10.286   9.748  69.641  1.00  0.00    -0.238 C  
BRANCH  17  18
HETATM   18  C   UNL     1     -11.248  10.164  70.674  1.00  0.00    -0.340 A  
HETATM   19  N   UNL     1     -11.635   9.281  71.676  1.00  0.00    -0.372 NA 
HETATM   20  C   UNL     1     -12.061  11.291  70.588  1.00  0.00    -0.383 A  
HETATM   21  N   UNL     1     -13.520   8.796  72.938  1.00  0.00    -0.866 NA 
HETATM   22  H2  UNL     1     -14.444   9.096  73.252  1.00  0.00     0.000 HD 
HETATM   23  S   UNL     1     -13.397  11.141  71.654  1.00  0.00    -0.091 SA 
HETATM   24  H1  UNL     1     -13.169   7.886  73.234  1.00  0.00     0.000 HD 
HETATM   25  C   UNL     1     -12.807   9.610  72.151  1.00  0.00    -0.375 A  
ENDBRANCH  17  18
BRANCH  17  26
HETATM   26  N   UNL     1      -9.066  10.017  70.017  1.00  0.00    -0.375 NA 
HETATM   27  H   UNL     1      -8.870  10.006  71.019  1.00  0.00     0.000 HD 
BRANCH  26  28
HETATM   28  O   UNL     1      -8.005  10.319  69.156  1.00  0.00    -0.112 OA 
HETATM   29  C   UNL     1      -6.798  10.832  69.678  1.00  0.00    -0.133 C  
ENDBRANCH  26  28
ENDBRANCH  17  26
ENDBRANCH  14  17
ENDBRANCH  11  13
TORSDOF 5
ENDMDL
MODEL      115
REMARK 921   NORMALIZED FREE ENERGY PREDICTED BY IDOCK:   -5.31 KCAL/MOL
REMARK 922        TOTAL FREE ENERGY PREDICTED BY IDOCK:   -7.62 KCAL/MOL
REMARK 923 INTER-LIGAND FREE ENERGY PREDICTED BY IDOCK:   -7.02 KCAL/MOL
REMARK 924 INTRA-LIGAND FREE ENERGY PREDICTED BY IDOCK:   -0.61 KCAL/MOL
REMARK 927      BINDING AFFINITY PREDICTED BY RF-SCORE:    0.00 PKD
ROOT
HETATM    1  CE  UNL     1      -9.452  17.264  66.920  1.00  0.00    -0.257 C  
HETATM    2  SD  UNL     1     -10.546  18.281  65.990  1.00  0.00    -0.155 SA 
HETATM    3  CG  UNL     1      -9.742  19.913  66.041  1.00  0.00    -0.375 C  
HETATM    4  CB  UNL     1      -8.438  20.010  66.751  1.00  0.00    -0.380 C  
HETATM    5  CA  UNL     1      -7.839  19.084  67.518  1.00  0.00    -0.240 C  
HETATM    6  N   UNL     1      -8.442  17.875  67.716  1.00  0.00    -0.238 N  
HETATM    7  C   UNL     1      -6.582  19.508  68.215  1.00  0.00    -0.261 C  
HETATM    8  C   UNL     1      -8.338  16.867  68.628  1.00  0.00    -0.261 C  
HETATM    9  O   UNL     1      -5.988  18.651  69.028  1.00  0.00    -0.213 OA 
HETATM   10  OXT UNL     1      -6.083  20.622  68.038  1.00  0.00    -0.251 OA 
HETATM   11  CA  UNL     1      -9.755  16.357  68.202  1.00  0.00    -0.229 C  
HETATM   12  O   UNL     1      -7.545  16.679  69.491  1.00  0.00    -0.124 OA 
ENDROOT
BRANCH  11  13
HETATM   13  N   UNL     1     -10.732  16.488  69.348  1.00  0.00    -0.318 N  
HETATM   14  C   UNL     1     -11.605  15.626  70.028  1.00  0.00    -0.350 C  
HETATM   15  H   UNL     1     -10.764  17.438  69.718  1.00  0.00     0.000 HD 
HETATM   16  O   UNL     1     -12.337  16.123  70.883  1.00  0.00    -0.290 OA 
BRANCH  14  17
HETATM   17  C   UNL     1     -11.567  14.111  69.894  1.00  0.00    -0.264 C  
BRANCH  17  18
HETATM   18  C   UNL     1     -11.407  13.462  68.583  1.00  0.00    -0.286 A  
HETATM   19  N   UNL     1     -10.330  12.614  68.342  1.00  0.00    -0.233 NA 
HETATM   20  C   UNL     1     -12.079  13.843  67.426  1.00  0.00    -0.345 A  
HETATM   21  N   UNL     1      -8.940  12.022  66.581  1.00  0.00    -0.204 NA 
HETATM   22  H2  UNL     1      -8.777  12.037  65.575  1.00  0.00     0.000 HD 
HETATM   23  S   UNL     1     -11.247  13.267  66.040  1.00  0.00    -0.303 SA 
HETATM   24  H1  UNL     1      -8.239  11.600  67.190  1.00  0.00     0.000 HD 
HETATM   25  C   UNL     1     -10.068  12.558  67.063  1.00  0.00    -0.216 A  
ENDBRANCH  17  18
BRANCH  17  26
HETATM   26  N   UNL     1     -11.911  13.237  70.799  1.00  0.00    -0.490 NA 
HETATM   27  H   UNL     1     -11.161  12.743  71.284  1.00  0.00     0.000 HD 
BRANCH  26  28
HETATM   28  O   UNL     1     -13.226  12.922  71.158  1.00  0.00    -0.156 OA 
HETATM   29  C   UNL     1     -13.723  13.301  72.423  1.00  0.00    -0.578 C  
ENDBRANCH  26  28
ENDBRANCH  17  26
ENDBRANCH  14  17
ENDBRANCH  11  13
TORSDOF 5
ENDMDL
MODEL      116
REMARK 921   NORMALIZED FREE ENERGY PREDICTED BY IDOCK:   -5.28 KCAL/MOL
REMARK 922        TOTAL FREE ENERGY PREDICTED BY IDOCK:   -7.59 KCAL/MOL
REMARK 923 INTER-LIGAND FREE ENERGY PREDICTED BY IDOCK:   -6.77 KCAL/MOL
REMARK 924 INTRA-LIGAND FREE ENERGY PREDICTED BY IDOCK:   -0.82 KCAL/MOL
REMARK 927      BINDING AFFINITY PREDICTED BY RF-SCORE:    0.00 PKD
ROOT
HETATM    1  CE  UNL     1      -9.194  10.152  67.690  1.00  0.00    -0.141 C  
HETATM    2  SD  UNL     1      -8.122   9.053  66.832  1.00  0.00    -0.112 SA 
HETATM    3  CG  UNL     1      -8.613   9.265  65.092  1.00  0.00    -0.172 C  
HETATM    4  CB  UNL     1      -9.680  10.260  64.800  1.00  0.00    -0.397 C  
HETATM    5  CA  UNL     1     -10.465  10.916  65.671  1.00  0.00    -0.208 C  
HETATM    6  N   UNL     1     -10.323  10.695  67.011  1.00  0.00    -0.220 N  
HETATM    7  C   UNL     1     -11.547  11.767  65.081  1.00  0.00    -0.145 C  
HETATM    8  C   UNL     1     -11.089  10.886  68.121  1.00  0.00    -0.280 C  
HETATM    9  O   UNL     1     -12.383  12.386  65.898  1.00  0.00    -0.638 OA 
HETATM   10  OXT UNL     1     -11.668  11.918  63.862  1.00  0.00    -0.403 OA 
HETATM   11  CA  UNL     1     -10.205   9.850  68.891  1.00  0.00    -0.196 C  
HETATM   12  O   UNL     1     -12.115  11.465  68.266  1.00  0.00    -0.606 OA 
ENDROOT
BRANCH  11  13
HETATM   13  N   UNL     1     -11.022   8.634  69.269  1.00  0.00    -0.427 N  
HETATM   14  C   UNL     1     -10.868   7.245  69.153  1.00  0.00    -0.136 C  
HETATM   15  H   UNL     1     -11.902   8.887  69.719  1.00  0.00     0.000 HD 
HETATM   16  O   UNL     1     -11.813   6.540  69.505  1.00  0.00    -0.266 OA 
BRANCH  14  17
HETATM   17  C   UNL     1      -9.554   6.570  68.791  1.00  0.00    -0.126 C  
BRANCH  17  18
HETATM   18  C   UNL     1      -9.451   5.658  67.641  1.00  0.00    -0.115 A  
HETATM   19  N   UNL     1     -10.336   5.764  66.574  1.00  0.00    -0.219 NA 
HETATM   20  C   UNL     1      -8.722   4.473  67.638  1.00  0.00    -0.104 A  
HETATM   21  N   UNL     1     -11.394   4.377  65.044  1.00  0.00    -1.102 NA 
HETATM   22  H2  UNL     1     -11.440   3.456  64.610  1.00  0.00     0.000 HD 
HETATM   23  S   UNL     1      -9.280   3.437  66.388  1.00  0.00    -0.145 SA 
HETATM   24  H1  UNL     1     -12.081   5.083  64.780  1.00  0.00     0.000 HD 
HETATM   25  C   UNL     1     -10.435   4.623  65.944  1.00  0.00    -0.268 A  
ENDBRANCH  17  18
BRANCH  17  26
HETATM   26  N   UNL     1      -8.484   6.492  69.535  1.00  0.00    -0.130 NA 
HETATM   27  H   UNL     1      -7.597   6.312  69.063  1.00  0.00     0.000 HD 
BRANCH  26  28
HETATM   28  O   UNL     1      -8.457   6.634  70.927  1.00  0.00    -0.131 OA 
HETATM   29  C   UNL     1      -7.222   6.698  71.605  1.00  0.00    -0.085 C  
ENDBRANCH  26  28
ENDBRANCH  17  26
ENDBRANCH  14  17
ENDBRANCH  11  13
TORSDOF 5
ENDMDL
MODEL      117
REMARK 921   NORMALIZED FREE ENERGY PREDICTED BY IDOCK:   -5.26 KCAL/MOL
REMARK 922        TOTAL FREE ENERGY PREDICTED BY IDOCK:   -7.55 KCAL/MOL
REMARK 923 INTER-LIGAND FREE ENERGY PREDICTED BY IDOCK:   -6.98 KCAL/MOL
REMARK 924 INTRA-LIGAND FREE ENERGY PREDICTED BY IDOCK:   -0.57 KCAL/MOL
REMARK 927      BINDING AFFINITY PREDICTED BY RF-SCORE:    0.00 PKD
ROOT
HETATM    1  CE  UNL     1     -11.183  15.357  71.553  1.00  0.00    -0.336 C  
HETATM    2  SD  UNL     1     -12.402  16.030  72.628  1.00  0.00    -0.515 SA 
HETATM    3  CG  UNL     1     -13.697  14.752  72.642  1.00  0.00    -0.444 C  
HETATM    4  CB  UNL     1     -13.445  13.516  71.853  1.00  0.00    -0.528 C  
HETATM    5  CA  UNL     1     -12.452  13.276  70.980  1.00  0.00    -0.336 C  
HETATM    6  N   UNL     1     -11.517  14.240  70.736  1.00  0.00    -0.116 N  
HETATM    7  C   UNL     1     -12.523  11.980  70.231  1.00  0.00    -0.099 C  
HETATM    8  C   UNL     1     -10.615  14.501  69.748  1.00  0.00     0.014 C  
HETATM    9  O   UNL     1     -11.601  11.724  69.318  1.00  0.00    -0.264 OA 
HETATM   10  OXT UNL     1     -13.403  11.145  70.454  1.00  0.00     0.190 OA 
HETATM   11  CA  UNL     1     -10.538  15.987  70.233  1.00  0.00    -0.197 C  
HETATM   12  O   UNL     1     -10.268  13.846  68.821  1.00  0.00    -0.233 OA 
ENDROOT
BRANCH  11  13
HETATM   13  N   UNL     1     -11.073  16.919  69.169  1.00  0.00    -0.274 N  
HETATM   14  C   UNL     1     -10.661  17.329  67.892  1.00  0.00    -0.384 C  
HETATM   15  H   UNL     1     -11.950  17.358  69.449  1.00  0.00     0.000 HD 
HETATM   16  O   UNL     1     -11.328  18.201  67.336  1.00  0.00     0.127 OA 
BRANCH  14  17
HETATM   17  C   UNL     1      -9.560  16.640  67.101  1.00  0.00    -0.241 C  
BRANCH  17  18
HETATM   18  C   UNL     1      -9.872  15.719  65.996  1.00  0.00    -0.337 A  
HETATM   19  N   UNL     1     -10.900  16.008  65.105  1.00  0.00    -0.469 NA 
HETATM   20  C   UNL     1      -9.424  14.404  65.915  1.00  0.00    -0.154 A  
HETATM   21  N   UNL     1     -12.498  14.872  63.863  1.00  0.00    -1.056 NA 
HETATM   22  H2  UNL     1     -12.818  13.980  63.488  1.00  0.00     0.000 HD 
HETATM   23  S   UNL     1     -10.415  13.506  64.839  1.00  0.00    -0.399 SA 
HETATM   24  H1  UNL     1     -13.058  15.708  63.696  1.00  0.00     0.000 HD 
HETATM   25  C   UNL     1     -11.356  14.911  64.559  1.00  0.00    -0.300 A  
ENDBRANCH  17  18
BRANCH  17  26
HETATM   26  N   UNL     1      -8.299  16.556  67.425  1.00  0.00    -0.166 NA 
HETATM   27  H   UNL     1      -7.944  15.637  67.695  1.00  0.00     0.000 HD 
BRANCH  26  28
HETATM   28  O   UNL     1      -7.395  17.623  67.431  1.00  0.00    -0.180 OA 
HETATM   29  C   UNL     1      -7.227  18.398  68.598  1.00  0.00    -0.286 C  
ENDBRANCH  26  28
ENDBRANCH  17  26
ENDBRANCH  14  17
ENDBRANCH  11  13
TORSDOF 5
ENDMDL
MODEL      118
REMARK 921   NORMALIZED FREE ENERGY PREDICTED BY IDOCK:   -5.25 KCAL/MOL
REMARK 922        TOTAL FREE ENERGY PREDICTED BY IDOCK:   -7.54 KCAL/MOL
REMARK 923 INTER-LIGAND FREE ENERGY PREDICTED BY IDOCK:   -6.62 KCAL/MOL
REMARK 924 INTRA-LIGAND FREE ENERGY PREDICTED BY IDOCK:   -0.92 KCAL/MOL
REMARK 927      BINDING AFFINITY PREDICTED BY RF-SCORE:    0.00 PKD
ROOT
HETATM    1  CE  UNL     1      -8.792   8.553  68.261  1.00  0.00    -0.142 C  
HETATM    2  SD  UNL     1      -7.839   9.008  69.668  1.00  0.00    -0.094 SA 
HETATM    3  CG  UNL     1      -7.618   7.431  70.548  1.00  0.00    -0.087 C  
HETATM    4  CB  UNL     1      -8.197   6.212  69.922  1.00  0.00    -0.120 C  
HETATM    5  CA  UNL     1      -9.019   6.133  68.863  1.00  0.00    -0.124 C  
HETATM    6  N   UNL     1      -9.417   7.274  68.228  1.00  0.00    -0.141 N  
HETATM    7  C   UNL     1      -9.548   4.771  68.530  1.00  0.00    -0.156 C  
HETATM    8  C   UNL     1     -10.436   7.625  67.393  1.00  0.00    -0.297 C  
HETATM    9  O   UNL     1     -10.408   4.651  67.533  1.00  0.00    -0.072 OA 
HETATM   10  OXT UNL     1      -9.192   3.764  69.148  1.00  0.00    -0.131 OA 
HETATM   11  CA  UNL     1     -10.198   9.128  67.760  1.00  0.00    -0.224 C  
HETATM   12  O   UNL     1     -11.244   6.962  66.832  1.00  0.00    -0.353 OA 
ENDROOT
BRANCH  11  13
HETATM   13  N   UNL     1     -11.398   9.691  68.488  1.00  0.00    -0.491 N  
HETATM   14  C   UNL     1     -11.880  10.973  68.790  1.00  0.00    -0.282 C  
HETATM   15  H   UNL     1     -12.008   8.957  68.848  1.00  0.00     0.000 HD 
HETATM   16  O   UNL     1     -12.881  11.048  69.502  1.00  0.00    -0.188 OA 
BRANCH  14  17
HETATM   17  C   UNL     1     -11.347  12.245  68.149  1.00  0.00    -0.295 C  
BRANCH  17  18
HETATM   18  C   UNL     1     -11.865  12.729  66.860  1.00  0.00    -0.371 A  
HETATM   19  N   UNL     1     -11.910  11.886  65.755  1.00  0.00    -0.421 NA 
HETATM   20  C   UNL     1     -12.050  14.070  66.537  1.00  0.00    -0.459 A  
HETATM   21  N   UNL     1     -11.676  12.019  63.450  1.00  0.00    -0.677 NA 
HETATM   22  H2  UNL     1     -11.641  12.616  62.625  1.00  0.00     0.000 HD 
HETATM   23  S   UNL     1     -12.111  14.268  64.834  1.00  0.00    -0.450 SA 
HETATM   24  H1  UNL     1     -11.546  11.014  63.339  1.00  0.00     0.000 HD 
HETATM   25  C   UNL     1     -11.892  12.578  64.647  1.00  0.00    -0.378 A  
ENDBRANCH  17  18
BRANCH  17  26
HETATM   26  N   UNL     1     -10.263  12.893  68.479  1.00  0.00    -0.302 NA 
HETATM   27  H   UNL     1     -10.378  13.795  68.943  1.00  0.00     0.000 HD 
BRANCH  26  28
HETATM   28  O   UNL     1      -8.956  12.449  68.248  1.00  0.00    -0.190 OA 
HETATM   29  C   UNL     1      -8.032  13.290  67.593  1.00  0.00    -0.176 C  
ENDBRANCH  26  28
ENDBRANCH  17  26
ENDBRANCH  14  17
ENDBRANCH  11  13
TORSDOF 5
ENDMDL
MODEL      119
REMARK 921   NORMALIZED FREE ENERGY PREDICTED BY IDOCK:   -5.24 KCAL/MOL
REMARK 922        TOTAL FREE ENERGY PREDICTED BY IDOCK:   -7.53 KCAL/MOL
REMARK 923 INTER-LIGAND FREE ENERGY PREDICTED BY IDOCK:   -6.49 KCAL/MOL
REMARK 924 INTRA-LIGAND FREE ENERGY PREDICTED BY IDOCK:   -1.04 KCAL/MOL
REMARK 927      BINDING AFFINITY PREDICTED BY RF-SCORE:    0.00 PKD
ROOT
HETATM    1  CE  UNL     1     -12.854  10.923  70.837  1.00  0.00    -0.326 C  
HETATM    2  SD  UNL     1     -13.333  12.130  72.024  1.00  0.00    -0.176 SA 
HETATM    3  CG  UNL     1     -12.687  13.681  71.324  1.00  0.00    -0.361 C  
HETATM    4  CB  UNL     1     -12.002  13.602  70.006  1.00  0.00    -0.413 C  
HETATM    5  CA  UNL     1     -11.637  12.504  69.324  1.00  0.00    -0.319 C  
HETATM    6  N   UNL     1     -11.896  11.267  69.842  1.00  0.00    -0.328 N  
HETATM    7  C   UNL     1     -10.842  12.730  68.074  1.00  0.00    -0.233 C  
HETATM    8  C   UNL     1     -11.422  10.004  69.645  1.00  0.00    -0.155 C  
HETATM    9  O   UNL     1     -10.408  11.677  67.400  1.00  0.00    -0.199 OA 
HETATM   10  OXT UNL     1     -10.597  13.863  67.653  1.00  0.00    -0.243 OA 
HETATM   11  CA  UNL     1     -11.997   9.588  71.039  1.00  0.00    -0.328 C  
HETATM   12  O   UNL     1     -10.697   9.568  68.813  1.00  0.00    -0.222 OA 
ENDROOT
BRANCH  11  13
HETATM   13  N   UNL     1     -10.876   9.217  71.984  1.00  0.00    -0.297 N  
HETATM   14  C   UNL     1     -10.360   8.024  72.512  1.00  0.00    -0.306 C  
HETATM   15  H   UNL     1     -10.371  10.037  72.321  1.00  0.00     0.000 HD 
HETATM   16  O   UNL     1      -9.465   8.118  73.351  1.00  0.00    -0.262 OA 
BRANCH  14  17
HETATM   17  C   UNL     1     -10.716   6.644  71.980  1.00  0.00    -0.219 C  
BRANCH  17  18
HETATM   18  C   UNL     1     -10.353   6.232  70.615  1.00  0.00    -0.203 A  
HETATM   19  N   UNL     1      -9.023   6.236  70.206  1.00  0.00    -0.152 NA 
HETATM   20  C   UNL     1     -11.254   6.110  69.562  1.00  0.00    -0.411 A  
HETATM   21  N   UNL     1      -7.796   6.632  68.277  1.00  0.00    -0.108 NA 
HETATM   22  H2  UNL     1      -7.803   6.742  67.263  1.00  0.00     0.000 HD 
HETATM   23  S   UNL     1     -10.423   6.173  68.061  1.00  0.00    -0.257 SA 
HETATM   24  H1  UNL     1      -6.915   6.739  68.780  1.00  0.00     0.000 HD 
HETATM   25  C   UNL     1      -8.943   6.352  68.907  1.00  0.00    -0.123 A  
ENDBRANCH  17  18
BRANCH  17  26
HETATM   26  N   UNL     1     -11.555   5.795  72.506  1.00  0.00    -0.372 NA 
HETATM   27  H   UNL     1     -12.444   5.654  72.025  1.00  0.00     0.000 HD 
BRANCH  26  28
HETATM   28  O   UNL     1     -11.334   5.064  73.679  1.00  0.00    -0.286 OA 
HETATM   29  C   UNL     1     -10.425   3.985  73.676  1.00  0.00    -0.186 C  
ENDBRANCH  26  28
ENDBRANCH  17  26
ENDBRANCH  14  17
ENDBRANCH  11  13
TORSDOF 5
ENDMDL
MODEL      120
REMARK 921   NORMALIZED FREE ENERGY PREDICTED BY IDOCK:   -5.23 KCAL/MOL
REMARK 922        TOTAL FREE ENERGY PREDICTED BY IDOCK:   -7.52 KCAL/MOL
REMARK 923 INTER-LIGAND FREE ENERGY PREDICTED BY IDOCK:   -6.98 KCAL/MOL
REMARK 924 INTRA-LIGAND FREE ENERGY PREDICTED BY IDOCK:   -0.53 KCAL/MOL
REMARK 927      BINDING AFFINITY PREDICTED BY RF-SCORE:    0.00 PKD
ROOT
HETATM    1  CE  UNL     1      -7.881  17.703  68.890  1.00  0.00    -0.186 C  
HETATM    2  SD  UNL     1      -6.198  17.704  68.378  1.00  0.00    -0.181 SA 
HETATM    3  CG  UNL     1      -6.228  18.691  66.849  1.00  0.00    -0.177 C  
HETATM    4  CB  UNL     1      -7.536  19.265  66.432  1.00  0.00    -0.271 C  
HETATM    5  CA  UNL     1      -8.753  19.014  66.942  1.00  0.00    -0.303 C  
HETATM    6  N   UNL     1      -8.886  18.133  67.978  1.00  0.00    -0.273 N  
HETATM    7  C   UNL     1      -9.914  19.643  66.234  1.00  0.00    -0.466 C  
HETATM    8  C   UNL     1      -9.902  17.401  68.515  1.00  0.00    -0.320 C  
HETATM    9  O   UNL     1     -11.137  19.378  66.663  1.00  0.00    -0.314 OA 
HETATM   10  OXT UNL     1      -9.758  20.409  65.280  1.00  0.00     0.060 OA 
HETATM   11  CA  UNL     1      -8.847  16.466  69.195  1.00  0.00    -0.186 C  
HETATM   12  O   UNL     1     -11.070  17.426  68.309  1.00  0.00    -0.251 OA 
ENDROOT
BRANCH  11  13
HETATM   13  N   UNL     1      -8.938  15.067  68.628  1.00  0.00    -0.179 N  
HETATM   14  C   UNL     1      -9.970  14.153  68.369  1.00  0.00    -0.235 C  
HETATM   15  H   UNL     1      -8.023  14.696  68.372  1.00  0.00     0.000 HD 
HETATM   16  O   UNL     1      -9.647  13.034  67.972  1.00  0.00    -0.211 OA 
BRANCH  14  17
HETATM   17  C   UNL     1     -11.445  14.523  68.378  1.00  0.00    -0.302 C  
BRANCH  17  18
HETATM   18  C   UNL     1     -12.312  14.189  69.519  1.00  0.00    -0.231 A  
HETATM   19  N   UNL     1     -13.022  15.185  70.182  1.00  0.00    -0.164 NA 
HETATM   20  C   UNL     1     -12.272  12.984  70.214  1.00  0.00    -0.296 A  
HETATM   21  N   UNL     1     -13.741  15.673  72.333  1.00  0.00    -0.528 NA 
HETATM   22  H2  UNL     1     -13.904  15.335  73.281  1.00  0.00     0.000 HD 
HETATM   23  S   UNL     1     -12.984  13.171  71.765  1.00  0.00    -0.290 SA 
HETATM   24  H1  UNL     1     -13.925  16.653  72.120  1.00  0.00     0.000 HD 
HETATM   25  C   UNL     1     -13.293  14.818  71.407  1.00  0.00    -0.392 A  
ENDBRANCH  17  18
BRANCH  17  26
HETATM   26  N   UNL     1     -12.160  14.914  67.359  1.00  0.00    -0.441 NA 
HETATM   27  H   UNL     1     -12.934  15.553  67.546  1.00  0.00     0.000 HD 
BRANCH  26  28
HETATM   28  O   UNL     1     -11.950  14.528  66.030  1.00  0.00    -0.370 OA 
HETATM   29  C   UNL     1     -12.418  13.277  65.578  1.00  0.00    -0.474 C  
ENDBRANCH  26  28
ENDBRANCH  17  26
ENDBRANCH  14  17
ENDBRANCH  11  13
TORSDOF 5
ENDMDL
MODEL      121
REMARK 921   NORMALIZED FREE ENERGY PREDICTED BY IDOCK:   -5.22 KCAL/MOL
REMARK 922        TOTAL FREE ENERGY PREDICTED BY IDOCK:   -7.51 KCAL/MOL
REMARK 923 INTER-LIGAND FREE ENERGY PREDICTED BY IDOCK:   -6.82 KCAL/MOL
REMARK 924 INTRA-LIGAND FREE ENERGY PREDICTED BY IDOCK:   -0.69 KCAL/MOL
REMARK 927      BINDING AFFINITY PREDICTED BY RF-SCORE:    0.00 PKD
ROOT
HETATM    1  CE  UNL     1     -11.438  12.764  66.324  1.00  0.00    -0.354 C  
HETATM    2  SD  UNL     1     -10.121  12.772  67.490  1.00  0.00    -0.216 SA 
HETATM    3  CG  UNL     1      -9.424  14.445  67.321  1.00  0.00    -0.215 C  
HETATM    4  CB  UNL     1     -10.085  15.366  66.358  1.00  0.00    -0.292 C  
HETATM    5  CA  UNL     1     -11.039  15.080  65.456  1.00  0.00    -0.357 C  
HETATM    6  N   UNL     1     -11.512  13.803  65.352  1.00  0.00    -0.306 N  
HETATM    7  C   UNL     1     -11.429  16.187  64.525  1.00  0.00    -0.230 C  
HETATM    8  C   UNL     1     -12.181  13.081  64.410  1.00  0.00    -0.406 C  
HETATM    9  O   UNL     1     -12.321  15.937  63.581  1.00  0.00    -0.659 OA 
HETATM   10  OXT UNL     1     -10.955  17.322  64.627  1.00  0.00    -1.013 OA 
HETATM   11  CA  UNL     1     -11.708  11.762  65.107  1.00  0.00    -0.087 C  
HETATM   12  O   UNL     1     -12.698  13.417  63.396  1.00  0.00    -0.687 OA 
ENDROOT
BRANCH  11  13
HETATM   13  N   UNL     1     -10.790  10.981  64.194  1.00  0.00    -0.429 N  
HETATM   14  C   UNL     1      -9.833   9.969  64.358  1.00  0.00    -0.133 C  
HETATM   15  H   UNL     1     -10.893  11.257  63.217  1.00  0.00     0.000 HD 
HETATM   16  O   UNL     1      -9.197   9.625  63.362  1.00  0.00    -0.241 OA 
BRANCH  14  17
HETATM   17  C   UNL     1      -9.668   9.164  65.638  1.00  0.00    -0.177 C  
BRANCH  17  18
HETATM   18  C   UNL     1      -8.373   9.079  66.330  1.00  0.00    -0.120 A  
HETATM   19  N   UNL     1      -7.965  10.090  67.193  1.00  0.00    -0.109 NA 
HETATM   20  C   UNL     1      -7.347   8.206  65.978  1.00  0.00    -0.076 A  
HETATM   21  N   UNL     1      -5.998  11.131  67.851  1.00  0.00    -0.046 NA 
HETATM   22  H2  UNL     1      -4.979  11.106  67.869  1.00  0.00     0.000 HD 
HETATM   23  S   UNL     1      -5.850   8.768  66.604  1.00  0.00    -0.053 SA 
HETATM   24  H1  UNL     1      -6.480  11.930  68.260  1.00  0.00     0.000 HD 
HETATM   25  C   UNL     1      -6.662  10.112  67.291  1.00  0.00    -0.073 A  
ENDBRANCH  17  18
BRANCH  17  26
HETATM   26  N   UNL     1     -10.505   8.288  66.125  1.00  0.00    -0.088 NA 
HETATM   27  H   UNL     1     -11.380   8.143  65.619  1.00  0.00     0.000 HD 
BRANCH  26  28
HETATM   28  O   UNL     1     -10.298   7.533  67.284  1.00  0.00    -0.235 OA 
HETATM   29  C   UNL     1     -10.391   6.126  67.234  1.00  0.00    -0.219 C  
ENDBRANCH  26  28
ENDBRANCH  17  26
ENDBRANCH  14  17
ENDBRANCH  11  13
TORSDOF 5
ENDMDL
MODEL      122
REMARK 921   NORMALIZED FREE ENERGY PREDICTED BY IDOCK:   -5.21 KCAL/MOL
REMARK 922        TOTAL FREE ENERGY PREDICTED BY IDOCK:   -7.50 KCAL/MOL
REMARK 923 INTER-LIGAND FREE ENERGY PREDICTED BY IDOCK:   -6.87 KCAL/MOL
REMARK 924 INTRA-LIGAND FREE ENERGY PREDICTED BY IDOCK:   -0.62 KCAL/MOL
REMARK 927      BINDING AFFINITY PREDICTED BY RF-SCORE:    0.00 PKD
ROOT
HETATM    1  CE  UNL     1      -9.010  15.145  68.535  1.00  0.00    -0.186 C  
HETATM    2  SD  UNL     1      -7.807  14.617  67.365  1.00  0.00    -0.192 SA 
HETATM    3  CG  UNL     1      -7.092  16.181  66.769  1.00  0.00    -0.117 C  
HETATM    4  CB  UNL     1      -7.600  17.440  67.376  1.00  0.00    -0.209 C  
HETATM    5  CA  UNL     1      -8.651  17.601  68.197  1.00  0.00    -0.261 C  
HETATM    6  N   UNL     1      -9.393  16.516  68.568  1.00  0.00    -0.221 N  
HETATM    7  C   UNL     1      -9.009  19.012  68.552  1.00  0.00    -0.355 C  
HETATM    8  C   UNL     1     -10.643  16.312  69.073  1.00  0.00    -0.286 C  
HETATM    9  O   UNL     1     -10.072  19.224  69.310  1.00  0.00    -0.355 OA 
HETATM   10  OXT UNL     1      -8.334  19.972  68.171  1.00  0.00    -0.274 OA 
HETATM   11  CA  UNL     1     -10.575  14.823  68.594  1.00  0.00    -0.255 C  
HETATM   12  O   UNL     1     -11.447  17.078  69.491  1.00  0.00     0.351 OA 
ENDROOT
BRANCH  11  13
HETATM   13  N   UNL     1     -11.614  14.563  67.526  1.00  0.00    -0.365 N  
HETATM   14  C   UNL     1     -11.812  13.594  66.532  1.00  0.00    -0.404 C  
HETATM   15  H   UNL     1     -12.354  15.266  67.531  1.00  0.00     0.000 HD 
HETATM   16  O   UNL     1     -12.757  13.759  65.762  1.00  0.00    -0.490 OA 
BRANCH  14  17
HETATM   17  C   UNL     1     -11.043  12.283  66.469  1.00  0.00    -0.299 C  
BRANCH  17  18
HETATM   18  C   UNL     1     -10.733  11.636  65.184  1.00  0.00    -0.296 A  
HETATM   19  N   UNL     1     -10.268  10.326  65.147  1.00  0.00    -0.289 NA 
HETATM   20  C   UNL     1     -10.573  12.313  63.979  1.00  0.00    -0.400 A  
HETATM   21  N   UNL     1      -8.821   9.027  63.881  1.00  0.00    -0.426 NA 
HETATM   22  H2  UNL     1      -8.284   8.932  63.018  1.00  0.00     0.000 HD 
HETATM   23  S   UNL     1      -9.689  11.348  62.869  1.00  0.00    -0.220 SA 
HETATM   24  H1  UNL     1      -8.758   8.293  64.585  1.00  0.00     0.000 HD 
HETATM   25  C   UNL     1      -9.584  10.113  64.054  1.00  0.00    -0.257 A  
ENDBRANCH  17  18
BRANCH  17  26
HETATM   26  N   UNL     1     -10.801  11.469  67.460  1.00  0.00    -0.222 NA 
HETATM   27  H   UNL     1      -9.828  11.348  67.742  1.00  0.00     0.000 HD 
BRANCH  26  28
HETATM   28  O   UNL     1     -11.771  10.750  68.169  1.00  0.00    -0.501 OA 
HETATM   29  C   UNL     1     -11.958  10.987  69.547  1.00  0.00    -0.342 C  
ENDBRANCH  26  28
ENDBRANCH  17  26
ENDBRANCH  14  17
ENDBRANCH  11  13
TORSDOF 5
ENDMDL
MODEL      123
REMARK 921   NORMALIZED FREE ENERGY PREDICTED BY IDOCK:   -5.20 KCAL/MOL
REMARK 922        TOTAL FREE ENERGY PREDICTED BY IDOCK:   -7.48 KCAL/MOL
REMARK 923 INTER-LIGAND FREE ENERGY PREDICTED BY IDOCK:   -6.86 KCAL/MOL
REMARK 924 INTRA-LIGAND FREE ENERGY PREDICTED BY IDOCK:   -0.62 KCAL/MOL
REMARK 927      BINDING AFFINITY PREDICTED BY RF-SCORE:    0.00 PKD
ROOT
HETATM    1  CE  UNL     1     -12.408  13.757  69.973  1.00  0.00    -0.300 C  
HETATM    2  SD  UNL     1     -12.581  14.034  71.701  1.00  0.00    -0.285 SA 
HETATM    3  CG  UNL     1     -11.917  15.713  71.923  1.00  0.00    -0.447 C  
HETATM    4  CB  UNL     1     -11.460  16.434  70.704  1.00  0.00    -0.179 C  
HETATM    5  CA  UNL     1     -11.308  15.949  69.461  1.00  0.00    -0.335 C  
HETATM    6  N   UNL     1     -11.593  14.637  69.206  1.00  0.00    -0.284 N  
HETATM    7  C   UNL     1     -10.705  16.878  68.452  1.00  0.00    -0.368 C  
HETATM    8  C   UNL     1     -11.273  13.738  68.233  1.00  0.00    -0.273 C  
HETATM    9  O   UNL     1     -10.481  16.427  67.229  1.00  0.00    -0.299 OA 
HETATM   10  OXT UNL     1     -10.428  18.048  68.727  1.00  0.00    -0.326 OA 
HETATM   11  CA  UNL     1     -11.655  12.573  69.206  1.00  0.00    -0.319 C  
HETATM   12  O   UNL     1     -10.731  13.885  67.187  1.00  0.00    -0.279 OA 
ENDROOT
BRANCH  11  13
HETATM   13  N   UNL     1     -10.436  11.742  69.540  1.00  0.00    -0.412 N  
HETATM   14  C   UNL     1      -9.726  10.704  68.918  1.00  0.00    -0.202 C  
HETATM   15  H   UNL     1     -10.030  12.000  70.440  1.00  0.00     0.000 HD 
HETATM   16  O   UNL     1      -8.803  10.193  69.550  1.00  0.00    -0.185 OA 
BRANCH  14  17
HETATM   17  C   UNL     1      -9.918  10.308  67.462  1.00  0.00    -0.189 C  
BRANCH  17  18
HETATM   18  C   UNL     1      -9.604   8.951  66.989  1.00  0.00    -0.176 A  
HETATM   19  N   UNL     1     -10.619   8.090  66.587  1.00  0.00    -0.177 NA 
HETATM   20  C   UNL     1      -8.383   8.311  67.181  1.00  0.00    -0.123 A  
HETATM   21  N   UNL     1     -11.096   5.819  66.624  1.00  0.00    -0.684 NA 
HETATM   22  H2  UNL     1     -10.744   4.871  66.755  1.00  0.00     0.000 HD 
HETATM   23  S   UNL     1      -8.570   6.613  67.016  1.00  0.00    -0.115 SA 
HETATM   24  H1  UNL     1     -12.088   5.957  66.437  1.00  0.00     0.000 HD 
HETATM   25  C   UNL     1     -10.240   6.845  66.703  1.00  0.00    -0.145 A  
ENDBRANCH  17  18
BRANCH  17  26
HETATM   26  N   UNL     1     -10.113  11.111  66.452  1.00  0.00    -0.219 NA 
HETATM   27  H   UNL     1     -10.873  11.788  66.530  1.00  0.00     0.000 HD 
BRANCH  26  28
HETATM   28  O   UNL     1      -9.364  11.117  65.270  1.00  0.00    -0.216 OA 
HETATM   29  C   UNL     1     -10.018  11.110  64.020  1.00  0.00    -0.323 C  
ENDBRANCH  26  28
ENDBRANCH  17  26
ENDBRANCH  14  17
ENDBRANCH  11  13
TORSDOF 5
ENDMDL
MODEL      124
REMARK 921   NORMALIZED FREE ENERGY PREDICTED BY IDOCK:   -5.19 KCAL/MOL
REMARK 922        TOTAL FREE ENERGY PREDICTED BY IDOCK:   -7.47 KCAL/MOL
REMARK 923 INTER-LIGAND FREE ENERGY PREDICTED BY IDOCK:   -6.75 KCAL/MOL
REMARK 924 INTRA-LIGAND FREE ENERGY PREDICTED BY IDOCK:   -0.72 KCAL/MOL
REMARK 927      BINDING AFFINITY PREDICTED BY RF-SCORE:    0.00 PKD
ROOT
HETATM    1  CE  UNL     1     -11.739  11.923  68.340  1.00  0.00    -0.326 C  
HETATM    2  SD  UNL     1     -11.606  13.574  68.933  1.00  0.00    -0.346 SA 
HETATM    3  CG  UNL     1     -10.994  14.489  67.484  1.00  0.00    -0.293 C  
HETATM    4  CB  UNL     1     -10.802  13.723  66.224  1.00  0.00    -0.283 C  
HETATM    5  CA  UNL     1     -10.858  12.393  66.043  1.00  0.00    -0.273 C  
HETATM    6  N   UNL     1     -11.121  11.576  67.105  1.00  0.00    -0.282 N  
HETATM    7  C   UNL     1     -10.494  11.890  64.680  1.00  0.00    -0.295 C  
HETATM    8  C   UNL     1     -10.941  10.255  67.392  1.00  0.00    -0.252 C  
HETATM    9  O   UNL     1     -10.476  10.584  64.470  1.00  0.00    -0.310 OA 
HETATM   10  OXT UNL     1     -10.229  12.657  63.751  1.00  0.00    -0.404 OA 
HETATM   11  CA  UNL     1     -11.082  10.583  68.916  1.00  0.00    -0.261 C  
HETATM   12  O   UNL     1     -10.607   9.349  66.702  1.00  0.00    -0.197 OA 
ENDROOT
BRANCH  11  13
HETATM   13  N   UNL     1      -9.785  10.302  69.640  1.00  0.00    -0.352 N  
HETATM   14  C   UNL     1      -9.377   9.450  70.677  1.00  0.00    -0.252 C  
HETATM   15  H   UNL     1      -9.016  10.872  69.286  1.00  0.00     0.000 HD 
HETATM   16  O   UNL     1      -8.219   9.561  71.078  1.00  0.00    -0.301 OA 
BRANCH  14  17
HETATM   17  C   UNL     1     -10.220   8.297  71.200  1.00  0.00    -0.198 C  
BRANCH  17  18
HETATM   18  C   UNL     1     -10.045   6.927  70.692  1.00  0.00    -0.194 A  
HETATM   19  N   UNL     1     -10.536   5.840  71.407  1.00  0.00    -0.244 NA 
HETATM   20  C   UNL     1      -9.157   6.568  69.682  1.00  0.00    -0.141 A  
HETATM   21  N   UNL     1      -9.969   3.630  71.824  1.00  0.00    -0.167 NA 
HETATM   22  H2  UNL     1      -9.400   2.825  71.559  1.00  0.00     0.000 HD 
HETATM   23  S   UNL     1      -8.824   4.886  69.756  1.00  0.00    -0.100 SA 
HETATM   24  H1  UNL     1     -10.592   3.552  72.627  1.00  0.00     0.000 HD 
HETATM   25  C   UNL     1      -9.872   4.755  71.107  1.00  0.00    -0.190 A  
ENDBRANCH  17  18
BRANCH  17  26
HETATM   26  N   UNL     1     -11.308   8.384  71.915  1.00  0.00    -0.291 NA 
HETATM   27  H   UNL     1     -11.214   8.294  72.927  1.00  0.00     0.000 HD 
BRANCH  26  28
HETATM   28  O   UNL     1     -12.594   8.592  71.403  1.00  0.00    -0.312 OA 
HETATM   29  C   UNL     1     -13.603   9.132  72.229  1.00  0.00    -0.489 C  
ENDBRANCH  26  28
ENDBRANCH  17  26
ENDBRANCH  14  17
ENDBRANCH  11  13
TORSDOF 5
ENDMDL
MODEL      125
REMARK 921   NORMALIZED FREE ENERGY PREDICTED BY IDOCK:   -5.18 KCAL/MOL
REMARK 922        TOTAL FREE ENERGY PREDICTED BY IDOCK:   -7.45 KCAL/MOL
REMARK 923 INTER-LIGAND FREE ENERGY PREDICTED BY IDOCK:   -6.10 KCAL/MOL
REMARK 924 INTRA-LIGAND FREE ENERGY PREDICTED BY IDOCK:   -1.35 KCAL/MOL
REMARK 927      BINDING AFFINITY PREDICTED BY RF-SCORE:    0.00 PKD
ROOT
HETATM    1  CE  UNL     1     -12.278  11.197  70.046  1.00  0.00    -0.326 C  
HETATM    2  SD  UNL     1     -13.205  11.090  71.537  1.00  0.00    -0.203 SA 
HETATM    3  CG  UNL     1     -13.457  12.834  71.996  1.00  0.00    -0.444 C  
HETATM    4  CB  UNL     1     -12.916  13.868  71.074  1.00  0.00    -0.357 C  
HETATM    5  CA  UNL     1     -12.106  13.695  70.016  1.00  0.00    -0.348 C  
HETATM    6  N   UNL     1     -11.686  12.439  69.682  1.00  0.00    -0.313 N  
HETATM    7  C   UNL     1     -11.615  14.941  69.343  1.00  0.00    -0.309 C  
HETATM    8  C   UNL     1     -10.667  11.912  68.946  1.00  0.00    -0.199 C  
HETATM    9  O   UNL     1     -10.768  14.824  68.334  1.00  0.00    -0.233 OA 
HETATM   10  OXT UNL     1     -11.990  16.062  69.694  1.00  0.00    -0.299 OA 
HETATM   11  CA  UNL     1     -10.863  10.545  69.683  1.00  0.00    -0.274 C  
HETATM   12  O   UNL     1      -9.881  12.430  68.223  1.00  0.00    -0.218 OA 
ENDROOT
BRANCH  11  13
HETATM   13  N   UNL     1      -9.642  10.210  70.509  1.00  0.00    -0.256 N  
HETATM   14  C   UNL     1      -8.754   9.128  70.597  1.00  0.00    -0.229 C  
HETATM   15  H   UNL     1      -9.406  10.955  71.165  1.00  0.00     0.000 HD 
HETATM   16  O   UNL     1      -7.898   9.169  71.480  1.00  0.00    -0.330 OA 
BRANCH  14  17
HETATM   17  C   UNL     1      -8.681   8.013  69.565  1.00  0.00    -0.136 C  
BRANCH  17  18
HETATM   18  C   UNL     1      -8.350   8.290  68.159  1.00  0.00    -0.129 A  
HETATM   19  N   UNL     1      -7.770   9.500  67.795  1.00  0.00    -0.088 NA 
HETATM   20  C   UNL     1      -8.838   7.564  67.076  1.00  0.00    -0.128 A  
HETATM   21  N   UNL     1      -7.800  10.979  66.007  1.00  0.00    -0.299 NA 
HETATM   22  H2  UNL     1      -8.047  11.140  65.031  1.00  0.00     0.000 HD 
HETATM   23  S   UNL     1      -8.710   8.490  65.636  1.00  0.00    -0.171 SA 
HETATM   24  H1  UNL     1      -7.391  11.742  66.546  1.00  0.00     0.000 HD 
HETATM   25  C   UNL     1      -8.022   9.772  66.542  1.00  0.00    -0.112 A  
ENDBRANCH  17  18
BRANCH  17  26
HETATM   26  N   UNL     1      -9.125   6.793  69.699  1.00  0.00    -0.143 NA 
HETATM   27  H   UNL     1      -8.642   6.058  69.181  1.00  0.00     0.000 HD 
BRANCH  26  28
HETATM   28  O   UNL     1     -10.211   6.412  70.496  1.00  0.00    -0.183 OA 
HETATM   29  C   UNL     1     -11.529   6.655  70.055  1.00  0.00    -0.375 C  
ENDBRANCH  26  28
ENDBRANCH  17  26
ENDBRANCH  14  17
ENDBRANCH  11  13
TORSDOF 5
ENDMDL
MODEL      126
REMARK 921   NORMALIZED FREE ENERGY PREDICTED BY IDOCK:   -5.17 KCAL/MOL
REMARK 922        TOTAL FREE ENERGY PREDICTED BY IDOCK:   -7.45 KCAL/MOL
REMARK 923 INTER-LIGAND FREE ENERGY PREDICTED BY IDOCK:   -6.57 KCAL/MOL
REMARK 924 INTRA-LIGAND FREE ENERGY PREDICTED BY IDOCK:   -0.87 KCAL/MOL
REMARK 927      BINDING AFFINITY PREDICTED BY RF-SCORE:    0.00 PKD
ROOT
HETATM    1  CE  UNL     1      -7.699  11.304  68.240  1.00  0.00    -0.122 C  
HETATM    2  SD  UNL     1      -7.102  10.429  69.645  1.00  0.00    -0.148 SA 
HETATM    3  CG  UNL     1      -7.133   8.693  69.099  1.00  0.00    -0.063 C  
HETATM    4  CB  UNL     1      -7.570   8.424  67.703  1.00  0.00    -0.098 C  
HETATM    5  CA  UNL     1      -8.116   9.281  66.824  1.00  0.00    -0.112 C  
HETATM    6  N   UNL     1      -8.325  10.581  67.185  1.00  0.00    -0.126 N  
HETATM    7  C   UNL     1      -8.579   8.697  65.524  1.00  0.00    -0.175 C  
HETATM    8  C   UNL     1      -9.105  11.607  66.742  1.00  0.00    -0.186 C  
HETATM    9  O   UNL     1      -9.177   9.490  64.650  1.00  0.00    -0.239 OA 
HETATM   10  OXT UNL     1      -8.404   7.508  65.244  1.00  0.00    -0.136 OA 
HETATM   11  CA  UNL     1      -8.930  12.317  68.125  1.00  0.00    -0.192 C  
HETATM   12  O   UNL     1      -9.770  11.711  65.764  1.00  0.00    -0.225 OA 
ENDROOT
BRANCH  11  13
HETATM   13  N   UNL     1     -10.258  12.410  68.844  1.00  0.00    -0.423 N  
HETATM   14  C   UNL     1     -11.387  13.239  68.766  1.00  0.00    -0.290 C  
HETATM   15  H   UNL     1     -10.357  11.693  69.562  1.00  0.00     0.000 HD 
HETATM   16  O   UNL     1     -12.274  13.066  69.601  1.00  0.00    -0.255 OA 
BRANCH  14  17
HETATM   17  C   UNL     1     -11.647  14.201  67.618  1.00  0.00    -0.365 C  
BRANCH  17  18
HETATM   18  C   UNL     1     -11.096  15.565  67.619  1.00  0.00    -0.311 A  
HETATM   19  N   UNL     1     -10.533  16.101  66.466  1.00  0.00    -0.303 NA 
HETATM   20  C   UNL     1     -10.804  16.297  68.767  1.00  0.00    -0.317 A  
HETATM   21  N   UNL     1      -8.814  17.544  65.875  1.00  0.00    -0.529 NA 
HETATM   22  H2  UNL     1      -8.147  18.253  66.178  1.00  0.00     0.000 HD 
HETATM   23  S   UNL     1      -9.690  17.551  68.404  1.00  0.00    -0.332 SA 
HETATM   24  H1  UNL     1      -8.806  17.241  64.902  1.00  0.00     0.000 HD 
HETATM   25  C   UNL     1      -9.675  17.040  66.767  1.00  0.00    -0.269 A  
ENDBRANCH  17  18
BRANCH  17  26
HETATM   26  N   UNL     1     -12.539  14.070  66.674  1.00  0.00    -0.502 NA 
HETATM   27  H   UNL     1     -13.333  14.712  66.685  1.00  0.00     0.000 HD 
BRANCH  26  28
HETATM   28  O   UNL     1     -12.494  13.119  65.648  1.00  0.00    -0.457 OA 
HETATM   29  C   UNL     1     -12.277  13.528  64.316  1.00  0.00    -0.396 C  
ENDBRANCH  26  28
ENDBRANCH  17  26
ENDBRANCH  14  17
ENDBRANCH  11  13
TORSDOF 5
ENDMDL
MODEL      127
REMARK 921   NORMALIZED FREE ENERGY PREDICTED BY IDOCK:   -5.17 KCAL/MOL
REMARK 922        TOTAL FREE ENERGY PREDICTED BY IDOCK:   -7.44 KCAL/MOL
REMARK 923 INTER-LIGAND FREE ENERGY PREDICTED BY IDOCK:   -6.65 KCAL/MOL
REMARK 924 INTRA-LIGAND FREE ENERGY PREDICTED BY IDOCK:   -0.80 KCAL/MOL
REMARK 927      BINDING AFFINITY PREDICTED BY RF-SCORE:    0.00 PKD
ROOT
HETATM    1  CE  UNL     1      -9.629   8.270  70.753  1.00  0.00    -0.172 C  
HETATM    2  SD  UNL     1      -9.683   6.906  71.862  1.00  0.00    -0.159 SA 
HETATM    3  CG  UNL     1     -10.036   5.494  70.770  1.00  0.00    -0.201 C  
HETATM    4  CB  UNL     1     -10.146   5.769  69.312  1.00  0.00    -0.268 C  
HETATM    5  CA  UNL     1     -10.189   6.960  68.692  1.00  0.00    -0.173 C  
HETATM    6  N   UNL     1     -10.126   8.109  69.428  1.00  0.00    -0.190 N  
HETATM    7  C   UNL     1     -10.433   6.934  67.215  1.00  0.00    -0.287 C  
HETATM    8  C   UNL     1     -10.455   9.417  69.230  1.00  0.00    -0.218 C  
HETATM    9  O   UNL     1     -10.543   8.084  66.570  1.00  0.00    -0.187 OA 
HETATM   10  OXT UNL     1     -10.518   5.876  66.586  1.00  0.00    -0.237 OA 
HETATM   11  CA  UNL     1     -10.466   9.632  70.780  1.00  0.00    -0.305 C  
HETATM   12  O   UNL     1     -10.785   9.995  68.247  1.00  0.00    -0.213 OA 
ENDROOT
BRANCH  11  13
HETATM   13  N   UNL     1     -11.859   9.975  71.257  1.00  0.00    -0.379 N  
HETATM   14  C   UNL     1     -12.625  11.146  71.364  1.00  0.00    -0.374 C  
HETATM   15  H   UNL     1     -12.368   9.152  71.581  1.00  0.00     0.000 HD 
HETATM   16  O   UNL     1     -13.729  11.051  71.901  1.00  0.00    -0.120 OA 
BRANCH  14  17
HETATM   17  C   UNL     1     -12.248  12.462  70.704  1.00  0.00    -0.278 C  
BRANCH  17  18
HETATM   18  C   UNL     1     -12.669  13.753  71.271  1.00  0.00    -0.371 A  
HETATM   19  N   UNL     1     -12.037  14.270  72.397  1.00  0.00    -0.007 NA 
HETATM   20  C   UNL     1     -13.864  14.397  70.965  1.00  0.00    -0.076 A  
HETATM   21  N   UNL     1     -12.571  15.531  74.270  1.00  0.00    -0.718 NA 
HETATM   22  H2  UNL     1     -13.245  16.145  74.727  1.00  0.00     0.000 HD 
HETATM   23  S   UNL     1     -14.258  15.530  72.193  1.00  0.00    -0.440 SA 
HETATM   24  H1  UNL     1     -11.722  15.270  74.770  1.00  0.00     0.000 HD 
HETATM   25  C   UNL     1     -12.830  15.091  73.033  1.00  0.00    -0.471 A  
ENDBRANCH  17  18
BRANCH  17  26
HETATM   26  N   UNL     1     -11.770  12.626  69.500  1.00  0.00    -0.315 NA 
HETATM   27  H   UNL     1     -11.610  11.787  68.941  1.00  0.00     0.000 HD 
BRANCH  26  28
HETATM   28  O   UNL     1     -11.460  13.859  68.916  1.00  0.00    -0.260 OA 
HETATM   29  C   UNL     1     -10.123  14.166  68.587  1.00  0.00    -0.229 C  
ENDBRANCH  26  28
ENDBRANCH  17  26
ENDBRANCH  14  17
ENDBRANCH  11  13
TORSDOF 5
ENDMDL
MODEL      128
REMARK 921   NORMALIZED FREE ENERGY PREDICTED BY IDOCK:   -5.17 KCAL/MOL
REMARK 922        TOTAL FREE ENERGY PREDICTED BY IDOCK:   -7.44 KCAL/MOL
REMARK 923 INTER-LIGAND FREE ENERGY PREDICTED BY IDOCK:   -6.52 KCAL/MOL
REMARK 924 INTRA-LIGAND FREE ENERGY PREDICTED BY IDOCK:   -0.92 KCAL/MOL
REMARK 927      BINDING AFFINITY PREDICTED BY RF-SCORE:    0.00 PKD
ROOT
HETATM    1  CE  UNL     1      -7.933  16.670  69.256  1.00  0.00    -0.064 C  
HETATM    2  SD  UNL     1      -6.290  17.233  69.538  1.00  0.00    -0.202 SA 
HETATM    3  CG  UNL     1      -6.110  18.602  68.353  1.00  0.00    -0.212 C  
HETATM    4  CB  UNL     1      -7.293  18.943  67.518  1.00  0.00    -0.242 C  
HETATM    5  CA  UNL     1      -8.445  18.263  67.392  1.00  0.00    -0.249 C  
HETATM    6  N   UNL     1      -8.626  17.103  68.091  1.00  0.00    -0.225 N  
HETATM    7  C   UNL     1      -9.415  18.779  66.374  1.00  0.00    -0.322 C  
HETATM    8  C   UNL     1      -9.447  16.020  67.991  1.00  0.00    -0.207 C  
HETATM    9  O   UNL     1     -10.538  18.109  66.172  1.00  0.00    -0.375 OA 
HETATM   10  OXT UNL     1      -9.203  19.813  65.736  1.00  0.00    -0.368 OA 
HETATM   11  CA  UNL     1      -8.452  15.205  68.883  1.00  0.00    -0.199 C  
HETATM   12  O   UNL     1     -10.395  15.824  67.305  1.00  0.00    -0.276 OA 
ENDROOT
BRANCH  11  13
HETATM   13  N   UNL     1      -7.845  14.067  68.094  1.00  0.00    -0.131 N  
HETATM   14  C   UNL     1      -8.230  12.762  67.754  1.00  0.00    -0.176 C  
HETATM   15  H   UNL     1      -6.928  14.308  67.716  1.00  0.00     0.000 HD 
HETATM   16  O   UNL     1      -7.410  12.070  67.151  1.00  0.00    -0.140 OA 
BRANCH  14  17
HETATM   17  C   UNL     1      -9.643  12.228  67.928  1.00  0.00    -0.203 C  
BRANCH  17  18
HETATM   18  C   UNL     1     -10.627  12.291  66.835  1.00  0.00    -0.224 A  
HETATM   19  N   UNL     1     -10.228  12.114  65.515  1.00  0.00    -0.259 NA 
HETATM   20  C   UNL     1     -11.910  12.814  66.958  1.00  0.00    -0.361 A  
HETATM   21  N   UNL     1     -10.797  12.891  63.404  1.00  0.00    -0.485 NA 
HETATM   22  H2  UNL     1     -11.481  13.378  62.825  1.00  0.00     0.000 HD 
HETATM   23  S   UNL     1     -12.531  13.233  65.414  1.00  0.00    -0.469 SA 
HETATM   24  H1  UNL     1      -9.928  12.570  62.979  1.00  0.00     0.000 HD 
HETATM   25  C   UNL     1     -11.069  12.693  64.699  1.00  0.00    -0.313 A  
ENDBRANCH  17  18
BRANCH  17  26
HETATM   26  N   UNL     1     -10.227  11.912  69.051  1.00  0.00    -0.417 NA 
HETATM   27  H   UNL     1     -10.269  12.628  69.777  1.00  0.00     0.000 HD 
BRANCH  26  28
HETATM   28  O   UNL     1     -10.801  10.668  69.340  1.00  0.00    -0.215 OA 
HETATM   29  C   UNL     1     -10.022   9.495  69.251  1.00  0.00    -0.187 C  
ENDBRANCH  26  28
ENDBRANCH  17  26
ENDBRANCH  14  17
ENDBRANCH  11  13
TORSDOF 5
ENDMDL
MODEL      129
REMARK 921   NORMALIZED FREE ENERGY PREDICTED BY IDOCK:   -5.13 KCAL/MOL
REMARK 922        TOTAL FREE ENERGY PREDICTED BY IDOCK:   -7.39 KCAL/MOL
REMARK 923 INTER-LIGAND FREE ENERGY PREDICTED BY IDOCK:   -6.80 KCAL/MOL
REMARK 924 INTRA-LIGAND FREE ENERGY PREDICTED BY IDOCK:   -0.60 KCAL/MOL
REMARK 927      BINDING AFFINITY PREDICTED BY RF-SCORE:    0.00 PKD
ROOT
HETATM    1  CE  UNL     1      -8.513   9.334  66.060  1.00  0.00    -0.136 C  
HETATM    2  SD  UNL     1      -7.234  10.474  66.459  1.00  0.00    -0.131 SA 
HETATM    3  CG  UNL     1      -6.167   9.524  67.586  1.00  0.00    -0.053 C  
HETATM    4  CB  UNL     1      -6.548   8.113  67.861  1.00  0.00    -0.061 C  
HETATM    5  CA  UNL     1      -7.681   7.477  67.521  1.00  0.00    -0.118 C  
HETATM    6  N   UNL     1      -8.654   8.147  66.834  1.00  0.00    -0.122 N  
HETATM    7  C   UNL     1      -7.847   6.084  68.046  1.00  0.00    -0.106 C  
HETATM    8  C   UNL     1      -9.988   7.979  66.614  1.00  0.00    -0.256 C  
HETATM    9  O   UNL     1      -8.972   5.439  67.788  1.00  0.00    -0.109 OA 
HETATM   10  OXT UNL     1      -6.960   5.521  68.693  1.00  0.00    -0.057 OA 
HETATM   11  CA  UNL     1     -10.097   9.490  66.220  1.00  0.00    -0.257 C  
HETATM   12  O   UNL     1     -10.707   7.068  66.860  1.00  0.00    -0.324 OA 
ENDROOT
BRANCH  11  13
HETATM   13  N   UNL     1     -10.963  10.234  67.212  1.00  0.00    -0.253 N  
HETATM   14  C   UNL     1     -11.522  11.518  67.293  1.00  0.00    -0.263 C  
HETATM   15  H   UNL     1     -11.198   9.660  68.022  1.00  0.00     0.000 HD 
HETATM   16  O   UNL     1     -12.119  11.810  68.329  1.00  0.00    -0.525 OA 
BRANCH  14  17
HETATM   17  C   UNL     1     -11.583  12.485  66.121  1.00  0.00    -0.395 C  
BRANCH  17  18
HETATM   18  C   UNL     1     -11.035  13.847  66.221  1.00  0.00    -0.298 A  
HETATM   19  N   UNL     1     -11.725  14.927  65.682  1.00  0.00    -0.257 NA 
HETATM   20  C   UNL     1      -9.716  14.144  66.551  1.00  0.00    -0.295 A  
HETATM   21  N   UNL     1     -11.259  16.956  64.656  1.00  0.00    -0.956 NA 
HETATM   22  H2  UNL     1     -10.564  17.672  64.447  1.00  0.00     0.000 HD 
HETATM   23  S   UNL     1      -9.315  15.728  66.026  1.00  0.00    -0.332 SA 
HETATM   24  H1  UNL     1     -12.204  17.061  64.287  1.00  0.00     0.000 HD 
HETATM   25  C   UNL     1     -10.904  15.905  65.405  1.00  0.00    -0.349 A  
ENDBRANCH  17  18
BRANCH  17  26
HETATM   26  N   UNL     1     -12.305  12.361  65.041  1.00  0.00    -0.536 NA 
HETATM   27  H   UNL     1     -13.272  12.054  65.155  1.00  0.00     0.000 HD 
BRANCH  26  28
HETATM   28  O   UNL     1     -11.859  12.614  63.739  1.00  0.00    -0.413 OA 
HETATM   29  C   UNL     1     -10.920  11.750  63.135  1.00  0.00    -0.194 C  
ENDBRANCH  26  28
ENDBRANCH  17  26
ENDBRANCH  14  17
ENDBRANCH  11  13
TORSDOF 5
ENDMDL
MODEL      130
REMARK 921   NORMALIZED FREE ENERGY PREDICTED BY IDOCK:   -5.12 KCAL/MOL
REMARK 922        TOTAL FREE ENERGY PREDICTED BY IDOCK:   -7.38 KCAL/MOL
REMARK 923 INTER-LIGAND FREE ENERGY PREDICTED BY IDOCK:   -6.22 KCAL/MOL
REMARK 924 INTRA-LIGAND FREE ENERGY PREDICTED BY IDOCK:   -1.16 KCAL/MOL
REMARK 927      BINDING AFFINITY PREDICTED BY RF-SCORE:    0.00 PKD
ROOT
HETATM    1  CE  UNL     1     -11.938  14.792  67.809  1.00  0.00    -0.216 C  
HETATM    2  SD  UNL     1     -12.153  14.446  69.520  1.00  0.00    -0.300 SA 
HETATM    3  CG  UNL     1     -10.596  15.027  70.261  1.00  0.00    -0.084 C  
HETATM    4  CB  UNL     1      -9.596  15.649  69.352  1.00  0.00    -0.287 C  
HETATM    5  CA  UNL     1      -9.609  15.692  68.009  1.00  0.00    -0.203 C  
HETATM    6  N   UNL     1     -10.639  15.115  67.322  1.00  0.00    -0.280 N  
HETATM    7  C   UNL     1      -8.397  16.276  67.350  1.00  0.00    -0.169 C  
HETATM    8  C   UNL     1     -10.841  14.676  66.048  1.00  0.00    -0.318 C  
HETATM    9  O   UNL     1      -8.337  16.287  66.029  1.00  0.00    -0.296 OA 
HETATM   10  OXT UNL     1      -7.469  16.759  68.003  1.00  0.00    -0.159 OA 
HETATM   11  CA  UNL     1     -12.038  13.804  66.555  1.00  0.00    -0.443 C  
HETATM   12  O   UNL     1     -10.182  14.802  65.069  1.00  0.00    -0.389 OA 
ENDROOT
BRANCH  11  13
HETATM   13  N   UNL     1     -11.734  12.333  66.376  1.00  0.00    -0.388 N  
HETATM   14  C   UNL     1     -10.779  11.436  66.879  1.00  0.00    -0.265 C  
HETATM   15  H   UNL     1     -12.384  11.882  65.732  1.00  0.00     0.000 HD 
HETATM   16  O   UNL     1     -10.786  10.292  66.425  1.00  0.00    -0.144 OA 
BRANCH  14  17
HETATM   17  C   UNL     1      -9.873  11.745  68.060  1.00  0.00    -0.183 C  
BRANCH  17  18
HETATM   18  C   UNL     1      -8.409  11.778  67.915  1.00  0.00    -0.149 A  
HETATM   19  N   UNL     1      -7.693  12.927  68.233  1.00  0.00    -0.129 NA 
HETATM   20  C   UNL     1      -7.666  10.847  67.194  1.00  0.00    -0.123 A  
HETATM   21  N   UNL     1      -5.798  14.055  67.511  1.00  0.00    -0.352 NA 
HETATM   22  H2  UNL     1      -4.940  14.026  66.962  1.00  0.00     0.000 HD 
HETATM   23  S   UNL     1      -6.134  11.502  66.783  1.00  0.00    -0.125 SA 
HETATM   24  H1  UNL     1      -6.051  14.920  67.988  1.00  0.00     0.000 HD 
HETATM   25  C   UNL     1      -6.559  12.957  67.584  1.00  0.00    -0.155 A  
ENDBRANCH  17  18
BRANCH  17  26
HETATM   26  N   UNL     1     -10.208  11.759  69.321  1.00  0.00    -0.416 NA 
HETATM   27  H   UNL     1     -10.031  12.617  69.845  1.00  0.00     0.000 HD 
BRANCH  26  28
HETATM   28  O   UNL     1     -10.792  10.691  70.012  1.00  0.00    -0.274 OA 
HETATM   29  C   UNL     1     -12.030  10.866  70.665  1.00  0.00    -0.368 C  
ENDBRANCH  26  28
ENDBRANCH  17  26
ENDBRANCH  14  17
ENDBRANCH  11  13
TORSDOF 5
ENDMDL
MODEL      131
REMARK 921   NORMALIZED FREE ENERGY PREDICTED BY IDOCK:   -5.12 KCAL/MOL
REMARK 922        TOTAL FREE ENERGY PREDICTED BY IDOCK:   -7.38 KCAL/MOL
REMARK 923 INTER-LIGAND FREE ENERGY PREDICTED BY IDOCK:   -6.56 KCAL/MOL
REMARK 924 INTRA-LIGAND FREE ENERGY PREDICTED BY IDOCK:   -0.81 KCAL/MOL
REMARK 927      BINDING AFFINITY PREDICTED BY RF-SCORE:    0.00 PKD
ROOT
HETATM    1  CE  UNL     1     -12.002  12.576  66.085  1.00  0.00    -0.366 C  
HETATM    2  SD  UNL     1     -12.776  12.743  64.514  1.00  0.00    -0.252 SA 
HETATM    3  CG  UNL     1     -11.606  11.925  63.385  1.00  0.00    -0.382 C  
HETATM    4  CB  UNL     1     -10.391  11.313  63.986  1.00  0.00    -0.430 C  
HETATM    5  CA  UNL     1      -9.941  11.426  65.247  1.00  0.00    -0.258 C  
HETATM    6  N   UNL     1     -10.636  12.180  66.149  1.00  0.00    -0.248 N  
HETATM    7  C   UNL     1      -8.611  10.800  65.538  1.00  0.00    -0.176 C  
HETATM    8  C   UNL     1     -10.359  12.781  67.341  1.00  0.00    -0.222 C  
HETATM    9  O   UNL     1      -8.099  10.935  66.750  1.00  0.00    -0.130 OA 
HETATM   10  OXT UNL     1      -7.995  10.154  64.687  1.00  0.00    -0.142 OA 
HETATM   11  CA  UNL     1     -11.606  13.706  67.145  1.00  0.00    -0.361 C  
HETATM   12  O   UNL     1      -9.411  12.701  68.049  1.00  0.00    -0.197 OA 
ENDROOT
BRANCH  11  13
HETATM   13  N   UNL     1     -11.176  15.149  67.000  1.00  0.00    -0.331 N  
HETATM   14  C   UNL     1     -10.506  16.084  67.803  1.00  0.00    -0.298 C  
HETATM   15  H   UNL     1     -11.438  15.538  66.094  1.00  0.00     0.000 HD 
HETATM   16  O   UNL     1     -10.408  17.232  67.371  1.00  0.00    -0.320 OA 
BRANCH  14  17
HETATM   17  C   UNL     1      -9.753  15.717  69.072  1.00  0.00    -0.241 C  
BRANCH  17  18
HETATM   18  C   UNL     1      -8.286  15.805  69.145  1.00  0.00    -0.247 A  
HETATM   19  N   UNL     1      -7.549  14.810  69.779  1.00  0.00    -0.059 NA 
HETATM   20  C   UNL     1      -7.552  16.961  68.895  1.00  0.00    -0.234 A  
HETATM   21  N   UNL     1      -5.613  14.614  71.043  1.00  0.00    -0.153 NA 
HETATM   22  H2  UNL     1      -4.744  15.048  71.355  1.00  0.00     0.000 HD 
HETATM   23  S   UNL     1      -5.996  16.841  69.610  1.00  0.00    -0.224 SA 
HETATM   24  H1  UNL     1      -5.855  13.686  71.390  1.00  0.00     0.000 HD 
HETATM   25  C   UNL     1      -6.402  15.281  70.192  1.00  0.00    -0.112 A  
ENDBRANCH  17  18
BRANCH  17  26
HETATM   26  N   UNL     1     -10.224  15.070  70.103  1.00  0.00    -0.501 NA 
HETATM   27  H   UNL     1      -9.549  14.637  70.734  1.00  0.00     0.000 HD 
BRANCH  26  28
HETATM   28  O   UNL     1     -11.581  14.923  70.411  1.00  0.00    -0.255 OA 
HETATM   29  C   UNL     1     -12.131  15.608  71.515  1.00  0.00    -0.425 C  
ENDBRANCH  26  28
ENDBRANCH  17  26
ENDBRANCH  14  17
ENDBRANCH  11  13
TORSDOF 5
ENDMDL
MODEL      132
REMARK 921   NORMALIZED FREE ENERGY PREDICTED BY IDOCK:   -5.12 KCAL/MOL
REMARK 922        TOTAL FREE ENERGY PREDICTED BY IDOCK:   -7.37 KCAL/MOL
REMARK 923 INTER-LIGAND FREE ENERGY PREDICTED BY IDOCK:   -6.47 KCAL/MOL
REMARK 924 INTRA-LIGAND FREE ENERGY PREDICTED BY IDOCK:   -0.91 KCAL/MOL
REMARK 927      BINDING AFFINITY PREDICTED BY RF-SCORE:    0.00 PKD
ROOT
HETATM    1  CE  UNL     1      -9.139   8.901  66.594  1.00  0.00    -0.156 C  
HETATM    2  SD  UNL     1      -7.569   8.256  66.130  1.00  0.00    -0.087 SA 
HETATM    3  CG  UNL     1      -7.297   6.917  67.332  1.00  0.00    -0.092 C  
HETATM    4  CB  UNL     1      -8.378   6.657  68.320  1.00  0.00    -0.117 C  
HETATM    5  CA  UNL     1      -9.475   7.392  68.564  1.00  0.00    -0.144 C  
HETATM    6  N   UNL     1      -9.696   8.537  67.853  1.00  0.00    -0.156 N  
HETATM    7  C   UNL     1     -10.330   6.952  69.714  1.00  0.00    -0.206 C  
HETATM    8  C   UNL     1     -10.452   9.659  68.015  1.00  0.00    -0.229 C  
HETATM    9  O   UNL     1     -11.389   7.678  70.031  1.00  0.00    -0.195 OA 
HETATM   10  OXT UNL     1     -10.081   5.929  70.357  1.00  0.00    -0.182 OA 
HETATM   11  CA  UNL     1      -9.546  10.400  66.976  1.00  0.00    -0.166 C  
HETATM   12  O   UNL     1     -11.296   9.919  68.807  1.00  0.00    -0.127 OA 
ENDROOT
BRANCH  11  13
HETATM   13  N   UNL     1      -8.796  11.533  67.641  1.00  0.00    -0.149 N  
HETATM   14  C   UNL     1      -9.106  12.837  68.054  1.00  0.00    -0.207 C  
HETATM   15  H   UNL     1      -7.826  11.287  67.839  1.00  0.00     0.000 HD 
HETATM   16  O   UNL     1      -8.185  13.524  68.494  1.00  0.00    -0.152 OA 
BRANCH  14  17
HETATM   17  C   UNL     1     -10.525  13.375  68.151  1.00  0.00    -0.245 C  
BRANCH  17  18
HETATM   18  C   UNL     1     -11.294  13.731  66.948  1.00  0.00    -0.328 A  
HETATM   19  N   UNL     1     -12.264  12.868  66.449  1.00  0.00    -0.482 NA 
HETATM   20  C   UNL     1     -10.944  14.741  66.058  1.00  0.00    -0.328 A  
HETATM   21  N   UNL     1     -13.139  12.231  64.396  1.00  0.00    -0.777 NA 
HETATM   22  H2  UNL     1     -13.224  12.433  63.400  1.00  0.00     0.000 HD 
HETATM   23  S   UNL     1     -11.715  14.492  64.545  1.00  0.00    -0.385 SA 
HETATM   24  H1  UNL     1     -13.578  11.390  64.769  1.00  0.00     0.000 HD 
HETATM   25  C   UNL     1     -12.453  13.078  65.173  1.00  0.00    -0.496 A  
ENDBRANCH  17  18
BRANCH  17  26
HETATM   26  N   UNL     1     -11.122  13.818  69.223  1.00  0.00    -0.358 NA 
HETATM   27  H   UNL     1     -11.235  13.166  70.001  1.00  0.00     0.000 HD 
BRANCH  26  28
HETATM   28  O   UNL     1     -11.621  15.115  69.392  1.00  0.00    -0.285 OA 
HETATM   29  C   UNL     1     -12.443  15.415  70.499  1.00  0.00    -0.422 C  
ENDBRANCH  26  28
ENDBRANCH  17  26
ENDBRANCH  14  17
ENDBRANCH  11  13
TORSDOF 5
ENDMDL
MODEL      133
REMARK 921   NORMALIZED FREE ENERGY PREDICTED BY IDOCK:   -5.11 KCAL/MOL
REMARK 922        TOTAL FREE ENERGY PREDICTED BY IDOCK:   -7.37 KCAL/MOL
REMARK 923 INTER-LIGAND FREE ENERGY PREDICTED BY IDOCK:   -6.49 KCAL/MOL
REMARK 924 INTRA-LIGAND FREE ENERGY PREDICTED BY IDOCK:   -0.88 KCAL/MOL
REMARK 927      BINDING AFFINITY PREDICTED BY RF-SCORE:    0.00 PKD
ROOT
HETATM    1  CE  UNL     1      -9.537   5.809  69.727  1.00  0.00    -0.157 C  
HETATM    2  SD  UNL     1      -9.134   4.617  70.957  1.00  0.00    -0.139 SA 
HETATM    3  CG  UNL     1      -8.933   3.082  70.000  1.00  0.00    -0.104 C  
HETATM    4  CB  UNL     1      -9.092   3.172  68.523  1.00  0.00    -0.210 C  
HETATM    5  CA  UNL     1      -9.538   4.211  67.798  1.00  0.00    -0.155 C  
HETATM    6  N   UNL     1      -9.908   5.366  68.425  1.00  0.00    -0.139 N  
HETATM    7  C   UNL     1      -9.716   3.970  66.330  1.00  0.00    -0.187 C  
HETATM    8  C   UNL     1     -10.674   6.449  68.110  1.00  0.00    -0.291 C  
HETATM    9  O   UNL     1     -10.208   4.945  65.583  1.00  0.00    -0.182 OA 
HETATM   10  OXT UNL     1      -9.402   2.901  65.802  1.00  0.00    -0.139 OA 
HETATM   11  CA  UNL     1     -10.803   6.781  69.634  1.00  0.00    -0.271 C  
HETATM   12  O   UNL     1     -11.160   6.783  67.080  1.00  0.00    -0.384 OA 
ENDROOT
BRANCH  11  13
HETATM   13  N   UNL     1     -12.240   6.646  70.085  1.00  0.00    -0.539 N  
HETATM   14  C   UNL     1     -13.028   7.193  71.108  1.00  0.00    -0.257 C  
HETATM   15  H   UNL     1     -12.767   5.996  69.500  1.00  0.00     0.000 HD 
HETATM   16  O   UNL     1     -14.177   6.767  71.226  1.00  0.00    -0.106 OA 
BRANCH  14  17
HETATM   17  C   UNL     1     -12.606   8.388  71.948  1.00  0.00    -0.349 C  
BRANCH  17  18
HETATM   18  C   UNL     1     -12.818   9.767  71.480  1.00  0.00    -0.405 A  
HETATM   19  N   UNL     1     -12.057  10.284  70.437  1.00  0.00    -0.289 NA 
HETATM   20  C   UNL     1     -13.520  10.740  72.185  1.00  0.00    -0.122 A  
HETATM   21  N   UNL     1     -11.148  12.316  69.784  1.00  0.00    -0.468 NA 
HETATM   22  H2  UNL     1     -11.133  13.329  69.906  1.00  0.00     0.000 HD 
HETATM   23  S   UNL     1     -13.084  12.305  71.631  1.00  0.00    -0.184 SA 
HETATM   24  H1  UNL     1     -10.507  11.890  69.115  1.00  0.00     0.000 HD 
HETATM   25  C   UNL     1     -12.007  11.588  70.507  1.00  0.00    -0.344 A  
ENDBRANCH  17  18
BRANCH  17  26
HETATM   26  N   UNL     1     -11.820   8.374  72.990  1.00  0.00    -0.372 NA 
HETATM   27  H   UNL     1     -12.140   8.866  73.826  1.00  0.00     0.000 HD 
BRANCH  26  28
HETATM   28  O   UNL     1     -10.575   7.739  73.053  1.00  0.00    -0.336 OA 
HETATM   29  C   UNL     1     -10.383   6.647  73.925  1.00  0.00    -0.360 C  
ENDBRANCH  26  28
ENDBRANCH  17  26
ENDBRANCH  14  17
ENDBRANCH  11  13
TORSDOF 5
ENDMDL
MODEL      134
REMARK 921   NORMALIZED FREE ENERGY PREDICTED BY IDOCK:   -5.11 KCAL/MOL
REMARK 922        TOTAL FREE ENERGY PREDICTED BY IDOCK:   -7.36 KCAL/MOL
REMARK 923 INTER-LIGAND FREE ENERGY PREDICTED BY IDOCK:   -6.39 KCAL/MOL
REMARK 924 INTRA-LIGAND FREE ENERGY PREDICTED BY IDOCK:   -0.96 KCAL/MOL
REMARK 927      BINDING AFFINITY PREDICTED BY RF-SCORE:    0.00 PKD
ROOT
HETATM    1  CE  UNL     1      -7.778  16.427  69.141  1.00  0.00    -0.220 C  
HETATM    2  SD  UNL     1      -6.125  16.728  69.663  1.00  0.00    -0.222 SA 
HETATM    3  CG  UNL     1      -5.581  18.077  68.569  1.00  0.00    -0.170 C  
HETATM    4  CB  UNL     1      -6.573  18.610  67.597  1.00  0.00    -0.205 C  
HETATM    5  CA  UNL     1      -7.783  18.115  67.290  1.00  0.00    -0.217 C  
HETATM    6  N   UNL     1      -8.230  16.983  67.910  1.00  0.00    -0.196 N  
HETATM    7  C   UNL     1      -8.516  18.792  66.172  1.00  0.00    -0.162 C  
HETATM    8  C   UNL     1      -9.180  16.039  67.658  1.00  0.00    -0.205 C  
HETATM    9  O   UNL     1      -9.686  18.305  65.794  1.00  0.00    -0.494 OA 
HETATM   10  OXT UNL     1      -8.066  19.795  65.611  1.00  0.00    -0.384 OA 
HETATM   11  CA  UNL     1      -8.451  15.065  68.642  1.00  0.00    -0.168 C  
HETATM   12  O   UNL     1     -10.041  16.003  66.842  1.00  0.00    -0.253 OA 
ENDROOT
BRANCH  11  13
HETATM   13  N   UNL     1      -7.914  13.864  67.897  1.00  0.00    -0.144 N  
HETATM   14  C   UNL     1      -8.471  12.739  67.271  1.00  0.00    -0.194 C  
HETATM   15  H   UNL     1      -6.896  13.874  67.834  1.00  0.00     0.000 HD 
HETATM   16  O   UNL     1      -7.691  11.895  66.829  1.00  0.00    -0.135 OA 
BRANCH  14  17
HETATM   17  C   UNL     1      -9.952  12.596  66.956  1.00  0.00    -0.219 C  
BRANCH  17  18
HETATM   18  C   UNL     1     -10.933  12.288  68.008  1.00  0.00    -0.225 A  
HETATM   19  N   UNL     1     -11.609  13.311  68.665  1.00  0.00    -0.303 NA 
HETATM   20  C   UNL     1     -11.050  11.054  68.641  1.00  0.00    -0.240 A  
HETATM   21  N   UNL     1     -12.456  13.763  70.778  1.00  0.00    -0.360 NA 
HETATM   22  H2  UNL     1     -12.723  13.397  71.692  1.00  0.00     0.000 HD 
HETATM   23  S   UNL     1     -11.867  11.232  70.140  1.00  0.00    -0.373 SA 
HETATM   24  H1  UNL     1     -12.540  14.764  70.602  1.00  0.00     0.000 HD 
HETATM   25  C   UNL     1     -12.007  12.915  69.845  1.00  0.00    -0.307 A  
ENDBRANCH  17  18
BRANCH  17  26
HETATM   26  N   UNL     1     -10.492  12.468  65.775  1.00  0.00    -0.265 NA 
HETATM   27  H   UNL     1     -10.360  11.579  65.293  1.00  0.00     0.000 HD 
BRANCH  26  28
HETATM   28  O   UNL     1     -11.237  13.454  65.118  1.00  0.00    -0.297 OA 
HETATM   29  C   UNL     1     -12.647  13.385  65.111  1.00  0.00    -0.440 C  
ENDBRANCH  26  28
ENDBRANCH  17  26
ENDBRANCH  14  17
ENDBRANCH  11  13
TORSDOF 5
ENDMDL
MODEL      135
REMARK 921   NORMALIZED FREE ENERGY PREDICTED BY IDOCK:   -5.10 KCAL/MOL
REMARK 922        TOTAL FREE ENERGY PREDICTED BY IDOCK:   -7.36 KCAL/MOL
REMARK 923 INTER-LIGAND FREE ENERGY PREDICTED BY IDOCK:   -6.51 KCAL/MOL
REMARK 924 INTRA-LIGAND FREE ENERGY PREDICTED BY IDOCK:   -0.85 KCAL/MOL
REMARK 927      BINDING AFFINITY PREDICTED BY RF-SCORE:    0.00 PKD
ROOT
HETATM    1  CE  UNL     1      -9.377  10.710  65.926  1.00  0.00    -0.190 C  
HETATM    2  SD  UNL     1      -8.486   9.927  64.627  1.00  0.00    -0.187 SA 
HETATM    3  CG  UNL     1      -9.342  10.504  63.128  1.00  0.00    -0.320 C  
HETATM    4  CB  UNL     1     -10.471  11.455  63.309  1.00  0.00    -0.397 C  
HETATM    5  CA  UNL     1     -11.068  11.827  64.454  1.00  0.00    -0.334 C  
HETATM    6  N   UNL     1     -10.638  11.309  65.642  1.00  0.00    -0.259 N  
HETATM    7  C   UNL     1     -12.273  12.708  64.321  1.00  0.00    -0.445 C  
HETATM    8  C   UNL     1     -11.154  11.175  66.896  1.00  0.00    -0.247 C  
HETATM    9  O   UNL     1     -12.930  13.052  65.416  1.00  0.00    -0.626 OA 
HETATM   10  OXT UNL     1     -12.654  13.130  63.226  1.00  0.00    -0.700 OA 
HETATM   11  CA  UNL     1     -10.101  10.057  67.194  1.00  0.00    -0.212 C  
HETATM   12  O   UNL     1     -12.140  11.624  67.382  1.00  0.00    -0.605 OA 
ENDROOT
BRANCH  11  13
HETATM   13  N   UNL     1     -10.787   8.729  67.418  1.00  0.00    -0.451 N  
HETATM   14  C   UNL     1     -10.377   7.427  67.743  1.00  0.00    -0.213 C  
HETATM   15  H   UNL     1     -11.799   8.796  67.304  1.00  0.00     0.000 HD 
HETATM   16  O   UNL     1     -11.239   6.550  67.755  1.00  0.00    -0.305 OA 
BRANCH  14  17
HETATM   17  C   UNL     1      -8.983   7.085  68.247  1.00  0.00    -0.128 C  
BRANCH  17  18
HETATM   18  C   UNL     1      -8.047   6.292  67.435  1.00  0.00    -0.109 A  
HETATM   19  N   UNL     1      -7.312   6.891  66.418  1.00  0.00    -0.072 NA 
HETATM   20  C   UNL     1      -8.032   4.901  67.382  1.00  0.00    -0.095 A  
HETATM   21  N   UNL     1      -6.474   6.349  64.323  1.00  0.00    -0.033 NA 
HETATM   22  H2  UNL     1      -6.252   5.614  63.651  1.00  0.00     0.000 HD 
HETATM   23  S   UNL     1      -7.233   4.371  65.958  1.00  0.00    -0.077 SA 
HETATM   24  H1  UNL     1      -6.315   7.321  64.062  1.00  0.00     0.000 HD 
HETATM   25  C   UNL     1      -6.966   6.007  65.520  1.00  0.00    -0.060 A  
ENDBRANCH  17  18
BRANCH  17  26
HETATM   26  N   UNL     1      -8.544   7.200  69.471  1.00  0.00    -0.134 NA 
HETATM   27  H   UNL     1      -7.832   6.537  69.778  1.00  0.00     0.000 HD 
BRANCH  26  28
HETATM   28  O   UNL     1      -8.971   8.160  70.395  1.00  0.00    -0.142 OA 
HETATM   29  C   UNL     1      -8.092   9.184  70.806  1.00  0.00    -0.174 C  
ENDBRANCH  26  28
ENDBRANCH  17  26
ENDBRANCH  14  17
ENDBRANCH  11  13
TORSDOF 5
ENDMDL
MODEL      136
REMARK 921   NORMALIZED FREE ENERGY PREDICTED BY IDOCK:   -5.09 KCAL/MOL
REMARK 922        TOTAL FREE ENERGY PREDICTED BY IDOCK:   -7.33 KCAL/MOL
REMARK 923 INTER-LIGAND FREE ENERGY PREDICTED BY IDOCK:   -6.67 KCAL/MOL
REMARK 924 INTRA-LIGAND FREE ENERGY PREDICTED BY IDOCK:   -0.67 KCAL/MOL
REMARK 927      BINDING AFFINITY PREDICTED BY RF-SCORE:    0.00 PKD
ROOT
HETATM    1  CE  UNL     1      -9.101  11.566  68.368  1.00  0.00    -0.185 C  
HETATM    2  SD  UNL     1      -7.403  11.883  68.700  1.00  0.00    -0.109 SA 
HETATM    3  CG  UNL     1      -6.990  10.649  69.973  1.00  0.00    -0.126 C  
HETATM    4  CB  UNL     1      -8.064   9.703  70.381  1.00  0.00    -0.198 C  
HETATM    5  CA  UNL     1      -9.367   9.738  70.059  1.00  0.00    -0.235 C  
HETATM    6  N   UNL     1      -9.841  10.738  69.259  1.00  0.00    -0.181 N  
HETATM    7  C   UNL     1     -10.245   8.721  70.723  1.00  0.00    -0.211 C  
HETATM    8  C   UNL     1     -11.062  11.285  68.995  1.00  0.00    -0.244 C  
HETATM    9  O   UNL     1     -11.545   8.753  70.484  1.00  0.00    -0.244 OA 
HETATM   10  OXT UNL     1      -9.786   7.851  71.468  1.00  0.00    -0.161 OA 
HETATM   11  CA  UNL     1     -10.350  12.562  68.436  1.00  0.00    -0.230 C  
HETATM   12  O   UNL     1     -12.153  10.936  69.305  1.00  0.00    -0.332 OA 
ENDROOT
BRANCH  11  13
HETATM   13  N   UNL     1     -10.663  13.763  69.300  1.00  0.00    -0.429 N  
HETATM   14  C   UNL     1     -10.636  15.156  69.132  1.00  0.00    -0.256 C  
HETATM   15  H   UNL     1     -10.969  13.494  70.235  1.00  0.00     0.000 HD 
HETATM   16  O   UNL     1     -10.882  15.848  70.119  1.00  0.00    -0.309 OA 
BRANCH  14  17
HETATM   17  C   UNL     1     -10.500  15.839  67.780  1.00  0.00    -0.283 C  
BRANCH  17  18
HETATM   18  C   UNL     1      -9.951  17.198  67.660  1.00  0.00    -0.283 A  
HETATM   19  N   UNL     1      -8.696  17.502  68.178  1.00  0.00    -0.254 NA 
HETATM   20  C   UNL     1     -10.698  18.325  67.328  1.00  0.00    -0.337 A  
HETATM   21  N   UNL     1      -7.610  19.295  69.172  1.00  0.00    -0.310 NA 
HETATM   22  H2  UNL     1      -7.610  20.295  69.371  1.00  0.00     0.000 HD 
HETATM   23  S   UNL     1      -9.880  19.748  67.829  1.00  0.00    -0.423 SA 
HETATM   24  H1  UNL     1      -6.851  18.719  69.536  1.00  0.00     0.000 HD 
HETATM   25  C   UNL     1      -8.605  18.779  68.441  1.00  0.00    -0.341 A  
ENDBRANCH  17  18
BRANCH  17  26
HETATM   26  N   UNL     1     -11.049  15.466  66.656  1.00  0.00    -0.283 NA 
HETATM   27  H   UNL     1     -12.062  15.554  66.577  1.00  0.00     0.000 HD 
BRANCH  26  28
HETATM   28  O   UNL     1     -10.358  14.955  65.552  1.00  0.00    -0.312 OA 
HETATM   29  C   UNL     1     -10.852  13.820  64.874  1.00  0.00    -0.391 C  
ENDBRANCH  26  28
ENDBRANCH  17  26
ENDBRANCH  14  17
ENDBRANCH  11  13
TORSDOF 5
ENDMDL
MODEL      137
REMARK 921   NORMALIZED FREE ENERGY PREDICTED BY IDOCK:   -5.07 KCAL/MOL
REMARK 922        TOTAL FREE ENERGY PREDICTED BY IDOCK:   -7.31 KCAL/MOL
REMARK 923 INTER-LIGAND FREE ENERGY PREDICTED BY IDOCK:   -6.58 KCAL/MOL
REMARK 924 INTRA-LIGAND FREE ENERGY PREDICTED BY IDOCK:   -0.73 KCAL/MOL
REMARK 927      BINDING AFFINITY PREDICTED BY RF-SCORE:    0.00 PKD
ROOT
HETATM    1  CE  UNL     1      -9.492   7.555  70.264  1.00  0.00    -0.165 C  
HETATM    2  SD  UNL     1      -9.815   6.482  71.620  1.00  0.00    -0.165 SA 
HETATM    3  CG  UNL     1     -10.102   4.873  70.819  1.00  0.00    -0.233 C  
HETATM    4  CB  UNL     1      -9.969   4.814  69.338  1.00  0.00    -0.269 C  
HETATM    5  CA  UNL     1      -9.828   5.834  68.476  1.00  0.00    -0.141 C  
HETATM    6  N   UNL     1      -9.793   7.117  68.943  1.00  0.00    -0.153 N  
HETATM    7  C   UNL     1      -9.846   5.482  67.020  1.00  0.00    -0.158 C  
HETATM    8  C   UNL     1      -9.990   8.357  68.414  1.00  0.00    -0.187 C  
HETATM    9  O   UNL     1      -9.771   6.459  66.130  1.00  0.00    -0.085 OA 
HETATM   10  OXT UNL     1      -9.913   4.313  66.632  1.00  0.00    -0.224 OA 
HETATM   11  CA  UNL     1     -10.219   8.919  69.856  1.00  0.00    -0.200 C  
HETATM   12  O   UNL     1     -10.123   8.709  67.288  1.00  0.00    -0.200 OA 
ENDROOT
BRANCH  11  13
HETATM   13  N   UNL     1     -11.640   9.415  70.011  1.00  0.00    -0.445 N  
HETATM   14  C   UNL     1     -12.328  10.601  69.716  1.00  0.00    -0.194 C  
HETATM   15  H   UNL     1     -12.248   8.713  70.434  1.00  0.00     0.000 HD 
HETATM   16  O   UNL     1     -13.502  10.678  70.076  1.00  0.00     0.134 OA 
BRANCH  14  17
HETATM   17  C   UNL     1     -11.765  11.704  68.833  1.00  0.00    -0.334 C  
BRANCH  17  18
HETATM   18  C   UNL     1     -11.595  13.076  69.335  1.00  0.00    -0.299 A  
HETATM   19  N   UNL     1     -12.535  13.637  70.192  1.00  0.00    -0.282 NA 
HETATM   20  C   UNL     1     -10.714  14.010  68.796  1.00  0.00    -0.259 A  
HETATM   21  N   UNL     1     -13.469  15.714  70.636  1.00  0.00    -0.800 NA 
HETATM   22  H2  UNL     1     -13.411  16.725  70.514  1.00  0.00     0.000 HD 
HETATM   23  S   UNL     1     -11.187  15.598  69.243  1.00  0.00    -0.349 SA 
HETATM   24  H1  UNL     1     -14.256  15.323  71.154  1.00  0.00     0.000 HD 
HETATM   25  C   UNL     1     -12.510  14.941  70.113  1.00  0.00    -0.306 A  
ENDBRANCH  17  18
BRANCH  17  26
HETATM   26  N   UNL     1     -11.615  11.669  67.537  1.00  0.00    -0.531 NA 
HETATM   27  H   UNL     1     -10.809  11.161  67.171  1.00  0.00     0.000 HD 
BRANCH  26  28
HETATM   28  O   UNL     1     -12.472  12.272  66.609  1.00  0.00    -0.300 OA 
HETATM   29  C   UNL     1     -11.939  12.940  65.487  1.00  0.00    -0.436 C  
ENDBRANCH  26  28
ENDBRANCH  17  26
ENDBRANCH  14  17
ENDBRANCH  11  13
TORSDOF 5
ENDMDL
MODEL      138
REMARK 921   NORMALIZED FREE ENERGY PREDICTED BY IDOCK:   -5.06 KCAL/MOL
REMARK 922        TOTAL FREE ENERGY PREDICTED BY IDOCK:   -7.30 KCAL/MOL
REMARK 923 INTER-LIGAND FREE ENERGY PREDICTED BY IDOCK:   -6.36 KCAL/MOL
REMARK 924 INTRA-LIGAND FREE ENERGY PREDICTED BY IDOCK:   -0.94 KCAL/MOL
REMARK 927      BINDING AFFINITY PREDICTED BY RF-SCORE:    0.00 PKD
ROOT
HETATM    1  CE  UNL     1      -9.661  13.671  67.067  1.00  0.00    -0.251 C  
HETATM    2  SD  UNL     1      -8.826  15.219  67.047  1.00  0.00    -0.255 SA 
HETATM    3  CG  UNL     1      -9.619  16.102  65.667  1.00  0.00    -0.150 C  
HETATM    4  CB  UNL     1     -10.725  15.405  64.956  1.00  0.00    -0.460 C  
HETATM    5  CA  UNL     1     -11.117  14.127  65.081  1.00  0.00    -0.348 C  
HETATM    6  N   UNL     1     -10.467  13.301  65.953  1.00  0.00    -0.280 N  
HETATM    7  C   UNL     1     -12.183  13.662  64.137  1.00  0.00    -0.399 C  
HETATM    8  C   UNL     1     -10.342  11.953  66.117  1.00  0.00    -0.226 C  
HETATM    9  O   UNL     1     -12.561  12.395  64.181  1.00  0.00    -0.575 OA 
HETATM   10  OXT UNL     1     -12.725  14.429  63.337  1.00  0.00    -0.689 OA 
HETATM   11  CA  UNL     1      -9.056  12.193  66.976  1.00  0.00    -0.198 C  
HETATM   12  O   UNL     1     -10.911  11.052  65.596  1.00  0.00    -0.153 OA 
ENDROOT
BRANCH  11  13
HETATM   13  N   UNL     1      -7.842  11.618  66.282  1.00  0.00    -0.379 N  
HETATM   14  C   UNL     1      -7.071  10.453  66.407  1.00  0.00    -0.118 C  
HETATM   15  H   UNL     1      -7.499  12.228  65.540  1.00  0.00     0.000 HD 
HETATM   16  O   UNL     1      -6.066  10.362  65.703  1.00  0.00    -0.101 OA 
BRANCH  14  17
HETATM   17  C   UNL     1      -7.501   9.241  67.219  1.00  0.00    -0.091 C  
BRANCH  17  18
HETATM   18  C   UNL     1      -8.330   8.178  66.630  1.00  0.00    -0.111 A  
HETATM   19  N   UNL     1      -9.705   8.155  66.842  1.00  0.00    -0.204 NA 
HETATM   20  C   UNL     1      -7.833   6.989  66.106  1.00  0.00    -0.102 A  
HETATM   21  N   UNL     1     -11.402   6.594  67.099  1.00  0.00    -0.779 NA 
HETATM   22  H2  UNL     1     -11.696   5.622  66.999  1.00  0.00     0.000 HD 
HETATM   23  S   UNL     1      -9.072   5.803  66.045  1.00  0.00    -0.131 SA 
HETATM   24  H1  UNL     1     -12.055   7.270  67.494  1.00  0.00     0.000 HD 
HETATM   25  C   UNL     1     -10.170   6.941  66.709  1.00  0.00    -0.206 A  
ENDBRANCH  17  18
BRANCH  17  26
HETATM   26  N   UNL     1      -7.436   9.105  68.516  1.00  0.00    -0.081 NA 
HETATM   27  H   UNL     1      -7.968   9.765  69.085  1.00  0.00     0.000 HD 
BRANCH  26  28
HETATM   28  O   UNL     1      -6.696   8.126  69.187  1.00  0.00    -0.046 OA 
HETATM   29  C   UNL     1      -5.322   7.967  68.910  1.00  0.00    -0.026 C  
ENDBRANCH  26  28
ENDBRANCH  17  26
ENDBRANCH  14  17
ENDBRANCH  11  13
TORSDOF 5
ENDMDL
MODEL      139
REMARK 921   NORMALIZED FREE ENERGY PREDICTED BY IDOCK:   -5.06 KCAL/MOL
REMARK 922        TOTAL FREE ENERGY PREDICTED BY IDOCK:   -7.29 KCAL/MOL
REMARK 923 INTER-LIGAND FREE ENERGY PREDICTED BY IDOCK:   -6.38 KCAL/MOL
REMARK 924 INTRA-LIGAND FREE ENERGY PREDICTED BY IDOCK:   -0.92 KCAL/MOL
REMARK 927      BINDING AFFINITY PREDICTED BY RF-SCORE:    0.00 PKD
ROOT
HETATM    1  CE  UNL     1      -7.546  16.967  66.843  1.00  0.00    -0.215 C  
HETATM    2  SD  UNL     1      -6.355  17.467  65.648  1.00  0.00     0.319 SA 
HETATM    3  CG  UNL     1      -6.757  19.220  65.369  1.00  0.00    -0.258 C  
HETATM    4  CB  UNL     1      -7.868  19.802  66.169  1.00  0.00    -0.344 C  
HETATM    5  CA  UNL     1      -8.744  19.163  66.962  1.00  0.00    -0.294 C  
HETATM    6  N   UNL     1      -8.666  17.807  67.103  1.00  0.00    -0.240 N  
HETATM    7  C   UNL     1      -9.844  19.996  67.547  1.00  0.00    -0.416 C  
HETATM    8  C   UNL     1      -9.507  16.815  67.512  1.00  0.00    -0.237 C  
HETATM    9  O   UNL     1     -10.765  19.401  68.287  1.00  0.00    -0.288 OA 
HETATM   10  OXT UNL     1      -9.902  21.215  67.371  1.00  0.00    -0.312 OA 
HETATM   11  CA  UNL     1      -8.603  15.769  66.780  1.00  0.00    -0.270 C  
HETATM   12  O   UNL     1     -10.575  16.866  68.026  1.00  0.00    -0.339 OA 
ENDROOT
BRANCH  11  13
HETATM   13  N   UNL     1      -9.359  15.121  65.641  1.00  0.00    -0.438 N  
HETATM   14  C   UNL     1      -9.747  13.816  65.306  1.00  0.00    -0.004 C  
HETATM   15  H   UNL     1      -9.661  15.803  64.944  1.00  0.00     0.000 HD 
HETATM   16  O   UNL     1     -10.294  13.651  64.216  1.00  0.00    -0.376 OA 
BRANCH  14  17
HETATM   17  C   UNL     1      -9.692  12.646  66.277  1.00  0.00    -0.259 C  
BRANCH  17  18
HETATM   18  C   UNL     1     -10.721  12.458  67.311  1.00  0.00    -0.230 A  
HETATM   19  N   UNL     1     -11.044  13.493  68.182  1.00  0.00    -0.247 NA 
HETATM   20  C   UNL     1     -11.219  11.223  67.714  1.00  0.00    -0.291 A  
HETATM   21  N   UNL     1     -11.710  13.770  70.388  1.00  0.00    -0.504 NA 
HETATM   22  H2  UNL     1     -12.078  13.336  71.234  1.00  0.00     0.000 HD 
HETATM   23  S   UNL     1     -11.940  11.351  69.266  1.00  0.00    -0.307 SA 
HETATM   24  H1  UNL     1     -11.476  14.762  70.403  1.00  0.00     0.000 HD 
HETATM   25  C   UNL     1     -11.547  13.020  69.291  1.00  0.00    -0.310 A  
ENDBRANCH  17  18
BRANCH  17  26
HETATM   26  N   UNL     1      -8.675  11.858  66.495  1.00  0.00    -0.276 NA 
HETATM   27  H   UNL     1      -8.072  12.079  67.289  1.00  0.00     0.000 HD 
BRANCH  26  28
HETATM   28  O   UNL     1      -8.345  10.735  65.728  1.00  0.00    -0.164 OA 
HETATM   29  C   UNL     1      -7.001  10.493  65.373  1.00  0.00    -0.074 C  
ENDBRANCH  26  28
ENDBRANCH  17  26
ENDBRANCH  14  17
ENDBRANCH  11  13
TORSDOF 5
ENDMDL
MODEL      140
REMARK 921   NORMALIZED FREE ENERGY PREDICTED BY IDOCK:   -5.05 KCAL/MOL
REMARK 922        TOTAL FREE ENERGY PREDICTED BY IDOCK:   -7.29 KCAL/MOL
REMARK 923 INTER-LIGAND FREE ENERGY PREDICTED BY IDOCK:   -6.15 KCAL/MOL
REMARK 924 INTRA-LIGAND FREE ENERGY PREDICTED BY IDOCK:   -1.14 KCAL/MOL
REMARK 927      BINDING AFFINITY PREDICTED BY RF-SCORE:    0.00 PKD
ROOT
HETATM    1  CE  UNL     1      -9.054  17.637  66.428  1.00  0.00    -0.234 C  
HETATM    2  SD  UNL     1     -10.605  17.961  67.193  1.00  0.00    -0.251 SA 
HETATM    3  CG  UNL     1     -10.143  18.856  68.708  1.00  0.00    -0.355 C  
HETATM    4  CB  UNL     1      -8.698  19.132  68.925  1.00  0.00    -0.319 C  
HETATM    5  CA  UNL     1      -7.649  18.659  68.232  1.00  0.00    -0.284 C  
HETATM    6  N   UNL     1      -7.858  17.814  67.180  1.00  0.00    -0.206 N  
HETATM    7  C   UNL     1      -6.290  19.007  68.760  1.00  0.00    -0.247 C  
HETATM    8  C   UNL     1      -7.108  16.912  66.485  1.00  0.00    -0.246 C  
HETATM    9  O   UNL     1      -5.227  18.515  68.146  1.00  0.00    -0.168 OA 
HETATM   10  OXT UNL     1      -6.140  19.747  69.735  1.00  0.00    -0.288 OA 
HETATM   11  CA  UNL     1      -8.423  16.242  65.966  1.00  0.00    -0.150 C  
HETATM   12  O   UNL     1      -5.942  16.688  66.510  1.00  0.00    -0.313 OA 
ENDROOT
BRANCH  11  13
HETATM   13  N   UNL     1      -8.544  14.832  66.497  1.00  0.00    -0.446 N  
HETATM   14  C   UNL     1      -8.622  14.239  67.767  1.00  0.00    -0.177 C  
HETATM   15  H   UNL     1      -8.576  14.140  65.748  1.00  0.00     0.000 HD 
HETATM   16  O   UNL     1      -8.623  13.010  67.817  1.00  0.00    -0.164 OA 
BRANCH  14  17
HETATM   17  C   UNL     1      -8.883  15.019  69.045  1.00  0.00    -0.205 C  
BRANCH  17  18
HETATM   18  C   UNL     1     -10.250  15.366  69.467  1.00  0.00    -0.270 A  
HETATM   19  N   UNL     1     -10.462  16.200  70.559  1.00  0.00     0.051 NA 
HETATM   20  C   UNL     1     -11.397  14.694  69.055  1.00  0.00    -0.277 A  
HETATM   21  N   UNL     1     -11.999  16.463  72.278  1.00  0.00    -0.615 NA 
HETATM   22  H2  UNL     1     -12.921  16.232  72.647  1.00  0.00     0.000 HD 
HETATM   23  S   UNL     1     -12.684  14.992  70.150  1.00  0.00    -0.165 SA 
HETATM   24  H1  UNL     1     -11.378  17.052  72.832  1.00  0.00     0.000 HD 
HETATM   25  C   UNL     1     -11.640  15.983  71.081  1.00  0.00    -0.443 A  
ENDBRANCH  17  18
BRANCH  17  26
HETATM   26  N   UNL     1      -8.006  15.674  69.756  1.00  0.00    -0.081 NA 
HETATM   27  H   UNL     1      -8.358  16.256  70.517  1.00  0.00     0.000 HD 
BRANCH  26  28
HETATM   28  O   UNL     1      -6.621  15.641  69.557  1.00  0.00    -0.157 OA 
HETATM   29  C   UNL     1      -5.851  14.608  70.131  1.00  0.00    -0.139 C  
ENDBRANCH  26  28
ENDBRANCH  17  26
ENDBRANCH  14  17
ENDBRANCH  11  13
TORSDOF 5
ENDMDL
MODEL      141
REMARK 921   NORMALIZED FREE ENERGY PREDICTED BY IDOCK:   -5.03 KCAL/MOL
REMARK 922        TOTAL FREE ENERGY PREDICTED BY IDOCK:   -7.27 KCAL/MOL
REMARK 923 INTER-LIGAND FREE ENERGY PREDICTED BY IDOCK:   -6.56 KCAL/MOL
REMARK 924 INTRA-LIGAND FREE ENERGY PREDICTED BY IDOCK:   -0.71 KCAL/MOL
REMARK 927      BINDING AFFINITY PREDICTED BY RF-SCORE:    0.00 PKD
ROOT
HETATM    1  CE  UNL     1     -11.453   7.009  69.874  1.00  0.00    -0.176 C  
HETATM    2  SD  UNL     1     -10.795   5.999  68.593  1.00  0.00    -0.280 SA 
HETATM    3  CG  UNL     1      -9.870   4.723  69.502  1.00  0.00    -0.222 C  
HETATM    4  CB  UNL     1      -9.907   4.781  70.988  1.00  0.00    -0.267 C  
HETATM    5  CA  UNL     1     -10.397   5.757  71.769  1.00  0.00    -0.221 C  
HETATM    6  N   UNL     1     -10.949   6.869  71.198  1.00  0.00    -0.244 N  
HETATM    7  C   UNL     1     -10.181   5.603  73.244  1.00  0.00    -0.197 C  
HETATM    8  C   UNL     1     -11.229   8.140  71.602  1.00  0.00    -0.261 C  
HETATM    9  O   UNL     1     -10.593   6.567  74.049  1.00  0.00    -0.310 OA 
HETATM   10  OXT UNL     1      -9.648   4.599  73.723  1.00  0.00    -0.122 OA 
HETATM   11  CA  UNL     1     -11.298   8.584  70.103  1.00  0.00    -0.069 C  
HETATM   12  O   UNL     1     -11.196   8.638  72.679  1.00  0.00    -0.271 OA 
ENDROOT
BRANCH  11  13
HETATM   13  N   UNL     1     -10.190   9.566  69.791  1.00  0.00    -0.212 N  
HETATM   14  C   UNL     1     -10.083  10.762  69.065  1.00  0.00    -0.211 C  
HETATM   15  H   UNL     1      -9.303   9.291  70.213  1.00  0.00     0.000 HD 
HETATM   16  O   UNL     1      -8.961  11.255  68.953  1.00  0.00    -0.142 OA 
BRANCH  14  17
HETATM   17  C   UNL     1     -11.280  11.559  68.573  1.00  0.00    -0.258 C  
BRANCH  17  18
HETATM   18  C   UNL     1     -12.022  12.460  69.469  1.00  0.00    -0.261 A  
HETATM   19  N   UNL     1     -12.175  13.805  69.150  1.00  0.00    -0.319 NA 
HETATM   20  C   UNL     1     -12.350  12.166  70.789  1.00  0.00    -0.297 A  
HETATM   21  N   UNL     1     -12.305  15.850  70.239  1.00  0.00    -0.389 NA 
HETATM   22  H2  UNL     1     -12.439  16.346  71.120  1.00  0.00     0.000 HD 
HETATM   23  S   UNL     1     -12.685  13.610  71.654  1.00  0.00    -0.263 SA 
HETATM   24  H1  UNL     1     -12.122  16.387  69.392  1.00  0.00     0.000 HD 
HETATM   25  C   UNL     1     -12.375  14.514  70.230  1.00  0.00    -0.349 A  
ENDBRANCH  17  18
BRANCH  17  26
HETATM   26  N   UNL     1     -11.938  11.377  67.461  1.00  0.00    -0.601 NA 
HETATM   27  H   UNL     1     -12.943  11.217  67.530  1.00  0.00     0.000 HD 
BRANCH  26  28
HETATM   28  O   UNL     1     -11.374  11.385  66.180  1.00  0.00    -0.225 OA 
HETATM   29  C   UNL     1     -11.672  12.433  65.284  1.00  0.00    -0.390 C  
ENDBRANCH  26  28
ENDBRANCH  17  26
ENDBRANCH  14  17
ENDBRANCH  11  13
TORSDOF 5
ENDMDL
MODEL      142
REMARK 921   NORMALIZED FREE ENERGY PREDICTED BY IDOCK:   -5.01 KCAL/MOL
REMARK 922        TOTAL FREE ENERGY PREDICTED BY IDOCK:   -7.24 KCAL/MOL
REMARK 923 INTER-LIGAND FREE ENERGY PREDICTED BY IDOCK:   -6.28 KCAL/MOL
REMARK 924 INTRA-LIGAND FREE ENERGY PREDICTED BY IDOCK:   -0.96 KCAL/MOL
REMARK 927      BINDING AFFINITY PREDICTED BY RF-SCORE:    0.00 PKD
ROOT
HETATM    1  CE  UNL     1     -11.536  10.336  70.710  1.00  0.00    -0.351 C  
HETATM    2  SD  UNL     1     -13.281  10.124  70.636  1.00  0.00     0.037 SA 
HETATM    3  CG  UNL     1     -13.583   8.754  71.795  1.00  0.00    -0.410 C  
HETATM    4  CB  UNL     1     -12.407   8.197  72.516  1.00  0.00    -0.296 C  
HETATM    5  CA  UNL     1     -11.106   8.454  72.306  1.00  0.00    -0.368 C  
HETATM    6  N   UNL     1     -10.738   9.328  71.323  1.00  0.00    -0.326 N  
HETATM    7  C   UNL     1     -10.129   7.645  73.104  1.00  0.00    -0.323 C  
HETATM    8  C   UNL     1      -9.601   9.584  70.616  1.00  0.00    -0.227 C  
HETATM    9  O   UNL     1      -8.836   7.820  72.889  1.00  0.00    -0.143 OA 
HETATM   10  OXT UNL     1     -10.498   6.838  73.961  1.00  0.00    -0.364 OA 
HETATM   11  CA  UNL     1     -10.461  10.307  69.526  1.00  0.00    -0.244 C  
HETATM   12  O   UNL     1      -8.492   9.186  70.757  1.00  0.00    -0.184 OA 
ENDROOT
BRANCH  11  13
HETATM   13  N   UNL     1     -10.393   9.557  68.215  1.00  0.00    -0.198 N  
HETATM   14  C   UNL     1     -10.291   9.908  66.860  1.00  0.00    -0.235 C  
HETATM   15  H   UNL     1     -10.430   8.546  68.348  1.00  0.00     0.000 HD 
HETATM   16  O   UNL     1     -10.353   8.998  66.035  1.00  0.00    -0.147 OA 
BRANCH  14  17
HETATM   17  C   UNL     1      -9.934  11.305  66.377  1.00  0.00    -0.215 C  
BRANCH  17  18
HETATM   18  C   UNL     1      -8.874  12.094  67.026  1.00  0.00    -0.203 A  
HETATM   19  N   UNL     1      -7.914  11.471  67.816  1.00  0.00    -0.122 NA 
HETATM   20  C   UNL     1      -8.900  13.477  67.177  1.00  0.00    -0.226 A  
HETATM   21  N   UNL     1      -6.662  11.923  69.717  1.00  0.00    -0.337 NA 
HETATM   22  H2  UNL     1      -6.328  12.624  70.378  1.00  0.00     0.000 HD 
HETATM   23  S   UNL     1      -7.833  13.957  68.432  1.00  0.00    -0.143 SA 
HETATM   24  H1  UNL     1      -6.413  10.945  69.866  1.00  0.00     0.000 HD 
HETATM   25  C   UNL     1      -7.414  12.313  68.682  1.00  0.00    -0.100 A  
ENDBRANCH  17  18
BRANCH  17  26
HETATM   26  N   UNL     1     -10.629  12.054  65.565  1.00  0.00    -0.263 NA 
HETATM   27  H   UNL     1     -10.157  12.406  64.731  1.00  0.00     0.000 HD 
BRANCH  26  28
HETATM   28  O   UNL     1     -11.969  12.412  65.747  1.00  0.00    -0.481 OA 
HETATM   29  C   UNL     1     -12.295  13.669  66.301  1.00  0.00    -0.412 C  
ENDBRANCH  26  28
ENDBRANCH  17  26
ENDBRANCH  14  17
ENDBRANCH  11  13
TORSDOF 5
ENDMDL
MODEL      143
REMARK 921   NORMALIZED FREE ENERGY PREDICTED BY IDOCK:   -5.01 KCAL/MOL
REMARK 922        TOTAL FREE ENERGY PREDICTED BY IDOCK:   -7.23 KCAL/MOL
REMARK 923 INTER-LIGAND FREE ENERGY PREDICTED BY IDOCK:   -6.71 KCAL/MOL
REMARK 924 INTRA-LIGAND FREE ENERGY PREDICTED BY IDOCK:   -0.52 KCAL/MOL
REMARK 927      BINDING AFFINITY PREDICTED BY RF-SCORE:    0.00 PKD
ROOT
HETATM    1  CE  UNL     1      -9.684  10.991  68.605  1.00  0.00    -0.195 C  
HETATM    2  SD  UNL     1     -10.826  10.515  69.856  1.00  0.00    -0.251 SA 
HETATM    3  CG  UNL     1     -11.134   8.758  69.493  1.00  0.00     0.020 C  
HETATM    4  CB  UNL     1     -10.389   8.155  68.355  1.00  0.00    -0.236 C  
HETATM    5  CA  UNL     1      -9.633   8.777  67.434  1.00  0.00    -0.161 C  
HETATM    6  N   UNL     1      -9.480  10.133  67.486  1.00  0.00    -0.151 N  
HETATM    7  C   UNL     1      -9.104   7.925  66.321  1.00  0.00    -0.179 C  
HETATM    8  C   UNL     1      -9.105  11.110  66.613  1.00  0.00    -0.170 C  
HETATM    9  O   UNL     1      -8.404   8.502  65.359  1.00  0.00    -0.138 OA 
HETATM   10  OXT UNL     1      -9.291   6.706  66.288  1.00  0.00    -0.162 OA 
HETATM   11  CA  UNL     1      -9.788  12.174  67.535  1.00  0.00    -0.191 C  
HETATM   12  O   UNL     1      -8.641  11.041  65.523  1.00  0.00    -0.173 OA 
ENDROOT
BRANCH  11  13
HETATM   13  N   UNL     1     -10.957  12.818  66.823  1.00  0.00    -0.264 N  
HETATM   14  C   UNL     1     -11.803  13.910  67.065  1.00  0.00    -0.415 C  
HETATM   15  H   UNL     1     -11.186  12.341  65.951  1.00  0.00     0.000 HD 
HETATM   16  O   UNL     1     -12.734  14.089  66.281  1.00  0.00    -0.414 OA 
BRANCH  14  17
HETATM   17  C   UNL     1     -11.530  14.969  68.122  1.00  0.00    -0.339 C  
BRANCH  17  18
HETATM   18  C   UNL     1     -10.718  16.160  67.823  1.00  0.00    -0.325 A  
HETATM   19  N   UNL     1     -10.549  17.157  68.778  1.00  0.00    -0.349 NA 
HETATM   20  C   UNL     1     -10.327  16.547  66.545  1.00  0.00    -0.305 A  
HETATM   21  N   UNL     1     -10.308  19.463  68.863  1.00  0.00    -0.549 NA 
HETATM   22  H2  UNL     1     -10.114  20.325  68.354  1.00  0.00     0.000 HD 
HETATM   23  S   UNL     1      -9.910  18.212  66.532  1.00  0.00    -0.371 SA 
HETATM   24  H1  UNL     1     -10.524  19.515  69.858  1.00  0.00     0.000 HD 
HETATM   25  C   UNL     1     -10.273  18.299  68.205  1.00  0.00    -0.387 A  
ENDBRANCH  17  18
BRANCH  17  26
HETATM   26  N   UNL     1     -11.726  14.861  69.408  1.00  0.00    -0.302 NA 
HETATM   27  H   UNL     1     -11.051  14.311  69.941  1.00  0.00     0.000 HD 
BRANCH  26  28
HETATM   28  O   UNL     1     -12.788  15.438  70.114  1.00  0.00    -0.303 OA 
HETATM   29  C   UNL     1     -13.290  14.809  71.272  1.00  0.00    -0.399 C  
ENDBRANCH  26  28
ENDBRANCH  17  26
ENDBRANCH  14  17
ENDBRANCH  11  13
TORSDOF 5
ENDMDL
MODEL      144
REMARK 921   NORMALIZED FREE ENERGY PREDICTED BY IDOCK:   -4.99 KCAL/MOL
REMARK 922        TOTAL FREE ENERGY PREDICTED BY IDOCK:   -7.21 KCAL/MOL
REMARK 923 INTER-LIGAND FREE ENERGY PREDICTED BY IDOCK:   -6.88 KCAL/MOL
REMARK 924 INTRA-LIGAND FREE ENERGY PREDICTED BY IDOCK:   -0.33 KCAL/MOL
REMARK 927      BINDING AFFINITY PREDICTED BY RF-SCORE:    0.00 PKD
ROOT
HETATM    1  CE  UNL     1      -9.733  11.949  67.039  1.00  0.00    -0.194 C  
HETATM    2  SD  UNL     1      -9.357  10.385  66.326  1.00  0.00    -0.173 SA 
HETATM    3  CG  UNL     1     -10.157  10.467  64.694  1.00  0.00    -0.338 C  
HETATM    4  CB  UNL     1     -10.849  11.735  64.336  1.00  0.00    -0.389 C  
HETATM    5  CA  UNL     1     -11.116  12.787  65.126  1.00  0.00    -0.291 C  
HETATM    6  N   UNL     1     -10.733  12.765  66.437  1.00  0.00    -0.259 N  
HETATM    7  C   UNL     1     -11.945  13.880  64.523  1.00  0.00    -0.437 C  
HETATM    8  C   UNL     1     -11.085  13.433  67.571  1.00  0.00    -0.274 C  
HETATM    9  O   UNL     1     -12.284  14.910  65.281  1.00  0.00    -0.211 OA 
HETATM   10  OXT UNL     1     -12.303  13.851  63.343  1.00  0.00    -0.760 OA 
HETATM   11  CA  UNL     1     -10.455  12.283  68.426  1.00  0.00    -0.233 C  
HETATM   12  O   UNL     1     -11.777  14.385  67.729  1.00  0.00    -0.342 OA 
ENDROOT
BRANCH  11  13
HETATM   13  N   UNL     1     -11.523  11.574  69.228  1.00  0.00    -0.277 N  
HETATM   14  C   UNL     1     -11.659  10.312  69.826  1.00  0.00    -0.227 C  
HETATM   15  H   UNL     1     -12.348  12.156  69.368  1.00  0.00     0.000 HD 
HETATM   16  O   UNL     1     -12.744  10.044  70.339  1.00  0.00    -0.183 OA 
BRANCH  14  17
HETATM   17  C   UNL     1     -10.501   9.347  70.028  1.00  0.00    -0.234 C  
BRANCH  17  18
HETATM   18  C   UNL     1     -10.023   8.994  71.374  1.00  0.00    -0.318 A  
HETATM   19  N   UNL     1      -8.678   9.126  71.703  1.00  0.00    -0.326 NA 
HETATM   20  C   UNL     1     -10.745   8.241  72.295  1.00  0.00    -0.329 A  
HETATM   21  N   UNL     1      -7.096   8.066  73.029  1.00  0.00    -0.094 NA 
HETATM   22  H2  UNL     1      -6.913   7.403  73.782  1.00  0.00     0.000 HD 
HETATM   23  S   UNL     1      -9.689   7.571  73.471  1.00  0.00    -0.297 SA 
HETATM   24  H1  UNL     1      -6.308   8.512  72.561  1.00  0.00     0.000 HD 
HETATM   25  C   UNL     1      -8.364   8.322  72.684  1.00  0.00    -0.173 A  
ENDBRANCH  17  18
BRANCH  17  26
HETATM   26  N   UNL     1      -9.658   8.935  69.120  1.00  0.00    -0.160 NA 
HETATM   27  H   UNL     1      -9.094   9.642  68.647  1.00  0.00     0.000 HD 
BRANCH  26  28
HETATM   28  O   UNL     1      -9.466   7.601  68.744  1.00  0.00    -0.151 OA 
HETATM   29  C   UNL     1     -10.511   6.666  68.901  1.00  0.00    -0.212 C  
ENDBRANCH  26  28
ENDBRANCH  17  26
ENDBRANCH  14  17
ENDBRANCH  11  13
TORSDOF 5
ENDMDL
MODEL      145
REMARK 921   NORMALIZED FREE ENERGY PREDICTED BY IDOCK:   -4.99 KCAL/MOL
REMARK 922        TOTAL FREE ENERGY PREDICTED BY IDOCK:   -7.21 KCAL/MOL
REMARK 923 INTER-LIGAND FREE ENERGY PREDICTED BY IDOCK:   -6.42 KCAL/MOL
REMARK 924 INTRA-LIGAND FREE ENERGY PREDICTED BY IDOCK:   -0.79 KCAL/MOL
REMARK 927      BINDING AFFINITY PREDICTED BY RF-SCORE:    0.00 PKD
ROOT
HETATM    1  CE  UNL     1      -8.308  16.093  69.142  1.00  0.00    -0.230 C  
HETATM    2  SD  UNL     1      -6.651  16.532  69.540  1.00  0.00    -0.175 SA 
HETATM    3  CG  UNL     1      -6.376  18.046  68.568  1.00  0.00    -0.198 C  
HETATM    4  CB  UNL     1      -7.517  18.557  67.762  1.00  0.00    -0.240 C  
HETATM    5  CA  UNL     1      -8.693  17.957  67.514  1.00  0.00    -0.243 C  
HETATM    6  N   UNL     1      -8.946  16.720  68.034  1.00  0.00    -0.213 N  
HETATM    7  C   UNL     1      -9.610  18.657  66.558  1.00  0.00    -0.337 C  
HETATM    8  C   UNL     1      -9.810  15.701  67.762  1.00  0.00    -0.220 C  
HETATM    9  O   UNL     1     -10.754  18.077  66.235  1.00  0.00    -0.288 OA 
HETATM   10  OXT UNL     1      -9.333  19.761  66.080  1.00  0.00    -0.378 OA 
HETATM   11  CA  UNL     1      -8.878  14.722  68.551  1.00  0.00    -0.176 C  
HETATM   12  O   UNL     1     -10.744  15.649  67.032  1.00  0.00    -0.313 OA 
ENDROOT
BRANCH  11  13
HETATM   13  N   UNL     1      -8.297  13.680  67.621  1.00  0.00    -0.168 N  
HETATM   14  C   UNL     1      -8.721  12.448  67.102  1.00  0.00    -0.195 C  
HETATM   15  H   UNL     1      -7.367  13.937  67.291  1.00  0.00     0.000 HD 
HETATM   16  O   UNL     1      -7.916  11.815  66.420  1.00  0.00    -0.075 OA 
BRANCH  14  17
HETATM   17  C   UNL     1     -10.155  11.948  67.184  1.00  0.00    -0.204 C  
BRANCH  17  18
HETATM   18  C   UNL     1     -10.462  10.514  67.304  1.00  0.00    -0.250 A  
HETATM   19  N   UNL     1     -10.687   9.941  68.551  1.00  0.00    -0.223 NA 
HETATM   20  C   UNL     1     -10.258   9.577  66.295  1.00  0.00    -0.220 A  
HETATM   21  N   UNL     1     -10.322   7.920  69.631  1.00  0.00    -0.212 NA 
HETATM   22  H2  UNL     1     -10.087   6.932  69.545  1.00  0.00     0.000 HD 
HETATM   23  S   UNL     1     -10.185   7.996  66.960  1.00  0.00    -0.323 SA 
HETATM   24  H1  UNL     1     -10.467   8.315  70.560  1.00  0.00     0.000 HD 
HETATM   25  C   UNL     1     -10.430   8.660  68.521  1.00  0.00    -0.172 A  
ENDBRANCH  17  18
BRANCH  17  26
HETATM   26  N   UNL     1     -11.237  12.626  66.914  1.00  0.00    -0.285 NA 
HETATM   27  H   UNL     1     -11.336  13.545  67.347  1.00  0.00     0.000 HD 
BRANCH  26  28
HETATM   28  O   UNL     1     -12.272  12.194  66.078  1.00  0.00    -0.609 OA 
HETATM   29  C   UNL     1     -12.431  12.767  64.798  1.00  0.00    -0.472 C  
ENDBRANCH  26  28
ENDBRANCH  17  26
ENDBRANCH  14  17
ENDBRANCH  11  13
TORSDOF 5
ENDMDL
MODEL      146
REMARK 921   NORMALIZED FREE ENERGY PREDICTED BY IDOCK:   -4.98 KCAL/MOL
REMARK 922        TOTAL FREE ENERGY PREDICTED BY IDOCK:   -7.20 KCAL/MOL
REMARK 923 INTER-LIGAND FREE ENERGY PREDICTED BY IDOCK:   -5.81 KCAL/MOL
REMARK 924 INTRA-LIGAND FREE ENERGY PREDICTED BY IDOCK:   -1.39 KCAL/MOL
REMARK 927      BINDING AFFINITY PREDICTED BY RF-SCORE:    0.00 PKD
ROOT
HETATM    1  CE  UNL     1     -12.083  14.321  66.622  1.00  0.00    -0.420 C  
HETATM    2  SD  UNL     1     -11.601  14.907  65.035  1.00  0.00    -0.333 SA 
HETATM    3  CG  UNL     1     -10.189  13.840  64.609  1.00  0.00    -0.284 C  
HETATM    4  CB  UNL     1      -9.817  12.778  65.582  1.00  0.00    -0.190 C  
HETATM    5  CA  UNL     1     -10.277  12.598  66.831  1.00  0.00    -0.234 C  
HETATM    6  N   UNL     1     -11.208  13.458  67.341  1.00  0.00    -0.278 N  
HETATM    7  C   UNL     1      -9.624  11.513  67.632  1.00  0.00    -0.171 C  
HETATM    8  C   UNL     1     -11.646  13.801  68.585  1.00  0.00    -0.334 C  
HETATM    9  O   UNL     1     -10.002  11.337  68.887  1.00  0.00    -0.203 OA 
HETATM   10  OXT UNL     1      -8.761  10.776  67.149  1.00  0.00    -0.130 OA 
HETATM   11  CA  UNL     1     -12.235  15.125  67.996  1.00  0.00     0.226 C  
HETATM   12  O   UNL     1     -11.425  13.318  69.647  1.00  0.00    -0.258 OA 
ENDROOT
BRANCH  11  13
HETATM   13  N   UNL     1     -11.518  16.326  68.571  1.00  0.00    -0.340 N  
HETATM   14  C   UNL     1     -10.213  16.837  68.517  1.00  0.00    -0.298 C  
HETATM   15  H   UNL     1     -12.135  16.907  69.139  1.00  0.00     0.000 HD 
HETATM   16  O   UNL     1      -9.964  17.825  69.208  1.00  0.00    -0.235 OA 
BRANCH  14  17
HETATM   17  C   UNL     1      -9.159  16.355  67.532  1.00  0.00    -0.193 C  
BRANCH  17  18
HETATM   18  C   UNL     1      -8.037  15.507  67.964  1.00  0.00    -0.136 A  
HETATM   19  N   UNL     1      -7.286  14.800  67.031  1.00  0.00    -0.062 NA 
HETATM   20  C   UNL     1      -7.820  15.093  69.275  1.00  0.00    -0.206 A  
HETATM   21  N   UNL     1      -6.155  12.780  66.876  1.00  0.00    -0.457 NA 
HETATM   22  H2  UNL     1      -5.759  11.978  67.367  1.00  0.00     0.000 HD 
HETATM   23  S   UNL     1      -6.802  13.711  69.300  1.00  0.00    -0.015 SA 
HETATM   24  H1  UNL     1      -6.107  12.810  65.858  1.00  0.00     0.000 HD 
HETATM   25  C   UNL     1      -6.722  13.761  67.588  1.00  0.00    -0.176 A  
ENDBRANCH  17  18
BRANCH  17  26
HETATM   26  N   UNL     1      -8.957  16.800  66.322  1.00  0.00    -0.346 NA 
HETATM   27  H   UNL     1      -9.749  16.783  65.678  1.00  0.00     0.000 HD 
BRANCH  26  28
HETATM   28  O   UNL     1      -7.742  17.297  65.838  1.00  0.00    -0.480 OA 
HETATM   29  C   UNL     1      -7.330  18.604  66.176  1.00  0.00    -0.259 C  
ENDBRANCH  26  28
ENDBRANCH  17  26
ENDBRANCH  14  17
ENDBRANCH  11  13
TORSDOF 5
ENDMDL
MODEL      147
REMARK 921   NORMALIZED FREE ENERGY PREDICTED BY IDOCK:   -4.97 KCAL/MOL
REMARK 922        TOTAL FREE ENERGY PREDICTED BY IDOCK:   -7.18 KCAL/MOL
REMARK 923 INTER-LIGAND FREE ENERGY PREDICTED BY IDOCK:   -6.33 KCAL/MOL
REMARK 924 INTRA-LIGAND FREE ENERGY PREDICTED BY IDOCK:   -0.85 KCAL/MOL
REMARK 927      BINDING AFFINITY PREDICTED BY RF-SCORE:    0.00 PKD
ROOT
HETATM    1  CE  UNL     1      -7.360  12.005  68.213  1.00  0.00    -0.095 C  
HETATM    2  SD  UNL     1      -6.747  11.176  69.639  1.00  0.00    -0.114 SA 
HETATM    3  CG  UNL     1      -7.589   9.563  69.577  1.00  0.00    -0.096 C  
HETATM    4  CB  UNL     1      -8.488   9.307  68.420  1.00  0.00    -0.120 C  
HETATM    5  CA  UNL     1      -8.906  10.175  67.484  1.00  0.00    -0.125 C  
HETATM    6  N   UNL     1      -8.494  11.476  67.535  1.00  0.00    -0.139 N  
HETATM    7  C   UNL     1      -9.918   9.663  66.505  1.00  0.00    -0.246 C  
HETATM    8  C   UNL     1      -8.925  12.660  67.016  1.00  0.00    -0.216 C  
HETATM    9  O   UNL     1     -10.405  10.498  65.601  1.00  0.00    -0.256 OA 
HETATM   10  OXT UNL     1     -10.294   8.488  66.510  1.00  0.00    -0.283 OA 
HETATM   11  CA  UNL     1      -8.095  13.421  68.102  1.00  0.00    -0.155 C  
HETATM   12  O   UNL     1      -9.760  12.895  66.205  1.00  0.00    -0.267 OA 
ENDROOT
BRANCH  11  13
HETATM   13  N   UNL     1      -9.012  14.181  69.033  1.00  0.00    -0.385 N  
HETATM   14  C   UNL     1      -9.686  15.411  68.997  1.00  0.00    -0.239 C  
HETATM   15  H   UNL     1      -9.182  13.675  69.903  1.00  0.00     0.000 HD 
HETATM   16  O   UNL     1     -10.293  15.752  70.012  1.00  0.00    -0.299 OA 
BRANCH  14  17
HETATM   17  C   UNL     1      -9.853  16.243  67.736  1.00  0.00    -0.237 C  
BRANCH  17  18
HETATM   18  C   UNL     1      -9.141  17.518  67.559  1.00  0.00    -0.234 A  
HETATM   19  N   UNL     1      -9.772  18.725  67.840  1.00  0.00    -0.316 NA 
HETATM   20  C   UNL     1      -7.959  17.669  66.838  1.00  0.00    -0.226 A  
HETATM   21  N   UNL     1      -9.785  20.909  67.057  1.00  0.00    -0.651 NA 
HETATM   22  H2  UNL     1      -9.323  21.620  66.490  1.00  0.00     0.000 HD 
HETATM   23  S   UNL     1      -7.748  19.310  66.382  1.00  0.00    -0.293 SA 
HETATM   24  H1  UNL     1     -10.661  21.141  67.523  1.00  0.00     0.000 HD 
HETATM   25  C   UNL     1      -9.222  19.700  67.166  1.00  0.00    -0.332 A  
ENDBRANCH  17  18
BRANCH  17  26
HETATM   26  N   UNL     1     -10.773  16.103  66.822  1.00  0.00    -0.282 NA 
HETATM   27  H   UNL     1     -11.746  16.102  67.131  1.00  0.00     0.000 HD 
BRANCH  26  28
HETATM   28  O   UNL     1     -10.533  15.953  65.451  1.00  0.00    -0.373 OA 
HETATM   29  C   UNL     1     -11.468  15.275  64.641  1.00  0.00    -0.354 C  
ENDBRANCH  26  28
ENDBRANCH  17  26
ENDBRANCH  14  17
ENDBRANCH  11  13
TORSDOF 5
ENDMDL
MODEL      148
REMARK 921   NORMALIZED FREE ENERGY PREDICTED BY IDOCK:   -4.96 KCAL/MOL
REMARK 922        TOTAL FREE ENERGY PREDICTED BY IDOCK:   -7.18 KCAL/MOL
REMARK 923 INTER-LIGAND FREE ENERGY PREDICTED BY IDOCK:   -6.20 KCAL/MOL
REMARK 924 INTRA-LIGAND FREE ENERGY PREDICTED BY IDOCK:   -0.97 KCAL/MOL
REMARK 927      BINDING AFFINITY PREDICTED BY RF-SCORE:    0.00 PKD
ROOT
HETATM    1  CE  UNL     1     -10.837   7.012  68.486  1.00  0.00    -0.138 C  
HETATM    2  SD  UNL     1      -9.982   5.477  68.400  1.00  0.00    -0.169 SA 
HETATM    3  CG  UNL     1      -9.677   5.073  70.149  1.00  0.00    -0.210 C  
HETATM    4  CB  UNL     1     -10.207   6.015  71.170  1.00  0.00    -0.257 C  
HETATM    5  CA  UNL     1     -10.743   7.232  70.979  1.00  0.00    -0.231 C  
HETATM    6  N   UNL     1     -10.850   7.734  69.713  1.00  0.00    -0.239 N  
HETATM    7  C   UNL     1     -11.076   8.014  72.212  1.00  0.00    -0.331 C  
HETATM    8  C   UNL     1     -11.009   8.969  69.161  1.00  0.00    -0.001 C  
HETATM    9  O   UNL     1     -11.551   9.241  72.076  1.00  0.00    -0.356 OA 
HETATM   10  OXT UNL     1     -10.935   7.541  73.343  1.00  0.00    -0.380 OA 
HETATM   11  CA  UNL     1     -10.479   8.411  67.798  1.00  0.00    -0.220 C  
HETATM   12  O   UNL     1     -11.253  10.018  69.660  1.00  0.00    -0.244 OA 
ENDROOT
BRANCH  11  13
HETATM   13  N   UNL     1      -9.169   9.072  67.430  1.00  0.00    -0.137 N  
HETATM   14  C   UNL     1      -8.773  10.106  66.569  1.00  0.00    -0.129 C  
HETATM   15  H   UNL     1      -8.379   8.665  67.931  1.00  0.00     0.000 HD 
HETATM   16  O   UNL     1      -7.566  10.318  66.459  1.00  0.00    -0.105 OA 
BRANCH  14  17
HETATM   17  C   UNL     1      -9.745  11.076  65.915  1.00  0.00    -0.224 C  
BRANCH  17  18
HETATM   18  C   UNL     1     -10.280  12.235  66.648  1.00  0.00    -0.216 A  
HETATM   19  N   UNL     1      -9.422  13.156  67.237  1.00  0.00    -0.218 NA 
HETATM   20  C   UNL     1     -11.599  12.356  67.077  1.00  0.00    -0.365 A  
HETATM   21  N   UNL     1      -9.352  14.519  69.114  1.00  0.00    -0.394 NA 
HETATM   22  H2  UNL     1      -9.868  14.948  69.883  1.00  0.00     0.000 HD 
HETATM   23  S   UNL     1     -11.708  13.514  68.338  1.00  0.00    -0.374 SA 
HETATM   24  H1  UNL     1      -8.347  14.672  69.047  1.00  0.00     0.000 HD 
HETATM   25  C   UNL     1     -10.017  13.771  68.225  1.00  0.00    -0.243 A  
ENDBRANCH  17  18
BRANCH  17  26
HETATM   26  N   UNL     1     -10.400  10.896  64.801  1.00  0.00    -0.324 NA 
HETATM   27  H   UNL     1     -10.910  10.019  64.693  1.00  0.00     0.000 HD 
BRANCH  26  28
HETATM   28  O   UNL     1     -10.460  11.811  63.744  1.00  0.00    -0.332 OA 
HETATM   29  C   UNL     1     -11.710  12.277  63.285  1.00  0.00    -0.364 C  
ENDBRANCH  26  28
ENDBRANCH  17  26
ENDBRANCH  14  17
ENDBRANCH  11  13
TORSDOF 5
ENDMDL
MODEL      149
REMARK 921   NORMALIZED FREE ENERGY PREDICTED BY IDOCK:   -4.96 KCAL/MOL
REMARK 922        TOTAL FREE ENERGY PREDICTED BY IDOCK:   -7.17 KCAL/MOL
REMARK 923 INTER-LIGAND FREE ENERGY PREDICTED BY IDOCK:   -5.80 KCAL/MOL
REMARK 924 INTRA-LIGAND FREE ENERGY PREDICTED BY IDOCK:   -1.37 KCAL/MOL
REMARK 927      BINDING AFFINITY PREDICTED BY RF-SCORE:    0.00 PKD
ROOT
HETATM    1  CE  UNL     1     -10.891   5.998  68.818  1.00  0.00    -0.322 C  
HETATM    2  SD  UNL     1     -11.035   6.616  67.178  1.00  0.00    -0.350 SA 
HETATM    3  CG  UNL     1      -9.304   6.835  66.662  1.00  0.00    -0.165 C  
HETATM    4  CB  UNL     1      -8.247   6.438  67.630  1.00  0.00    -0.118 C  
HETATM    5  CA  UNL     1      -8.390   6.091  68.920  1.00  0.00    -0.107 C  
HETATM    6  N   UNL     1      -9.634   6.076  69.483  1.00  0.00    -0.141 N  
HETATM    7  C   UNL     1      -7.127   5.863  69.693  1.00  0.00    -0.068 C  
HETATM    8  C   UNL     1     -10.135   6.110  70.750  1.00  0.00    -0.193 C  
HETATM    9  O   UNL     1      -7.215   5.577  70.981  1.00  0.00    -0.073 OA 
HETATM   10  OXT UNL     1      -6.017   5.918  69.158  1.00  0.00    -0.024 OA 
HETATM   11  CA  UNL     1     -11.517   6.569  70.175  1.00  0.00    -0.415 C  
HETATM   12  O   UNL     1      -9.594   6.018  71.802  1.00  0.00    -0.152 OA 
ENDROOT
BRANCH  11  13
HETATM   13  N   UNL     1     -11.849   7.966  70.647  1.00  0.00    -0.462 N  
HETATM   14  C   UNL     1     -11.486   9.268  70.269  1.00  0.00    -0.162 C  
HETATM   15  H   UNL     1     -12.496   7.961  71.436  1.00  0.00     0.000 HD 
HETATM   16  O   UNL     1     -11.900  10.194  70.965  1.00  0.00    -0.328 OA 
BRANCH  14  17
HETATM   17  C   UNL     1     -10.772   9.598  68.968  1.00  0.00    -0.211 C  
BRANCH  17  18
HETATM   18  C   UNL     1      -9.306   9.706  68.903  1.00  0.00    -0.151 A  
HETATM   19  N   UNL     1      -8.529   9.459  70.029  1.00  0.00    -0.170 NA 
HETATM   20  C   UNL     1      -8.606  10.334  67.877  1.00  0.00    -0.118 A  
HETATM   21  N   UNL     1      -6.554  10.215  70.984  1.00  0.00    -0.340 NA 
HETATM   22  H2  UNL     1      -5.687  10.738  70.861  1.00  0.00     0.000 HD 
HETATM   23  S   UNL     1      -7.028  10.753  68.406  1.00  0.00    -0.072 SA 
HETATM   24  H1  UNL     1      -6.764   9.813  71.897  1.00  0.00     0.000 HD 
HETATM   25  C   UNL     1      -7.382  10.078  69.941  1.00  0.00    -0.161 A  
ENDBRANCH  17  18
BRANCH  17  26
HETATM   26  N   UNL     1     -11.314  10.061  67.874  1.00  0.00    -0.559 NA 
HETATM   27  H   UNL     1     -11.150   9.539  67.012  1.00  0.00     0.000 HD 
BRANCH  26  28
HETATM   28  O   UNL     1     -12.101  11.215  67.789  1.00  0.00    -0.606 OA 
HETATM   29  C   UNL     1     -11.579  12.457  68.207  1.00  0.00    -0.333 C  
ENDBRANCH  26  28
ENDBRANCH  17  26
ENDBRANCH  14  17
ENDBRANCH  11  13
TORSDOF 5
ENDMDL
MODEL      150
REMARK 921   NORMALIZED FREE ENERGY PREDICTED BY IDOCK:   -4.95 KCAL/MOL
REMARK 922        TOTAL FREE ENERGY PREDICTED BY IDOCK:   -7.16 KCAL/MOL
REMARK 923 INTER-LIGAND FREE ENERGY PREDICTED BY IDOCK:   -6.29 KCAL/MOL
REMARK 924 INTRA-LIGAND FREE ENERGY PREDICTED BY IDOCK:   -0.87 KCAL/MOL
REMARK 927      BINDING AFFINITY PREDICTED BY RF-SCORE:    0.00 PKD
ROOT
HETATM    1  CE  UNL     1     -10.669  11.627  67.010  1.00  0.00    -0.253 C  
HETATM    2  SD  UNL     1     -10.845  12.689  68.402  1.00  0.00    -0.254 SA 
HETATM    3  CG  UNL     1     -11.687  14.147  67.710  1.00  0.00    -0.373 C  
HETATM    4  CB  UNL     1     -12.048  14.106  66.267  1.00  0.00    -0.463 C  
HETATM    5  CA  UNL     1     -11.686  13.199  65.346  1.00  0.00    -0.350 C  
HETATM    6  N   UNL     1     -10.886  12.151  65.704  1.00  0.00    -0.274 N  
HETATM    7  C   UNL     1     -12.096  13.483  63.933  1.00  0.00    -0.438 C  
HETATM    8  C   UNL     1     -10.076  11.270  65.052  1.00  0.00    -0.279 C  
HETATM    9  O   UNL     1     -11.711  12.650  62.981  1.00  0.00    -0.352 OA 
HETATM   10  OXT UNL     1     -12.791  14.459  63.640  1.00  0.00    -0.622 OA 
HETATM   11  CA  UNL     1      -9.347  10.965  66.402  1.00  0.00    -0.176 C  
HETATM   12  O   UNL     1      -9.930  11.061  63.893  1.00  0.00    -0.279 OA 
ENDROOT
BRANCH  11  13
HETATM   13  N   UNL     1      -7.905  11.416  66.339  1.00  0.00    -0.314 N  
HETATM   14  C   UNL     1      -7.025  12.092  67.197  1.00  0.00    -0.117 C  
HETATM   15  H   UNL     1      -7.463  11.166  65.454  1.00  0.00     0.000 HD 
HETATM   16  O   UNL     1      -5.910  12.372  66.757  1.00  0.00    -0.277 OA 
BRANCH  14  17
HETATM   17  C   UNL     1      -7.306  12.333  68.672  1.00  0.00    -0.106 C  
BRANCH  17  18
HETATM   18  C   UNL     1      -7.108  13.657  69.284  1.00  0.00     0.018 A  
HETATM   19  N   UNL     1      -7.899  14.736  68.904  1.00  0.00    -0.145 NA 
HETATM   20  C   UNL     1      -5.985  14.027  70.018  1.00  0.00    -0.142 A  
HETATM   21  N   UNL     1      -7.700  17.032  68.637  1.00  0.00    -0.241 NA 
HETATM   22  H2  UNL     1      -7.155  17.874  68.824  1.00  0.00     0.000 HD 
HETATM   23  S   UNL     1      -5.851  15.737  70.074  1.00  0.00    -0.147 SA 
HETATM   24  H1  UNL     1      -8.549  17.108  68.078  1.00  0.00     0.000 HD 
HETATM   25  C   UNL     1      -7.278  15.863  69.133  1.00  0.00    -0.196 A  
ENDBRANCH  17  18
BRANCH  17  26
HETATM   26  N   UNL     1      -7.487  11.426  69.593  1.00  0.00    -0.351 NA 
HETATM   27  H   UNL     1      -8.440  11.284  69.930  1.00  0.00     0.000 HD 
BRANCH  26  28
HETATM   28  O   UNL     1      -6.479  10.633  70.153  1.00  0.00    -0.127 OA 
HETATM   29  C   UNL     1      -5.993   9.511  69.451  1.00  0.00    -0.033 C  
ENDBRANCH  26  28
ENDBRANCH  17  26
ENDBRANCH  14  17
ENDBRANCH  11  13
TORSDOF 5
ENDMDL
MODEL      151
REMARK 921   NORMALIZED FREE ENERGY PREDICTED BY IDOCK:   -4.92 KCAL/MOL
REMARK 922        TOTAL FREE ENERGY PREDICTED BY IDOCK:   -7.12 KCAL/MOL
REMARK 923 INTER-LIGAND FREE ENERGY PREDICTED BY IDOCK:   -5.79 KCAL/MOL
REMARK 924 INTRA-LIGAND FREE ENERGY PREDICTED BY IDOCK:   -1.33 KCAL/MOL
REMARK 927      BINDING AFFINITY PREDICTED BY RF-SCORE:    0.00 PKD
ROOT
HETATM    1  CE  UNL     1      -8.405   6.453  69.681  1.00  0.00    -0.126 C  
HETATM    2  SD  UNL     1      -6.915   7.313  70.049  1.00  0.00    -0.062 SA 
HETATM    3  CG  UNL     1      -7.238   8.018  71.696  1.00  0.00    -0.074 C  
HETATM    4  CB  UNL     1      -8.547   7.705  72.328  1.00  0.00    -0.157 C  
HETATM    5  CA  UNL     1      -9.613   7.103  71.776  1.00  0.00    -0.151 C  
HETATM    6  N   UNL     1      -9.563   6.696  70.473  1.00  0.00    -0.169 N  
HETATM    7  C   UNL     1     -10.850   7.034  72.619  1.00  0.00    -0.270 C  
HETATM    8  C   UNL     1     -10.474   6.379  69.511  1.00  0.00    -0.230 C  
HETATM    9  O   UNL     1     -11.944   6.504  72.098  1.00  0.00    -0.316 OA 
HETATM   10  OXT UNL     1     -10.870   7.443  73.783  1.00  0.00    -0.321 OA 
HETATM   11  CA  UNL     1      -9.376   6.603  68.419  1.00  0.00    -0.123 C  
HETATM   12  O   UNL     1     -11.649   6.222  69.576  1.00  0.00    -0.423 OA 
ENDROOT
BRANCH  11  13
HETATM   13  N   UNL     1      -9.742   7.774  67.535  1.00  0.00    -0.150 N  
HETATM   14  C   UNL     1     -10.151   9.100  67.741  1.00  0.00    -0.203 C  
HETATM   15  H   UNL     1      -9.673   7.543  66.543  1.00  0.00     0.000 HD 
HETATM   16  O   UNL     1     -10.456   9.758  66.747  1.00  0.00    -0.231 OA 
BRANCH  14  17
HETATM   17  C   UNL     1     -10.068   9.808  69.084  1.00  0.00    -0.192 C  
BRANCH  17  18
HETATM   18  C   UNL     1     -11.263  10.377  69.726  1.00  0.00    -0.293 A  
HETATM   19  N   UNL     1     -11.555  11.731  69.601  1.00  0.00    -0.314 NA 
HETATM   20  C   UNL     1     -12.001   9.744  70.722  1.00  0.00    -0.299 A  
HETATM   21  N   UNL     1     -12.507  13.432  70.859  1.00  0.00    -0.371 NA 
HETATM   22  H2  UNL     1     -13.065  13.688  71.674  1.00  0.00     0.000 HD 
HETATM   23  S   UNL     1     -12.928  10.894  71.595  1.00  0.00    -0.417 SA 
HETATM   24  H1  UNL     1     -12.129  14.172  70.268  1.00  0.00     0.000 HD 
HETATM   25  C   UNL     1     -12.292  12.137  70.600  1.00  0.00    -0.295 A  
ENDBRANCH  17  18
BRANCH  17  26
HETATM   26  N   UNL     1      -8.985  10.219  69.686  1.00  0.00    -0.365 NA 
HETATM   27  H   UNL     1      -8.979  10.198  70.707  1.00  0.00     0.000 HD 
BRANCH  26  28
HETATM   28  O   UNL     1      -7.832  10.685  69.044  1.00  0.00    -0.117 OA 
HETATM   29  C   UNL     1      -6.744  11.161  69.806  1.00  0.00    -0.121 C  
ENDBRANCH  26  28
ENDBRANCH  17  26
ENDBRANCH  14  17
ENDBRANCH  11  13
TORSDOF 5
ENDMDL
MODEL      152
REMARK 921   NORMALIZED FREE ENERGY PREDICTED BY IDOCK:   -4.90 KCAL/MOL
REMARK 922        TOTAL FREE ENERGY PREDICTED BY IDOCK:   -7.10 KCAL/MOL
REMARK 923 INTER-LIGAND FREE ENERGY PREDICTED BY IDOCK:   -6.54 KCAL/MOL
REMARK 924 INTRA-LIGAND FREE ENERGY PREDICTED BY IDOCK:   -0.56 KCAL/MOL
REMARK 927      BINDING AFFINITY PREDICTED BY RF-SCORE:    0.00 PKD
ROOT
HETATM    1  CE  UNL     1     -11.257   6.222  68.916  1.00  0.00    -0.309 C  
HETATM    2  SD  UNL     1     -10.883   6.126  67.200  1.00  0.00    -0.343 SA 
HETATM    3  CG  UNL     1      -9.728   4.723  67.104  1.00  0.00    -0.184 C  
HETATM    4  CB  UNL     1      -9.418   4.004  68.369  1.00  0.00    -0.211 C  
HETATM    5  CA  UNL     1      -9.745   4.355  69.624  1.00  0.00    -0.219 C  
HETATM    6  N   UNL     1     -10.453   5.502  69.845  1.00  0.00    -0.296 N  
HETATM    7  C   UNL     1      -9.186   3.501  70.721  1.00  0.00    -0.134 C  
HETATM    8  C   UNL     1     -10.674   6.326  70.907  1.00  0.00    -0.259 C  
HETATM    9  O   UNL     1      -9.431   3.840  71.976  1.00  0.00    -0.121 OA 
HETATM   10  OXT UNL     1      -8.521   2.489  70.485  1.00  0.00    -0.048 OA 
HETATM   11  CA  UNL     1     -11.106   7.459  69.918  1.00  0.00    -0.190 C  
HETATM   12  O   UNL     1     -10.407   6.200  72.057  1.00  0.00    -0.193 OA 
ENDROOT
BRANCH  11  13
HETATM   13  N   UNL     1     -10.136   8.618  69.985  1.00  0.00    -0.185 N  
HETATM   14  C   UNL     1      -9.823   9.714  69.167  1.00  0.00    -0.186 C  
HETATM   15  H   UNL     1      -9.571   8.597  70.834  1.00  0.00     0.000 HD 
HETATM   16  O   UNL     1      -8.882  10.427  69.515  1.00  0.00    -0.167 OA 
BRANCH  14  17
HETATM   17  C   UNL     1     -10.681  10.163  67.995  1.00  0.00    -0.260 C  
BRANCH  17  18
HETATM   18  C   UNL     1     -10.083  10.524  66.700  1.00  0.00    -0.222 A  
HETATM   19  N   UNL     1      -9.972  11.858  66.321  1.00  0.00    -0.215 NA 
HETATM   20  C   UNL     1      -9.874   9.633  65.652  1.00  0.00    -0.299 A  
HETATM   21  N   UNL     1     -10.062  13.130  64.383  1.00  0.00    -0.622 NA 
HETATM   22  H2  UNL     1     -10.044  13.143  63.363  1.00  0.00     0.000 HD 
HETATM   23  S   UNL     1      -9.707  10.486  64.173  1.00  0.00    -0.333 SA 
HETATM   24  H1  UNL     1     -10.188  14.008  64.886  1.00  0.00     0.000 HD 
HETATM   25  C   UNL     1      -9.919  11.962  65.019  1.00  0.00    -0.248 A  
ENDBRANCH  17  18
BRANCH  17  26
HETATM   26  N   UNL     1     -11.935  10.524  68.037  1.00  0.00    -0.667 NA 
HETATM   27  H   UNL     1     -12.578  10.061  67.394  1.00  0.00     0.000 HD 
BRANCH  26  28
HETATM   28  O   UNL     1     -12.467  11.497  68.891  1.00  0.00    -0.331 OA 
HETATM   29  C   UNL     1     -12.336  11.354  70.289  1.00  0.00    -0.297 C  
ENDBRANCH  26  28
ENDBRANCH  17  26
ENDBRANCH  14  17
ENDBRANCH  11  13
TORSDOF 5
ENDMDL
MODEL      153
REMARK 921   NORMALIZED FREE ENERGY PREDICTED BY IDOCK:   -4.90 KCAL/MOL
REMARK 922        TOTAL FREE ENERGY PREDICTED BY IDOCK:   -7.10 KCAL/MOL
REMARK 923 INTER-LIGAND FREE ENERGY PREDICTED BY IDOCK:   -6.47 KCAL/MOL
REMARK 924 INTRA-LIGAND FREE ENERGY PREDICTED BY IDOCK:   -0.62 KCAL/MOL
REMARK 927      BINDING AFFINITY PREDICTED BY RF-SCORE:    0.00 PKD
ROOT
HETATM    1  CE  UNL     1     -11.151   6.077  69.704  1.00  0.00    -0.404 C  
HETATM    2  SD  UNL     1     -10.353   5.253  68.369  1.00  0.00    -0.060 SA 
HETATM    3  CG  UNL     1      -9.409   3.937  69.198  1.00  0.00    -0.170 C  
HETATM    4  CB  UNL     1      -9.542   3.827  70.676  1.00  0.00    -0.259 C  
HETATM    5  CA  UNL     1     -10.140   4.682  71.521  1.00  0.00    -0.185 C  
HETATM    6  N   UNL     1     -10.723   5.818  71.037  1.00  0.00    -0.259 N  
HETATM    7  C   UNL     1     -10.007   4.376  72.982  1.00  0.00    -0.149 C  
HETATM    8  C   UNL     1     -11.106   7.019  71.555  1.00  0.00    -0.243 C  
HETATM    9  O   UNL     1     -10.528   5.221  73.857  1.00  0.00    -0.235 OA 
HETATM   10  OXT UNL     1      -9.443   3.356  73.386  1.00  0.00    -0.102 OA 
HETATM   11  CA  UNL     1     -11.109   7.623  70.111  1.00  0.00    -0.218 C  
HETATM   12  O   UNL     1     -11.171   7.395  72.679  1.00  0.00    -0.294 OA 
ENDROOT
BRANCH  11  13
HETATM   13  N   UNL     1     -10.048   8.693  69.983  1.00  0.00    -0.185 N  
HETATM   14  C   UNL     1     -10.012  10.025  69.545  1.00  0.00    -0.228 C  
HETATM   15  H   UNL     1      -9.132   8.364  70.291  1.00  0.00     0.000 HD 
HETATM   16  O   UNL     1      -8.912  10.575  69.499  1.00  0.00    -0.145 OA 
BRANCH  14  17
HETATM   17  C   UNL     1     -11.256  10.865  69.301  1.00  0.00    -0.265 C  
BRANCH  17  18
HETATM   18  C   UNL     1     -11.168  12.218  68.730  1.00  0.00    -0.265 A  
HETATM   19  N   UNL     1     -11.174  13.336  69.558  1.00  0.00    -0.156 NA 
HETATM   20  C   UNL     1     -11.378  12.524  67.389  1.00  0.00    -0.313 A  
HETATM   21  N   UNL     1     -11.942  15.525  69.522  1.00  0.00    -0.418 NA 
HETATM   22  H2  UNL     1     -12.300  16.300  68.964  1.00  0.00     0.000 HD 
HETATM   23  S   UNL     1     -11.748  14.190  67.211  1.00  0.00    -0.409 SA 
HETATM   24  H1  UNL     1     -11.855  15.642  70.532  1.00  0.00     0.000 HD 
HETATM   25  C   UNL     1     -11.601  14.386  68.908  1.00  0.00    -0.306 A  
ENDBRANCH  17  18
BRANCH  17  26
HETATM   26  N   UNL     1     -12.454  10.643  69.769  1.00  0.00    -0.517 NA 
HETATM   27  H   UNL     1     -13.199  10.476  69.092  1.00  0.00     0.000 HD 
BRANCH  26  28
HETATM   28  O   UNL     1     -12.798  10.616  71.125  1.00  0.00    -0.364 OA 
HETATM   29  C   UNL     1     -13.646   9.602  71.617  1.00  0.00    -0.324 C  
ENDBRANCH  26  28
ENDBRANCH  17  26
ENDBRANCH  14  17
ENDBRANCH  11  13
TORSDOF 5
ENDMDL
MODEL      154
REMARK 921   NORMALIZED FREE ENERGY PREDICTED BY IDOCK:   -4.90 KCAL/MOL
REMARK 922        TOTAL FREE ENERGY PREDICTED BY IDOCK:   -7.09 KCAL/MOL
REMARK 923 INTER-LIGAND FREE ENERGY PREDICTED BY IDOCK:   -6.38 KCAL/MOL
REMARK 924 INTRA-LIGAND FREE ENERGY PREDICTED BY IDOCK:   -0.71 KCAL/MOL
REMARK 927      BINDING AFFINITY PREDICTED BY RF-SCORE:    0.00 PKD
ROOT
HETATM    1  CE  UNL     1      -9.914   8.579  66.469  1.00  0.00    -0.280 C  
HETATM    2  SD  UNL     1      -8.684   9.699  65.897  1.00  0.00    -0.151 SA 
HETATM    3  CG  UNL     1      -7.416   8.600  65.191  1.00  0.00    -0.090 C  
HETATM    4  CB  UNL     1      -7.692   7.138  65.209  1.00  0.00    -0.114 C  
HETATM    5  CA  UNL     1      -8.688   6.489  65.835  1.00  0.00    -0.141 C  
HETATM    6  N   UNL     1      -9.602   7.193  66.566  1.00  0.00    -0.169 N  
HETATM    7  C   UNL     1      -8.642   4.992  65.784  1.00  0.00    -0.131 C  
HETATM    8  C   UNL     1     -10.495   6.905  67.555  1.00  0.00    -0.247 C  
HETATM    9  O   UNL     1      -9.567   4.307  66.435  1.00  0.00    -0.168 OA 
HETATM   10  OXT UNL     1      -7.780   4.388  65.140  1.00  0.00    -0.083 OA 
HETATM   11  CA  UNL     1     -10.542   8.423  67.932  1.00  0.00    -0.154 C  
HETATM   12  O   UNL     1     -10.854   5.865  67.999  1.00  0.00    -0.269 OA 
ENDROOT
BRANCH  11  13
HETATM   13  N   UNL     1      -9.984   8.642  69.320  1.00  0.00    -0.189 N  
HETATM   14  C   UNL     1     -10.253   9.514  70.386  1.00  0.00    -0.279 C  
HETATM   15  H   UNL     1      -9.225   7.995  69.535  1.00  0.00     0.000 HD 
HETATM   16  O   UNL     1      -9.510   9.456  71.364  1.00  0.00    -0.254 OA 
BRANCH  14  17
HETATM   17  C   UNL     1     -11.498  10.384  70.468  1.00  0.00    -0.345 C  
BRANCH  17  18
HETATM   18  C   UNL     1     -11.737  11.474  69.509  1.00  0.00    -0.346 A  
HETATM   19  N   UNL     1     -12.095  11.193  68.195  1.00  0.00    -0.610 NA 
HETATM   20  C   UNL     1     -11.347  12.796  69.705  1.00  0.00    -0.099 A  
HETATM   21  N   UNL     1     -11.765  12.074  66.074  1.00  0.00    -0.500 NA 
HETATM   22  H2  UNL     1     -11.465  12.871  65.513  1.00  0.00     0.000 HD 
HETATM   23  S   UNL     1     -11.276  13.621  68.202  1.00  0.00    -0.292 SA 
HETATM   24  H1  UNL     1     -12.055  11.218  65.601  1.00  0.00     0.000 HD 
HETATM   25  C   UNL     1     -11.764  12.182  67.408  1.00  0.00    -0.304 A  
ENDBRANCH  17  18
BRANCH  17  26
HETATM   26  N   UNL     1     -12.331  10.464  71.470  1.00  0.00    -0.381 NA 
HETATM   27  H   UNL     1     -12.607  11.398  71.777  1.00  0.00     0.000 HD 
BRANCH  26  28
HETATM   28  O   UNL     1     -12.877   9.373  72.155  1.00  0.00    -0.386 OA 
HETATM   29  C   UNL     1     -14.114   8.832  71.748  1.00  0.00    -0.401 C  
ENDBRANCH  26  28
ENDBRANCH  17  26
ENDBRANCH  14  17
ENDBRANCH  11  13
TORSDOF 5
ENDMDL
MODEL      155
REMARK 921   NORMALIZED FREE ENERGY PREDICTED BY IDOCK:   -4.89 KCAL/MOL
REMARK 922        TOTAL FREE ENERGY PREDICTED BY IDOCK:   -7.09 KCAL/MOL
REMARK 923 INTER-LIGAND FREE ENERGY PREDICTED BY IDOCK:   -6.18 KCAL/MOL
REMARK 924 INTRA-LIGAND FREE ENERGY PREDICTED BY IDOCK:   -0.91 KCAL/MOL
REMARK 927      BINDING AFFINITY PREDICTED BY RF-SCORE:    0.00 PKD
ROOT
HETATM    1  CE  UNL     1      -7.943   7.983  66.193  1.00  0.00    -0.103 C  
HETATM    2  SD  UNL     1      -6.237   7.691  66.510  1.00  0.00    -0.046 SA 
HETATM    3  CG  UNL     1      -6.267   6.367  67.758  1.00  0.00    -0.025 C  
HETATM    4  CB  UNL     1      -7.598   5.841  68.165  1.00  0.00    -0.085 C  
HETATM    5  CA  UNL     1      -8.812   6.328  67.859  1.00  0.00    -0.112 C  
HETATM    6  N   UNL     1      -8.918   7.445  67.080  1.00  0.00    -0.126 N  
HETATM    7  C   UNL     1      -9.981   5.663  68.519  1.00  0.00    -0.157 C  
HETATM    8  C   UNL     1      -9.876   8.383  66.839  1.00  0.00    -0.245 C  
HETATM    9  O   UNL     1     -11.193   6.145  68.296  1.00  0.00    -0.323 OA 
HETATM   10  OXT UNL     1      -9.846   4.676  69.245  1.00  0.00    -0.189 OA 
HETATM   11  CA  UNL     1      -8.772   9.347  66.291  1.00  0.00    -0.140 C  
HETATM   12  O   UNL     1     -11.019   8.425  67.156  1.00  0.00    -0.123 OA 
ENDROOT
BRANCH  11  13
HETATM   13  N   UNL     1      -8.647  10.567  67.176  1.00  0.00    -0.126 N  
HETATM   14  C   UNL     1      -9.486  11.628  67.549  1.00  0.00    -0.171 C  
HETATM   15  H   UNL     1      -7.726  10.635  67.608  1.00  0.00     0.000 HD 
HETATM   16  O   UNL     1      -8.996  12.518  68.243  1.00  0.00    -0.194 OA 
BRANCH  14  17
HETATM   17  C   UNL     1     -10.986  11.645  67.297  1.00  0.00    -0.267 C  
BRANCH  17  18
HETATM   18  C   UNL     1     -11.577  12.483  66.242  1.00  0.00    -0.394 A  
HETATM   19  N   UNL     1     -12.319  11.909  65.216  1.00  0.00    -0.245 NA 
HETATM   20  C   UNL     1     -11.218  13.804  65.991  1.00  0.00    -0.304 A  
HETATM   21  N   UNL     1     -12.732  12.256  62.960  1.00  0.00    -0.707 NA 
HETATM   22  H2  UNL     1     -12.672  12.891  62.164  1.00  0.00     0.000 HD 
HETATM   23  S   UNL     1     -11.675  14.250  64.398  1.00  0.00    -0.357 SA 
HETATM   24  H1  UNL     1     -13.111  11.320  62.817  1.00  0.00     0.000 HD 
HETATM   25  C   UNL     1     -12.312  12.676  64.158  1.00  0.00    -0.436 A  
ENDBRANCH  17  18
BRANCH  17  26
HETATM   26  N   UNL     1     -11.916  11.171  68.080  1.00  0.00    -0.700 NA 
HETATM   27  H   UNL     1     -12.715  10.716  67.638  1.00  0.00     0.000 HD 
BRANCH  26  28
HETATM   28  O   UNL     1     -11.905  11.238  69.478  1.00  0.00    -0.297 OA 
HETATM   29  C   UNL     1     -11.478  10.125  70.233  1.00  0.00    -0.306 C  
ENDBRANCH  26  28
ENDBRANCH  17  26
ENDBRANCH  14  17
ENDBRANCH  11  13
TORSDOF 5
ENDMDL
MODEL      156
REMARK 921   NORMALIZED FREE ENERGY PREDICTED BY IDOCK:   -4.89 KCAL/MOL
REMARK 922        TOTAL FREE ENERGY PREDICTED BY IDOCK:   -7.08 KCAL/MOL
REMARK 923 INTER-LIGAND FREE ENERGY PREDICTED BY IDOCK:   -6.31 KCAL/MOL
REMARK 924 INTRA-LIGAND FREE ENERGY PREDICTED BY IDOCK:   -0.77 KCAL/MOL
REMARK 927      BINDING AFFINITY PREDICTED BY RF-SCORE:    0.00 PKD
ROOT
HETATM    1  CE  UNL     1      -9.632   9.511  69.740  1.00  0.00    -0.216 C  
HETATM    2  SD  UNL     1      -8.802   8.168  68.964  1.00  0.00    -0.144 SA 
HETATM    3  CG  UNL     1      -9.111   8.455  67.193  1.00  0.00    -0.138 C  
HETATM    4  CB  UNL     1      -9.884   9.671  66.823  1.00  0.00    -0.270 C  
HETATM    5  CA  UNL     1     -10.544  10.514  67.634  1.00  0.00    -0.250 C  
HETATM    6  N   UNL     1     -10.548  10.294  68.982  1.00  0.00    -0.210 N  
HETATM    7  C   UNL     1     -11.347  11.588  66.967  1.00  0.00    -0.269 C  
HETATM    8  C   UNL     1     -11.318  10.688  70.036  1.00  0.00    -0.324 C  
HETATM    9  O   UNL     1     -12.062  12.407  67.721  1.00  0.00    -0.447 OA 
HETATM   10  OXT UNL     1     -11.347  11.738  65.742  1.00  0.00    -0.318 OA 
HETATM   11  CA  UNL     1     -10.763   9.486  70.870  1.00  0.00    -0.333 C  
HETATM   12  O   UNL     1     -12.182  11.499  70.106  1.00  0.00    -0.317 OA 
ENDROOT
BRANCH  11  13
HETATM   13  N   UNL     1     -11.872   8.510  71.195  1.00  0.00    -0.287 N  
HETATM   14  C   UNL     1     -11.977   7.310  71.914  1.00  0.00    -0.306 C  
HETATM   15  H   UNL     1     -12.765   8.796  70.792  1.00  0.00     0.000 HD 
HETATM   16  O   UNL     1     -13.061   6.729  71.889  1.00  0.00    -0.308 OA 
BRANCH  14  17
HETATM   17  C   UNL     1     -10.896   6.794  72.852  1.00  0.00    -0.272 C  
BRANCH  17  18
HETATM   18  C   UNL     1     -10.433   5.399  72.793  1.00  0.00    -0.213 A  
HETATM   19  N   UNL     1      -9.654   4.958  71.729  1.00  0.00    -0.151 NA 
HETATM   20  C   UNL     1     -10.948   4.363  73.566  1.00  0.00    -0.295 A  
HETATM   21  N   UNL     1      -9.340   3.025  70.484  1.00  0.00    -0.142 NA 
HETATM   22  H2  UNL     1      -9.493   2.020  70.406  1.00  0.00     0.000 HD 
HETATM   23  S   UNL     1     -10.585   2.848  72.846  1.00  0.00    -0.080 SA 
HETATM   24  H1  UNL     1      -8.858   3.511  69.728  1.00  0.00     0.000 HD 
HETATM   25  C   UNL     1      -9.776   3.666  71.574  1.00  0.00    -0.167 A  
ENDBRANCH  17  18
BRANCH  17  26
HETATM   26  N   UNL     1     -10.451   7.379  73.930  1.00  0.00    -0.417 NA 
HETATM   27  H   UNL     1     -11.121   7.557  74.679  1.00  0.00     0.000 HD 
BRANCH  26  28
HETATM   28  O   UNL     1      -9.127   7.782  74.141  1.00  0.00    -0.240 OA 
HETATM   29  C   UNL     1      -8.321   8.156  73.045  1.00  0.00    -0.199 C  
ENDBRANCH  26  28
ENDBRANCH  17  26
ENDBRANCH  14  17
ENDBRANCH  11  13
TORSDOF 5
ENDMDL
MODEL      157
REMARK 921   NORMALIZED FREE ENERGY PREDICTED BY IDOCK:   -4.89 KCAL/MOL
REMARK 922        TOTAL FREE ENERGY PREDICTED BY IDOCK:   -7.08 KCAL/MOL
REMARK 923 INTER-LIGAND FREE ENERGY PREDICTED BY IDOCK:   -6.30 KCAL/MOL
REMARK 924 INTRA-LIGAND FREE ENERGY PREDICTED BY IDOCK:   -0.78 KCAL/MOL
REMARK 927      BINDING AFFINITY PREDICTED BY RF-SCORE:    0.00 PKD
ROOT
HETATM    1  CE  UNL     1     -10.399  11.379  64.310  1.00  0.00    -0.328 C  
HETATM    2  SD  UNL     1      -8.853  10.725  63.783  1.00  0.00    -0.080 SA 
HETATM    3  CG  UNL     1      -8.357   9.657  65.170  1.00  0.00    -0.137 C  
HETATM    4  CB  UNL     1      -9.299   9.545  66.317  1.00  0.00    -0.242 C  
HETATM    5  CA  UNL     1     -10.408  10.265  66.554  1.00  0.00    -0.211 C  
HETATM    6  N   UNL     1     -10.784  11.240  65.674  1.00  0.00    -0.246 N  
HETATM    7  C   UNL     1     -11.095  10.019  67.862  1.00  0.00    -0.195 C  
HETATM    8  C   UNL     1     -11.589  12.339  65.716  1.00  0.00    -0.388 C  
HETATM    9  O   UNL     1     -12.157  10.746  68.167  1.00  0.00    -0.493 OA 
HETATM   10  OXT UNL     1     -10.707   9.152  68.649  1.00  0.00    -0.197 OA 
HETATM   11  CA  UNL     1     -10.858  12.904  64.453  1.00  0.00    -0.380 C  
HETATM   12  O   UNL     1     -12.353  12.710  66.545  1.00  0.00    -0.500 OA 
ENDROOT
BRANCH  11  13
HETATM   13  N   UNL     1     -10.115  14.175  64.796  1.00  0.00    -0.592 N  
HETATM   14  C   UNL     1      -9.643  14.777  65.973  1.00  0.00    -0.301 C  
HETATM   15  H   UNL     1      -9.905  14.733  63.968  1.00  0.00     0.000 HD 
HETATM   16  O   UNL     1      -9.143  15.897  65.873  1.00  0.00    -0.336 OA 
BRANCH  14  17
HETATM   17  C   UNL     1      -9.555  14.058  67.310  1.00  0.00    -0.238 C  
BRANCH  17  18
HETATM   18  C   UNL     1      -8.601  12.959  67.528  1.00  0.00    -0.188 A  
HETATM   19  N   UNL     1      -8.695  12.157  68.660  1.00  0.00    -0.061 NA 
HETATM   20  C   UNL     1      -7.396  12.814  66.848  1.00  0.00     0.250 A  
HETATM   21  N   UNL     1      -7.286  11.015  70.108  1.00  0.00    -0.441 NA 
HETATM   22  H2  UNL     1      -6.351  10.646  70.283  1.00  0.00     0.000 HD 
HETATM   23  S   UNL     1      -6.333  11.798  67.733  1.00  0.00    -0.077 SA 
HETATM   24  H1  UNL     1      -8.001  10.911  70.828  1.00  0.00     0.000 HD 
HETATM   25  C   UNL     1      -7.536  11.623  68.942  1.00  0.00    -0.092 A  
ENDBRANCH  17  18
BRANCH  17  26
HETATM   26  N   UNL     1     -10.417  14.116  68.288  1.00  0.00    -0.243 NA 
HETATM   27  H   UNL     1     -10.429  13.340  68.950  1.00  0.00     0.000 HD 
BRANCH  26  28
HETATM   28  O   UNL     1     -11.326  15.159  68.501  1.00  0.00    -0.278 OA 
HETATM   29  C   UNL     1     -12.072  15.210  69.697  1.00  0.00    -0.304 C  
ENDBRANCH  26  28
ENDBRANCH  17  26
ENDBRANCH  14  17
ENDBRANCH  11  13
TORSDOF 5
ENDMDL
MODEL      158
REMARK 921   NORMALIZED FREE ENERGY PREDICTED BY IDOCK:   -4.88 KCAL/MOL
REMARK 922        TOTAL FREE ENERGY PREDICTED BY IDOCK:   -7.07 KCAL/MOL
REMARK 923 INTER-LIGAND FREE ENERGY PREDICTED BY IDOCK:   -6.18 KCAL/MOL
REMARK 924 INTRA-LIGAND FREE ENERGY PREDICTED BY IDOCK:   -0.89 KCAL/MOL
REMARK 927      BINDING AFFINITY PREDICTED BY RF-SCORE:    0.00 PKD
ROOT
HETATM    1  CE  UNL     1      -9.371   8.993  70.462  1.00  0.00    -0.219 C  
HETATM    2  SD  UNL     1      -9.254   8.159  72.007  1.00  0.00    -0.214 SA 
HETATM    3  CG  UNL     1      -9.689   6.442  71.588  1.00  0.00    -0.160 C  
HETATM    4  CB  UNL     1      -9.976   6.139  70.160  1.00  0.00    -0.218 C  
HETATM    5  CA  UNL     1     -10.127   7.003  69.142  1.00  0.00    -0.180 C  
HETATM    6  N   UNL     1     -10.015   8.345  69.369  1.00  0.00    -0.186 N  
HETATM    7  C   UNL     1     -10.541   6.416  67.827  1.00  0.00    -0.266 C  
HETATM    8  C   UNL     1     -10.404   9.482  68.727  1.00  0.00    -0.208 C  
HETATM    9  O   UNL     1     -10.760   7.233  66.809  1.00  0.00    -0.311 OA 
HETATM   10  OXT UNL     1     -10.666   5.200  67.666  1.00  0.00    -0.068 OA 
HETATM   11  CA  UNL     1     -10.240  10.275  70.066  1.00  0.00    -0.162 C  
HETATM   12  O   UNL     1     -10.864   9.645  67.645  1.00  0.00    -0.282 OA 
ENDROOT
BRANCH  11  13
HETATM   13  N   UNL     1     -11.578  10.798  70.539  1.00  0.00    -0.335 N  
HETATM   14  C   UNL     1     -12.167  12.063  70.691  1.00  0.00    -0.316 C  
HETATM   15  H   UNL     1     -12.209  10.045  70.815  1.00  0.00     0.000 HD 
HETATM   16  O   UNL     1     -13.283  12.108  71.205  1.00  0.00    -0.206 OA 
BRANCH  14  17
HETATM   17  C   UNL     1     -11.586  13.338  70.100  1.00  0.00    -0.084 C  
BRANCH  17  18
HETATM   18  C   UNL     1     -11.256  13.440  68.670  1.00  0.00    -0.269 A  
HETATM   19  N   UNL     1     -10.063  14.025  68.260  1.00  0.00    -0.240 NA 
HETATM   20  C   UNL     1     -12.170  13.270  67.635  1.00  0.00    -0.135 A  
HETATM   21  N   UNL     1      -9.266  15.307  66.497  1.00  0.00    -0.269 NA 
HETATM   22  H2  UNL     1      -9.422  15.657  65.552  1.00  0.00     0.000 HD 
HETATM   23  S   UNL     1     -11.583  14.001  66.198  1.00  0.00    -0.382 SA 
HETATM   24  H1  UNL     1      -8.426  15.594  66.999  1.00  0.00     0.000 HD 
HETATM   25  C   UNL     1     -10.171  14.484  67.041  1.00  0.00    -0.262 A  
ENDBRANCH  17  18
BRANCH  17  26
HETATM   26  N   UNL     1     -11.085  14.347  70.758  1.00  0.00    -0.466 NA 
HETATM   27  H   UNL     1     -10.170  14.218  71.192  1.00  0.00     0.000 HD 
BRANCH  26  28
HETATM   28  O   UNL     1     -11.702  15.593  70.916  1.00  0.00    -0.315 OA 
HETATM   29  C   UNL     1     -13.109  15.680  70.984  1.00  0.00    -0.427 C  
ENDBRANCH  26  28
ENDBRANCH  17  26
ENDBRANCH  14  17
ENDBRANCH  11  13
TORSDOF 5
ENDMDL
MODEL      159
REMARK 921   NORMALIZED FREE ENERGY PREDICTED BY IDOCK:   -4.88 KCAL/MOL
REMARK 922        TOTAL FREE ENERGY PREDICTED BY IDOCK:   -7.06 KCAL/MOL
REMARK 923 INTER-LIGAND FREE ENERGY PREDICTED BY IDOCK:   -6.93 KCAL/MOL
REMARK 924 INTRA-LIGAND FREE ENERGY PREDICTED BY IDOCK:   -0.14 KCAL/MOL
REMARK 927      BINDING AFFINITY PREDICTED BY RF-SCORE:    0.00 PKD
ROOT
HETATM    1  CE  UNL     1      -9.342  14.369  69.265  1.00  0.00     0.170 C  
HETATM    2  SD  UNL     1     -10.385  15.733  69.647  1.00  0.00    -0.302 SA 
HETATM    3  CG  UNL     1     -11.841  15.452  68.593  1.00  0.00    -0.296 C  
HETATM    4  CB  UNL     1     -11.850  14.224  67.753  1.00  0.00    -0.414 C  
HETATM    5  CA  UNL     1     -10.844  13.362  67.532  1.00  0.00    -0.263 C  
HETATM    6  N   UNL     1      -9.629  13.573  68.120  1.00  0.00    -0.211 N  
HETATM    7  C   UNL     1     -11.104  12.277  66.533  1.00  0.00    -0.299 C  
HETATM    8  C   UNL     1      -8.350  13.157  67.900  1.00  0.00    -0.170 C  
HETATM    9  O   UNL     1     -10.124  11.439  66.237  1.00  0.00    -0.211 OA 
HETATM   10  OXT UNL     1     -12.206  12.136  65.995  1.00  0.00    -0.609 OA 
HETATM   11  CA  UNL     1      -7.828  14.364  68.748  1.00  0.00    -0.138 C  
HETATM   12  O   UNL     1      -7.918  12.328  67.168  1.00  0.00    -0.169 OA 
ENDROOT
BRANCH  11  13
HETATM   13  N   UNL     1      -7.033  15.315  67.882  1.00  0.00    -0.131 N  
HETATM   14  C   UNL     1      -7.305  16.133  66.775  1.00  0.00    -0.185 C  
HETATM   15  H   UNL     1      -6.058  15.378  68.175  1.00  0.00     0.000 HD 
HETATM   16  O   UNL     1      -6.355  16.722  66.260  1.00  0.00    -0.221 OA 
BRANCH  14  17
HETATM   17  C   UNL     1      -8.711  16.464  66.298  1.00  0.00    -0.334 C  
BRANCH  17  18
HETATM   18  C   UNL     1      -9.397  17.692  66.729  1.00  0.00    -0.278 A  
HETATM   19  N   UNL     1     -10.219  18.387  65.849  1.00  0.00    -0.587 NA 
HETATM   20  C   UNL     1      -9.073  18.418  67.871  1.00  0.00    -0.283 A  
HETATM   21  N   UNL     1     -10.826  20.581  65.396  1.00  0.00     0.112 NA 
HETATM   22  H2  UNL     1     -10.839  21.550  65.712  1.00  0.00     0.000 HD 
HETATM   23  S   UNL     1      -9.668  20.022  67.743  1.00  0.00    -0.405 SA 
HETATM   24  H1  UNL     1     -11.208  20.355  64.478  1.00  0.00     0.000 HD 
HETATM   25  C   UNL     1     -10.309  19.643  66.199  1.00  0.00    -0.530 A  
ENDBRANCH  17  18
BRANCH  17  26
HETATM   26  N   UNL     1      -9.548  15.655  65.708  1.00  0.00    -0.339 NA 
HETATM   27  H   UNL     1      -9.510  14.669  65.967  1.00  0.00     0.000 HD 
BRANCH  26  28
HETATM   28  O   UNL     1     -10.494  16.033  64.748  1.00  0.00    -0.564 OA 
HETATM   29  C   UNL     1     -11.545  15.154  64.410  1.00  0.00    -0.271 C  
ENDBRANCH  26  28
ENDBRANCH  17  26
ENDBRANCH  14  17
ENDBRANCH  11  13
TORSDOF 5
ENDMDL
MODEL      160
REMARK 921   NORMALIZED FREE ENERGY PREDICTED BY IDOCK:   -4.87 KCAL/MOL
REMARK 922        TOTAL FREE ENERGY PREDICTED BY IDOCK:   -7.06 KCAL/MOL
REMARK 923 INTER-LIGAND FREE ENERGY PREDICTED BY IDOCK:   -6.09 KCAL/MOL
REMARK 924 INTRA-LIGAND FREE ENERGY PREDICTED BY IDOCK:   -0.96 KCAL/MOL
REMARK 927      BINDING AFFINITY PREDICTED BY RF-SCORE:    0.00 PKD
ROOT
HETATM    1  CE  UNL     1     -10.087  14.224  65.993  1.00  0.00    -0.318 C  
HETATM    2  SD  UNL     1     -11.368  15.163  65.237  1.00  0.00    -0.281 SA 
HETATM    3  CG  UNL     1     -11.159  16.816  65.969  1.00  0.00     0.285 C  
HETATM    4  CB  UNL     1     -10.031  17.005  66.921  1.00  0.00    -0.289 C  
HETATM    5  CA  UNL     1      -9.230  16.068  67.455  1.00  0.00    -0.211 C  
HETATM    6  N   UNL     1      -9.413  14.755  67.130  1.00  0.00    -0.220 N  
HETATM    7  C   UNL     1      -8.254  16.539  68.490  1.00  0.00    -0.212 C  
HETATM    8  C   UNL     1      -9.063  13.554  67.673  1.00  0.00    -0.205 C  
HETATM    9  O   UNL     1      -7.485  15.644  69.088  1.00  0.00    -0.168 OA 
HETATM   10  OXT UNL     1      -8.139  17.731  68.784  1.00  0.00    -0.282 OA 
HETATM   11  CA  UNL     1     -10.185  12.863  66.828  1.00  0.00    -0.241 C  
HETATM   12  O   UNL     1      -8.334  13.291  68.571  1.00  0.00    -0.148 OA 
ENDROOT
BRANCH  11  13
HETATM   13  N   UNL     1     -11.250  12.286  67.734  1.00  0.00    -0.257 N  
HETATM   14  C   UNL     1     -11.370  11.148  68.545  1.00  0.00    -0.282 C  
HETATM   15  H   UNL     1     -12.087  12.869  67.763  1.00  0.00     0.000 HD 
HETATM   16  O   UNL     1     -12.457  10.954  69.088  1.00  0.00    -0.409 OA 
BRANCH  14  17
HETATM   17  C   UNL     1     -10.198  10.256  68.924  1.00  0.00    -0.205 C  
BRANCH  17  18
HETATM   18  C   UNL     1     -10.297   8.790  68.858  1.00  0.00    -0.212 A  
HETATM   19  N   UNL     1     -10.259   8.133  67.633  1.00  0.00    -0.217 NA 
HETATM   20  C   UNL     1     -10.732   7.981  69.904  1.00  0.00    -0.242 A  
HETATM   21  N   UNL     1     -11.182   6.253  66.635  1.00  0.00    -0.753 NA 
HETATM   22  H2  UNL     1     -11.677   5.370  66.761  1.00  0.00     0.000 HD 
HETATM   23  S   UNL     1     -11.245   6.458  69.302  1.00  0.00    -0.328 SA 
HETATM   24  H1  UNL     1     -10.951   6.559  65.690  1.00  0.00     0.000 HD 
HETATM   25  C   UNL     1     -10.857   6.974  67.714  1.00  0.00    -0.206 A  
ENDBRANCH  17  18
BRANCH  17  26
HETATM   26  N   UNL     1      -9.118  10.613  69.564  1.00  0.00    -0.411 NA 
HETATM   27  H   UNL     1      -9.112  11.539  69.995  1.00  0.00     0.000 HD 
BRANCH  26  28
HETATM   28  O   UNL     1      -7.968   9.829  69.706  1.00  0.00    -0.127 OA 
HETATM   29  C   UNL     1      -6.748  10.429  70.083  1.00  0.00    -0.150 C  
ENDBRANCH  26  28
ENDBRANCH  17  26
ENDBRANCH  14  17
ENDBRANCH  11  13
TORSDOF 5
ENDMDL
MODEL      161
REMARK 921   NORMALIZED FREE ENERGY PREDICTED BY IDOCK:   -4.87 KCAL/MOL
REMARK 922        TOTAL FREE ENERGY PREDICTED BY IDOCK:   -7.06 KCAL/MOL
REMARK 923 INTER-LIGAND FREE ENERGY PREDICTED BY IDOCK:   -6.17 KCAL/MOL
REMARK 924 INTRA-LIGAND FREE ENERGY PREDICTED BY IDOCK:   -0.89 KCAL/MOL
REMARK 927      BINDING AFFINITY PREDICTED BY RF-SCORE:    0.00 PKD
ROOT
HETATM    1  CE  UNL     1     -11.661   8.578  71.233  1.00  0.00    -0.283 C  
HETATM    2  SD  UNL     1     -12.783   7.245  71.478  1.00  0.00    -0.388 SA 
HETATM    3  CG  UNL     1     -11.853   6.108  72.552  1.00  0.00    -0.176 C  
HETATM    4  CB  UNL     1     -10.495   6.534  72.984  1.00  0.00    -0.258 C  
HETATM    5  CA  UNL     1      -9.776   7.583  72.550  1.00  0.00    -0.168 C  
HETATM    6  N   UNL     1     -10.293   8.410  71.593  1.00  0.00    -0.223 N  
HETATM    7  C   UNL     1      -8.377   7.694  73.074  1.00  0.00    -0.133 C  
HETATM    8  C   UNL     1      -9.791   9.314  70.706  1.00  0.00    -0.283 C  
HETATM    9  O   UNL     1      -7.610   8.677  72.631  1.00  0.00    -0.325 OA 
HETATM   10  OXT UNL     1      -7.931   6.909  73.914  1.00  0.00    -0.107 OA 
HETATM   11  CA  UNL     1     -11.107   9.199  69.868  1.00  0.00    -0.159 C  
HETATM   12  O   UNL     1      -8.702   9.773  70.598  1.00  0.00    -0.164 OA 
ENDROOT
BRANCH  11  13
HETATM   13  N   UNL     1     -10.818   8.603  68.508  1.00  0.00    -0.441 N  
HETATM   14  C   UNL     1     -10.287   9.072  67.297  1.00  0.00    -0.273 C  
HETATM   15  H   UNL     1     -11.071   7.615  68.460  1.00  0.00     0.000 HD 
HETATM   16  O   UNL     1     -10.283   8.295  66.343  1.00  0.00    -0.253 OA 
BRANCH  14  17
HETATM   17  C   UNL     1      -9.566  10.403  67.154  1.00  0.00    -0.164 C  
BRANCH  17  18
HETATM   18  C   UNL     1     -10.291  11.633  66.796  1.00  0.00    -0.222 A  
HETATM   19  N   UNL     1     -10.579  12.590  67.762  1.00  0.00    -0.215 NA 
HETATM   20  C   UNL     1     -10.998  11.815  65.611  1.00  0.00    -0.295 A  
HETATM   21  N   UNL     1     -12.254  14.118  68.256  1.00  0.00    -0.573 NA 
HETATM   22  H2  UNL     1     -13.077  14.625  67.930  1.00  0.00     0.000 HD 
HETATM   23  S   UNL     1     -12.137  13.086  65.790  1.00  0.00    -0.453 SA 
HETATM   24  H1  UNL     1     -11.943  14.248  69.219  1.00  0.00     0.000 HD 
HETATM   25  C   UNL     1     -11.615  13.304  67.408  1.00  0.00    -0.353 A  
ENDBRANCH  17  18
BRANCH  17  26
HETATM   26  N   UNL     1      -8.278  10.590  67.068  1.00  0.00    -0.123 NA 
HETATM   27  H   UNL     1      -7.792  10.157  66.281  1.00  0.00     0.000 HD 
BRANCH  26  28
HETATM   28  O   UNL     1      -7.509  11.338  67.967  1.00  0.00    -0.088 OA 
HETATM   29  C   UNL     1      -6.196  10.928  68.283  1.00  0.00    -0.049 C  
ENDBRANCH  26  28
ENDBRANCH  17  26
ENDBRANCH  14  17
ENDBRANCH  11  13
TORSDOF 5
ENDMDL
MODEL      162
REMARK 921   NORMALIZED FREE ENERGY PREDICTED BY IDOCK:   -4.81 KCAL/MOL
REMARK 922        TOTAL FREE ENERGY PREDICTED BY IDOCK:   -6.97 KCAL/MOL
REMARK 923 INTER-LIGAND FREE ENERGY PREDICTED BY IDOCK:   -6.16 KCAL/MOL
REMARK 924 INTRA-LIGAND FREE ENERGY PREDICTED BY IDOCK:   -0.81 KCAL/MOL
REMARK 927      BINDING AFFINITY PREDICTED BY RF-SCORE:    0.00 PKD
ROOT
HETATM    1  CE  UNL     1      -8.926  11.760  68.597  1.00  0.00    -0.066 C  
HETATM    2  SD  UNL     1      -7.250  12.294  68.575  1.00  0.00    -0.106 SA 
HETATM    3  CG  UNL     1      -7.327  13.872  67.672  1.00  0.00    -0.174 C  
HETATM    4  CB  UNL     1      -8.668  14.343  67.232  1.00  0.00    -0.228 C  
HETATM    5  CA  UNL     1      -9.833  13.674  67.260  1.00  0.00    -0.241 C  
HETATM    6  N   UNL     1      -9.870  12.397  67.741  1.00  0.00    -0.198 N  
HETATM    7  C   UNL     1     -11.008  14.357  66.628  1.00  0.00    -0.318 C  
HETATM    8  C   UNL     1     -10.718  11.335  67.635  1.00  0.00    -0.226 C  
HETATM    9  O   UNL     1     -12.163  13.714  66.578  1.00  0.00    -0.419 OA 
HETATM   10  OXT UNL     1     -10.930  15.500  66.172  1.00  0.00    -0.316 OA 
HETATM   11  CA  UNL     1      -9.558  10.384  68.083  1.00  0.00    -0.144 C  
HETATM   12  O   UNL     1     -11.808  11.255  67.174  1.00  0.00    -0.524 OA 
ENDROOT
BRANCH  11  13
HETATM   13  N   UNL     1      -9.189   9.437  66.963  1.00  0.00    -0.140 N  
HETATM   14  C   UNL     1      -9.423   8.084  66.674  1.00  0.00    -0.212 C  
HETATM   15  H   UNL     1      -8.632   9.894  66.241  1.00  0.00     0.000 HD 
HETATM   16  O   UNL     1      -8.872   7.616  65.678  1.00  0.00    -0.140 OA 
BRANCH  14  17
HETATM   17  C   UNL     1     -10.444   7.230  67.408  1.00  0.00    -0.289 C  
BRANCH  17  18
HETATM   18  C   UNL     1     -10.344   6.990  68.856  1.00  0.00    -0.190 A  
HETATM   19  N   UNL     1      -9.139   7.183  69.522  1.00  0.00    -0.146 NA 
HETATM   20  C   UNL     1     -11.282   6.287  69.606  1.00  0.00    -0.437 A  
HETATM   21  N   UNL     1      -7.965   6.266  71.302  1.00  0.00    -0.114 NA 
HETATM   22  H2  UNL     1      -7.988   5.666  72.126  1.00  0.00     0.000 HD 
HETATM   23  S   UNL     1     -10.578   5.735  71.071  1.00  0.00    -0.251 SA 
HETATM   24  H1  UNL     1      -7.083   6.698  71.029  1.00  0.00     0.000 HD 
HETATM   25  C   UNL     1      -9.095   6.462  70.611  1.00  0.00    -0.148 A  
ENDBRANCH  17  18
BRANCH  17  26
HETATM   26  N   UNL     1     -11.328   6.433  66.872  1.00  0.00    -0.774 NA 
HETATM   27  H   UNL     1     -12.312   6.630  67.058  1.00  0.00     0.000 HD 
BRANCH  26  28
HETATM   28  O   UNL     1     -11.033   5.329  66.063  1.00  0.00    -0.171 OA 
HETATM   29  C   UNL     1     -10.075   4.383  66.484  1.00  0.00    -0.189 C  
ENDBRANCH  26  28
ENDBRANCH  17  26
ENDBRANCH  14  17
ENDBRANCH  11  13
TORSDOF 5
ENDMDL
MODEL      163
REMARK 921   NORMALIZED FREE ENERGY PREDICTED BY IDOCK:   -4.80 KCAL/MOL
REMARK 922        TOTAL FREE ENERGY PREDICTED BY IDOCK:   -6.96 KCAL/MOL
REMARK 923 INTER-LIGAND FREE ENERGY PREDICTED BY IDOCK:   -6.27 KCAL/MOL
REMARK 924 INTRA-LIGAND FREE ENERGY PREDICTED BY IDOCK:   -0.69 KCAL/MOL
REMARK 927      BINDING AFFINITY PREDICTED BY RF-SCORE:    0.00 PKD
ROOT
HETATM    1  CE  UNL     1      -9.280  10.896  65.662  1.00  0.00    -0.203 C  
HETATM    2  SD  UNL     1      -8.583  10.012  64.310  1.00  0.00    -0.205 SA 
HETATM    3  CG  UNL     1      -9.470  10.686  62.870  1.00  0.00    -0.343 C  
HETATM    4  CB  UNL     1     -10.462  11.765  63.123  1.00  0.00    -0.359 C  
HETATM    5  CA  UNL     1     -10.927  12.205  64.303  1.00  0.00    -0.339 C  
HETATM    6  N   UNL     1     -10.478  11.640  65.462  1.00  0.00    -0.264 N  
HETATM    7  C   UNL     1     -12.025  13.224  64.248  1.00  0.00    -0.421 C  
HETATM    8  C   UNL     1     -10.916  11.570  66.751  1.00  0.00    -0.294 C  
HETATM    9  O   UNL     1     -12.557  13.644  65.384  1.00  0.00    -0.469 OA 
HETATM   10  OXT UNL     1     -12.431  13.688  63.180  1.00  0.00    -0.786 OA 
HETATM   11  CA  UNL     1      -9.983  10.335  66.984  1.00  0.00    -0.201 C  
HETATM   12  O   UNL     1     -11.804  12.134  67.301  1.00  0.00    -0.530 OA 
ENDROOT
BRANCH  11  13
HETATM   13  N   UNL     1     -10.805   9.098  67.268  1.00  0.00    -0.381 N  
HETATM   14  C   UNL     1     -10.544   7.726  67.399  1.00  0.00    -0.275 C  
HETATM   15  H   UNL     1     -11.794   9.315  67.396  1.00  0.00     0.000 HD 
HETATM   16  O   UNL     1     -11.510   6.979  67.549  1.00  0.00     0.002 OA 
BRANCH  14  17
HETATM   17  C   UNL     1      -9.146   7.145  67.543  1.00  0.00    -0.123 C  
BRANCH  17  18
HETATM   18  C   UNL     1      -8.887   5.971  68.391  1.00  0.00    -0.112 A  
HETATM   19  N   UNL     1      -8.761   4.706  67.827  1.00  0.00    -0.103 NA 
HETATM   20  C   UNL     1      -9.047   5.946  69.773  1.00  0.00    -0.138 A  
HETATM   21  N   UNL     1      -9.252   2.503  68.364  1.00  0.00    -0.181 NA 
HETATM   22  H2  UNL     1      -9.507   1.833  69.090  1.00  0.00     0.000 HD 
HETATM   23  S   UNL     1      -9.207   4.327  70.322  1.00  0.00    -0.150 SA 
HETATM   24  H1  UNL     1      -9.159   2.178  67.402  1.00  0.00     0.000 HD 
HETATM   25  C   UNL     1      -9.050   3.781  68.704  1.00  0.00    -0.142 A  
ENDBRANCH  17  18
BRANCH  17  26
HETATM   26  N   UNL     1      -8.024   7.709  67.187  1.00  0.00    -0.116 NA 
HETATM   27  H   UNL     1      -7.901   7.926  66.197  1.00  0.00     0.000 HD 
BRANCH  26  28
HETATM   28  O   UNL     1      -6.976   8.039  68.054  1.00  0.00    -0.070 OA 
HETATM   29  C   UNL     1      -7.043   9.221  68.822  1.00  0.00    -0.073 C  
ENDBRANCH  26  28
ENDBRANCH  17  26
ENDBRANCH  14  17
ENDBRANCH  11  13
TORSDOF 5
ENDMDL
MODEL      164
REMARK 921   NORMALIZED FREE ENERGY PREDICTED BY IDOCK:   -4.79 KCAL/MOL
REMARK 922        TOTAL FREE ENERGY PREDICTED BY IDOCK:   -6.96 KCAL/MOL
REMARK 923 INTER-LIGAND FREE ENERGY PREDICTED BY IDOCK:   -5.63 KCAL/MOL
REMARK 924 INTRA-LIGAND FREE ENERGY PREDICTED BY IDOCK:   -1.32 KCAL/MOL
REMARK 927      BINDING AFFINITY PREDICTED BY RF-SCORE:    0.00 PKD
ROOT
HETATM    1  CE  UNL     1      -9.031   8.675  68.309  1.00  0.00    -0.142 C  
HETATM    2  SD  UNL     1     -10.057   8.239  66.949  1.00  0.00    -0.315 SA 
HETATM    3  CG  UNL     1      -9.304   9.135  65.555  1.00  0.00    -0.221 C  
HETATM    4  CB  UNL     1      -8.076   9.927  65.836  1.00  0.00    -0.121 C  
HETATM    5  CA  UNL     1      -7.529  10.216  67.028  1.00  0.00    -0.092 C  
HETATM    6  N   UNL     1      -8.117   9.758  68.173  1.00  0.00    -0.108 N  
HETATM    7  C   UNL     1      -6.356  11.148  67.014  1.00  0.00    -0.097 C  
HETATM    8  C   UNL     1      -8.075  10.088  69.495  1.00  0.00    -0.161 C  
HETATM    9  O   UNL     1      -5.820  11.510  68.168  1.00  0.00    -0.046 OA 
HETATM   10  OXT UNL     1      -5.871  11.570  65.962  1.00  0.00    -0.152 OA 
HETATM   11  CA  UNL     1      -9.431   9.337  69.709  1.00  0.00    -0.191 C  
HETATM   12  O   UNL     1      -7.363  10.830  70.088  1.00  0.00    -0.119 OA 
ENDROOT
BRANCH  11  13
HETATM   13  N   UNL     1     -10.516  10.308  70.116  1.00  0.00    -0.412 N  
HETATM   14  C   UNL     1     -11.084  11.467  69.566  1.00  0.00    -0.191 C  
HETATM   15  H   UNL     1     -10.938  10.060  71.010  1.00  0.00     0.000 HD 
HETATM   16  O   UNL     1     -11.917  12.065  70.247  1.00  0.00    -0.344 OA 
BRANCH  14  17
HETATM   17  C   UNL     1     -10.864  11.914  68.129  1.00  0.00    -0.221 C  
BRANCH  17  18
HETATM   18  C   UNL     1     -10.202  13.190  67.816  1.00  0.00    -0.231 A  
HETATM   19  N   UNL     1      -8.983  13.207  67.146  1.00  0.00    -0.220 NA 
HETATM   20  C   UNL     1     -10.532  14.413  68.392  1.00  0.00    -0.246 A  
HETATM   21  N   UNL     1      -7.037  14.471  67.102  1.00  0.00    -0.365 NA 
HETATM   22  H2  UNL     1      -6.574  15.342  67.363  1.00  0.00     0.000 HD 
HETATM   23  S   UNL     1      -9.229  15.517  68.227  1.00  0.00    -0.191 SA 
HETATM   24  H1  UNL     1      -6.503  13.752  66.616  1.00  0.00     0.000 HD 
HETATM   25  C   UNL     1      -8.330  14.308  67.410  1.00  0.00    -0.198 A  
ENDBRANCH  17  18
BRANCH  17  26
HETATM   26  N   UNL     1     -11.418  11.411  67.060  1.00  0.00    -0.487 NA 
HETATM   27  H   UNL     1     -11.342  10.402  66.922  1.00  0.00     0.000 HD 
BRANCH  26  28
HETATM   28  O   UNL     1     -12.107  12.144  66.088  1.00  0.00    -0.621 OA 
HETATM   29  C   UNL     1     -11.932  11.842  64.721  1.00  0.00    -0.145 C  
ENDBRANCH  26  28
ENDBRANCH  17  26
ENDBRANCH  14  17
ENDBRANCH  11  13
TORSDOF 5
ENDMDL
MODEL      165
REMARK 921   NORMALIZED FREE ENERGY PREDICTED BY IDOCK:   -4.79 KCAL/MOL
REMARK 922        TOTAL FREE ENERGY PREDICTED BY IDOCK:   -6.95 KCAL/MOL
REMARK 923 INTER-LIGAND FREE ENERGY PREDICTED BY IDOCK:   -5.33 KCAL/MOL
REMARK 924 INTRA-LIGAND FREE ENERGY PREDICTED BY IDOCK:   -1.62 KCAL/MOL
REMARK 927      BINDING AFFINITY PREDICTED BY RF-SCORE:    0.00 PKD
ROOT
HETATM    1  CE  UNL     1      -9.603  13.456  68.530  1.00  0.00    -0.141 C  
HETATM    2  SD  UNL     1     -11.332  13.399  68.852  1.00  0.00    -0.305 SA 
HETATM    3  CG  UNL     1     -11.599  11.680  69.386  1.00  0.00    -0.327 C  
HETATM    4  CB  UNL     1     -10.405  10.796  69.469  1.00  0.00    -0.178 C  
HETATM    5  CA  UNL     1      -9.157  11.044  69.038  1.00  0.00    -0.063 C  
HETATM    6  N   UNL     1      -8.872  12.237  68.438  1.00  0.00    -0.170 N  
HETATM    7  C   UNL     1      -8.181   9.912  69.139  1.00  0.00    -0.128 C  
HETATM    8  C   UNL     1      -7.892  12.710  67.618  1.00  0.00    -0.162 C  
HETATM    9  O   UNL     1      -6.956  10.088  68.673  1.00  0.00    -0.067 OA 
HETATM   10  OXT UNL     1      -8.483   8.834  69.658  1.00  0.00    -0.122 OA 
HETATM   11  CA  UNL     1      -8.835  13.886  67.195  1.00  0.00    -0.226 C  
HETATM   12  O   UNL     1      -6.862  12.227  67.278  1.00  0.00    -0.141 OA 
ENDROOT
BRANCH  11  13
HETATM   13  N   UNL     1      -9.184  13.783  65.728  1.00  0.00    -0.424 N  
HETATM   14  C   UNL     1      -9.923  12.896  64.930  1.00  0.00    -0.130 C  
HETATM   15  H   UNL     1      -8.783  14.547  65.183  1.00  0.00     0.000 HD 
HETATM   16  O   UNL     1      -9.915  13.089  63.715  1.00  0.00    -0.278 OA 
BRANCH  14  17
HETATM   17  C   UNL     1     -10.859  11.838  65.493  1.00  0.00    -0.297 C  
BRANCH  17  18
HETATM   18  C   UNL     1     -10.461  10.424  65.572  1.00  0.00    -0.122 A  
HETATM   19  N   UNL     1     -11.132   9.547  66.417  1.00  0.00     0.500 NA 
HETATM   20  C   UNL     1      -9.257   9.916  65.092  1.00  0.00    -0.234 A  
HETATM   21  N   UNL     1     -10.665   7.691  67.728  1.00  0.00    -0.448 NA 
HETATM   22  H2  UNL     1     -10.008   6.944  67.955  1.00  0.00     0.000 HD 
HETATM   23  S   UNL     1      -8.907   8.413  65.844  1.00  0.00    -0.168 SA 
HETATM   24  H1  UNL     1     -11.530   7.767  68.261  1.00  0.00     0.000 HD 
HETATM   25  C   UNL     1     -10.363   8.541  66.740  1.00  0.00    -0.276 A  
ENDBRANCH  17  18
BRANCH  17  26
HETATM   26  N   UNL     1     -12.138  11.966  65.719  1.00  0.00    -0.375 NA 
HETATM   27  H   UNL     1     -12.549  11.375  66.443  1.00  0.00     0.000 HD 
BRANCH  26  28
HETATM   28  O   UNL     1     -12.992  12.849  65.047  1.00  0.00    -0.777 OA 
HETATM   29  C   UNL     1     -13.009  14.216  65.398  1.00  0.00    -0.270 C  
ENDBRANCH  26  28
ENDBRANCH  17  26
ENDBRANCH  14  17
ENDBRANCH  11  13
TORSDOF 5
ENDMDL
MODEL      166
REMARK 921   NORMALIZED FREE ENERGY PREDICTED BY IDOCK:   -4.78 KCAL/MOL
REMARK 922        TOTAL FREE ENERGY PREDICTED BY IDOCK:   -6.94 KCAL/MOL
REMARK 923 INTER-LIGAND FREE ENERGY PREDICTED BY IDOCK:   -6.17 KCAL/MOL
REMARK 924 INTRA-LIGAND FREE ENERGY PREDICTED BY IDOCK:   -0.76 KCAL/MOL
REMARK 927      BINDING AFFINITY PREDICTED BY RF-SCORE:    0.00 PKD
ROOT
HETATM    1  CE  UNL     1      -9.421  14.663  67.974  1.00  0.00    -0.207 C  
HETATM    2  SD  UNL     1      -8.526  16.052  68.578  1.00  0.00    -0.200 SA 
HETATM    3  CG  UNL     1      -8.944  17.366  67.390  1.00  0.00    -0.231 C  
HETATM    4  CB  UNL     1      -9.896  17.023  66.299  1.00  0.00    -0.310 C  
HETATM    5  CA  UNL     1     -10.370  15.813  65.961  1.00  0.00    -0.340 C  
HETATM    6  N   UNL     1      -9.975  14.710  66.663  1.00  0.00    -0.265 N  
HETATM    7  C   UNL     1     -11.221  15.751  64.729  1.00  0.00    -0.366 C  
HETATM    8  C   UNL     1      -9.959  13.364  66.444  1.00  0.00    -0.293 C  
HETATM    9  O   UNL     1     -11.662  14.573  64.322  1.00  0.00    -0.370 OA 
HETATM   10  OXT UNL     1     -11.530  16.766  64.099  1.00  0.00    -1.171 OA 
HETATM   11  CA  UNL     1      -8.887  13.210  67.574  1.00  0.00    -0.199 C  
HETATM   12  O   UNL     1     -10.441  12.713  65.578  1.00  0.00    -0.271 OA 
ENDROOT
BRANCH  11  13
HETATM   13  N   UNL     1      -7.579  12.716  66.999  1.00  0.00    -0.374 N  
HETATM   14  C   UNL     1      -6.881  11.499  66.990  1.00  0.00    -0.147 C  
HETATM   15  H   UNL     1      -7.081  13.448  66.492  1.00  0.00     0.000 HD 
HETATM   16  O   UNL     1      -5.762  11.493  66.478  1.00  0.00    -0.142 OA 
BRANCH  14  17
HETATM   17  C   UNL     1      -7.496  10.172  67.408  1.00  0.00    -0.094 C  
BRANCH  17  18
HETATM   18  C   UNL     1      -7.704   9.837  68.826  1.00  0.00    -0.081 A  
HETATM   19  N   UNL     1      -6.753   9.103  69.525  1.00  0.00    -0.046 NA 
HETATM   20  C   UNL     1      -8.926   9.929  69.487  1.00  0.00    -0.211 A  
HETATM   21  N   UNL     1      -6.674   7.519  71.219  1.00  0.00    -0.049 NA 
HETATM   22  H2  UNL     1      -7.168   7.048  71.977  1.00  0.00     0.000 HD 
HETATM   23  S   UNL     1      -8.911   8.951  70.897  1.00  0.00    -0.239 SA 
HETATM   24  H1  UNL     1      -5.717   7.240  71.004  1.00  0.00     0.000 HD 
HETATM   25  C   UNL     1      -7.303   8.482  70.536  1.00  0.00    -0.060 A  
ENDBRANCH  17  18
BRANCH  17  26
HETATM   26  N   UNL     1      -7.666   9.117  66.659  1.00  0.00    -0.096 NA 
HETATM   27  H   UNL     1      -6.874   8.482  66.557  1.00  0.00     0.000 HD 
BRANCH  26  28
HETATM   28  O   UNL     1      -8.847   8.788  65.985  1.00  0.00    -0.153 OA 
HETATM   29  C   UNL     1      -9.361   9.656  64.998  1.00  0.00    -0.255 C  
ENDBRANCH  26  28
ENDBRANCH  17  26
ENDBRANCH  14  17
ENDBRANCH  11  13
TORSDOF 5
ENDMDL
MODEL      167
REMARK 921   NORMALIZED FREE ENERGY PREDICTED BY IDOCK:   -4.77 KCAL/MOL
REMARK 922        TOTAL FREE ENERGY PREDICTED BY IDOCK:   -6.93 KCAL/MOL
REMARK 923 INTER-LIGAND FREE ENERGY PREDICTED BY IDOCK:   -6.08 KCAL/MOL
REMARK 924 INTRA-LIGAND FREE ENERGY PREDICTED BY IDOCK:   -0.85 KCAL/MOL
REMARK 927      BINDING AFFINITY PREDICTED BY RF-SCORE:    0.00 PKD
ROOT
HETATM    1  CE  UNL     1      -8.271  11.327  68.207  1.00  0.00    -0.143 C  
HETATM    2  SD  UNL     1      -7.041  12.569  68.405  1.00  0.00    -0.115 SA 
HETATM    3  CG  UNL     1      -5.982  11.900  69.725  1.00  0.00    -0.132 C  
HETATM    4  CB  UNL     1      -6.329  10.557  70.264  1.00  0.00    -0.137 C  
HETATM    5  CA  UNL     1      -7.431   9.826  70.027  1.00  0.00    -0.154 C  
HETATM    6  N   UNL     1      -8.400  10.311  69.196  1.00  0.00    -0.143 N  
HETATM    7  C   UNL     1      -7.570   8.558  70.813  1.00  0.00    -0.074 C  
HETATM    8  C   UNL     1      -9.721  10.055  68.979  1.00  0.00    -0.199 C  
HETATM    9  O   UNL     1      -8.667   7.834  70.658  1.00  0.00    -0.136 OA 
HETATM   10  OXT UNL     1      -6.689   8.167  71.581  1.00  0.00    -0.051 OA 
HETATM   11  CA  UNL     1      -9.863  11.454  68.292  1.00  0.00    -0.200 C  
HETATM   12  O   UNL     1     -10.420   9.185  69.381  1.00  0.00    -0.211 OA 
ENDROOT
BRANCH  11  13
HETATM   13  N   UNL     1     -10.783  12.347  69.094  1.00  0.00    -0.433 N  
HETATM   14  C   UNL     1     -11.394  13.594  68.899  1.00  0.00    -0.290 C  
HETATM   15  H   UNL     1     -11.017  11.942  70.001  1.00  0.00     0.000 HD 
HETATM   16  O   UNL     1     -12.029  14.066  69.842  1.00  0.00    -0.296 OA 
BRANCH  14  17
HETATM   17  C   UNL     1     -11.463  14.297  67.552  1.00  0.00    -0.345 C  
BRANCH  17  18
HETATM   18  C   UNL     1     -10.498  15.344  67.182  1.00  0.00    -0.290 A  
HETATM   19  N   UNL     1      -9.276  15.007  66.610  1.00  0.00    -0.258 NA 
HETATM   20  C   UNL     1     -10.556  16.662  67.625  1.00  0.00    -0.321 A  
HETATM   21  N   UNL     1      -7.084  15.770  66.609  1.00  0.00    -0.216 NA 
HETATM   22  H2  UNL     1      -6.440  16.529  66.829  1.00  0.00     0.000 HD 
HETATM   23  S   UNL     1      -9.018  17.408  67.467  1.00  0.00    -0.233 SA 
HETATM   24  H1  UNL     1      -6.712  14.900  66.228  1.00  0.00     0.000 HD 
HETATM   25  C   UNL     1      -8.393  15.945  66.828  1.00  0.00    -0.271 A  
ENDBRANCH  17  18
BRANCH  17  26
HETATM   26  N   UNL     1     -12.458  14.273  66.707  1.00  0.00    -0.547 NA 
HETATM   27  H   UNL     1     -13.166  15.003  66.796  1.00  0.00     0.000 HD 
BRANCH  26  28
HETATM   28  O   UNL     1     -12.631  13.328  65.691  1.00  0.00    -0.464 OA 
HETATM   29  C   UNL     1     -12.111  13.574  64.402  1.00  0.00    -0.420 C  
ENDBRANCH  26  28
ENDBRANCH  17  26
ENDBRANCH  14  17
ENDBRANCH  11  13
TORSDOF 5
ENDMDL
MODEL      168
REMARK 921   NORMALIZED FREE ENERGY PREDICTED BY IDOCK:   -4.76 KCAL/MOL
REMARK 922        TOTAL FREE ENERGY PREDICTED BY IDOCK:   -6.91 KCAL/MOL
REMARK 923 INTER-LIGAND FREE ENERGY PREDICTED BY IDOCK:   -6.14 KCAL/MOL
REMARK 924 INTRA-LIGAND FREE ENERGY PREDICTED BY IDOCK:   -0.77 KCAL/MOL
REMARK 927      BINDING AFFINITY PREDICTED BY RF-SCORE:    0.00 PKD
ROOT
HETATM    1  CE  UNL     1      -7.883  10.948  67.985  1.00  0.00    -0.107 C  
HETATM    2  SD  UNL     1      -6.759  10.792  69.330  1.00  0.00    -0.111 SA 
HETATM    3  CG  UNL     1      -7.076   9.108  69.944  1.00  0.00    -0.056 C  
HETATM    4  CB  UNL     1      -8.085   8.294  69.216  1.00  0.00    -0.116 C  
HETATM    5  CA  UNL     1      -8.934   8.690  68.253  1.00  0.00    -0.142 C  
HETATM    6  N   UNL     1      -8.927   9.991  67.837  1.00  0.00    -0.131 N  
HETATM    7  C   UNL     1      -9.934   7.676  67.788  1.00  0.00    -0.174 C  
HETATM    8  C   UNL     1      -9.792  10.813  67.178  1.00  0.00    -0.185 C  
HETATM    9  O   UNL     1     -10.830   8.037  66.884  1.00  0.00    -0.267 OA 
HETATM   10  OXT UNL     1      -9.933   6.518  68.211  1.00  0.00    -0.136 OA 
HETATM   11  CA  UNL     1      -9.011  12.051  67.730  1.00  0.00    -0.176 C  
HETATM   12  O   UNL     1     -10.813  10.579  66.620  1.00  0.00    -0.194 OA 
ENDROOT
BRANCH  11  13
HETATM   13  N   UNL     1      -9.889  12.860  68.658  1.00  0.00    -0.401 N  
HETATM   14  C   UNL     1     -10.627  14.049  68.562  1.00  0.00    -0.254 C  
HETATM   15  H   UNL     1      -9.964  12.435  69.583  1.00  0.00     0.000 HD 
HETATM   16  O   UNL     1     -11.169  14.463  69.586  1.00  0.00    -0.250 OA 
BRANCH  14  17
HETATM   17  C   UNL     1     -10.937  14.743  67.245  1.00  0.00    -0.318 C  
BRANCH  17  18
HETATM   18  C   UNL     1     -10.413  16.085  66.943  1.00  0.00    -0.306 A  
HETATM   19  N   UNL     1      -9.350  16.247  66.061  1.00  0.00    -0.382 NA 
HETATM   20  C   UNL     1     -10.685  17.225  67.693  1.00  0.00    -0.307 A  
HETATM   21  N   UNL     1      -7.517  17.640  65.779  1.00  0.00    -0.513 NA 
HETATM   22  H2  UNL     1      -7.055  18.513  66.034  1.00  0.00     0.000 HD 
HETATM   23  S   UNL     1      -9.496  18.427  67.399  1.00  0.00    -0.277 SA 
HETATM   24  H1  UNL     1      -7.052  17.007  65.129  1.00  0.00     0.000 HD 
HETATM   25  C   UNL     1      -8.714  17.361  66.307  1.00  0.00    -0.207 A  
ENDBRANCH  17  18
BRANCH  17  26
HETATM   26  N   UNL     1     -11.850  14.403  66.376  1.00  0.00    -0.395 NA 
HETATM   27  H   UNL     1     -12.750  14.881  66.430  1.00  0.00     0.000 HD 
BRANCH  26  28
HETATM   28  O   UNL     1     -11.692  13.436  65.377  1.00  0.00    -0.313 OA 
HETATM   29  C   UNL     1     -12.105  13.712  64.057  1.00  0.00    -0.425 C  
ENDBRANCH  26  28
ENDBRANCH  17  26
ENDBRANCH  14  17
ENDBRANCH  11  13
TORSDOF 5
ENDMDL
MODEL      169
REMARK 921   NORMALIZED FREE ENERGY PREDICTED BY IDOCK:   -4.75 KCAL/MOL
REMARK 922        TOTAL FREE ENERGY PREDICTED BY IDOCK:   -6.90 KCAL/MOL
REMARK 923 INTER-LIGAND FREE ENERGY PREDICTED BY IDOCK:   -6.06 KCAL/MOL
REMARK 924 INTRA-LIGAND FREE ENERGY PREDICTED BY IDOCK:   -0.84 KCAL/MOL
REMARK 927      BINDING AFFINITY PREDICTED BY RF-SCORE:    0.00 PKD
ROOT
HETATM    1  CE  UNL     1      -9.309  16.539  68.857  1.00  0.00    -0.256 C  
HETATM    2  SD  UNL     1      -7.924  15.561  69.330  1.00  0.00    -0.238 SA 
HETATM    3  CG  UNL     1      -6.524  16.710  69.154  1.00  0.00    -0.200 C  
HETATM    4  CB  UNL     1      -6.832  18.104  68.733  1.00  0.00    -0.264 C  
HETATM    5  CA  UNL     1      -8.001  18.599  68.294  1.00  0.00    -0.312 C  
HETATM    6  N   UNL     1      -9.090  17.781  68.196  1.00  0.00    -0.267 N  
HETATM    7  C   UNL     1      -7.984  20.019  67.816  1.00  0.00    -0.289 C  
HETATM    8  C   UNL     1     -10.277  17.808  67.527  1.00  0.00    -0.356 C  
HETATM    9  O   UNL     1      -9.097  20.533  67.319  1.00  0.00    -0.378 OA 
HETATM   10  OXT UNL     1      -6.972  20.720  67.888  1.00  0.00    -0.299 OA 
HETATM   11  CA  UNL     1     -10.407  16.261  67.728  1.00  0.00    -0.287 C  
HETATM   12  O   UNL     1     -10.797  18.673  66.903  1.00  0.00    -0.356 OA 
ENDROOT
BRANCH  11  13
HETATM   13  N   UNL     1     -10.356  15.548  66.395  1.00  0.00    -0.285 N  
HETATM   14  C   UNL     1     -10.107  14.236  65.966  1.00  0.00    -0.318 C  
HETATM   15  H   UNL     1     -10.550  16.177  65.616  1.00  0.00     0.000 HD 
HETATM   16  O   UNL     1     -10.062  14.038  64.752  1.00  0.00    -0.375 OA 
BRANCH  14  17
HETATM   17  C   UNL     1     -10.070  13.037  66.901  1.00  0.00    -0.243 C  
BRANCH  17  18
HETATM   18  C   UNL     1      -8.797  12.428  67.317  1.00  0.00    -0.192 A  
HETATM   19  N   UNL     1      -8.740  11.606  68.437  1.00  0.00    -0.162 NA 
HETATM   20  C   UNL     1      -7.545  12.830  66.863  1.00  0.00     0.171 A  
HETATM   21  N   UNL     1      -7.256  11.088  70.144  1.00  0.00    -0.441 NA 
HETATM   22  H2  UNL     1      -6.298  11.134  70.491  1.00  0.00     0.000 HD 
HETATM   23  S   UNL     1      -6.324  12.308  67.951  1.00  0.00    -0.103 SA 
HETATM   24  H1  UNL     1      -7.974  10.661  70.729  1.00  0.00     0.000 HD 
HETATM   25  C   UNL     1      -7.532  11.590  68.935  1.00  0.00    -0.106 A  
ENDBRANCH  17  18
BRANCH  17  26
HETATM   26  N   UNL     1     -11.074  12.270  67.229  1.00  0.00    -0.259 NA 
HETATM   27  H   UNL     1     -11.413  12.327  68.190  1.00  0.00     0.000 HD 
BRANCH  26  28
HETATM   28  O   UNL     1     -11.721  11.376  66.369  1.00  0.00    -0.353 OA 
HETATM   29  C   UNL     1     -10.998  10.740  65.338  1.00  0.00     0.110 C  
ENDBRANCH  26  28
ENDBRANCH  17  26
ENDBRANCH  14  17
ENDBRANCH  11  13
TORSDOF 5
ENDMDL
MODEL      170
REMARK 921   NORMALIZED FREE ENERGY PREDICTED BY IDOCK:   -4.74 KCAL/MOL
REMARK 922        TOTAL FREE ENERGY PREDICTED BY IDOCK:   -6.89 KCAL/MOL
REMARK 923 INTER-LIGAND FREE ENERGY PREDICTED BY IDOCK:   -6.31 KCAL/MOL
REMARK 924 INTRA-LIGAND FREE ENERGY PREDICTED BY IDOCK:   -0.58 KCAL/MOL
REMARK 927      BINDING AFFINITY PREDICTED BY RF-SCORE:    0.00 PKD
ROOT
HETATM    1  CE  UNL     1      -9.757   9.652  69.426  1.00  0.00    -0.194 C  
HETATM    2  SD  UNL     1      -9.120   8.278  68.532  1.00  0.00    -0.135 SA 
HETATM    3  CG  UNL     1      -9.551   8.667  66.807  1.00  0.00    -0.207 C  
HETATM    4  CB  UNL     1     -10.242   9.960  66.551  1.00  0.00    -0.292 C  
HETATM    5  CA  UNL     1     -10.752  10.821  67.447  1.00  0.00    -0.268 C  
HETATM    6  N   UNL     1     -10.661  10.543  68.781  1.00  0.00    -0.202 N  
HETATM    7  C   UNL     1     -11.510  11.988  66.893  1.00  0.00    -0.337 C  
HETATM    8  C   UNL     1     -11.301  10.955  69.912  1.00  0.00    -0.305 C  
HETATM    9  O   UNL     1     -12.082  12.831  67.736  1.00  0.00    -0.314 OA 
HETATM   10  OXT UNL     1     -11.600  12.190  65.679  1.00  0.00    -0.364 OA 
HETATM   11  CA  UNL     1     -10.786   9.674  70.651  1.00  0.00    -0.320 C  
HETATM   12  O   UNL     1     -12.079  11.834  70.088  1.00  0.00    -0.320 OA 
ENDROOT
BRANCH  11  13
HETATM   13  N   UNL     1     -11.946   8.785  71.037  1.00  0.00    -0.366 N  
HETATM   14  C   UNL     1     -12.160   7.402  71.146  1.00  0.00    -0.325 C  
HETATM   15  H   UNL     1     -12.779   9.322  71.279  1.00  0.00     0.000 HD 
HETATM   16  O   UNL     1     -13.301   7.027  71.413  1.00  0.00    -0.354 OA 
BRANCH  14  17
HETATM   17  C   UNL     1     -11.040   6.373  71.128  1.00  0.00    -0.291 C  
BRANCH  17  18
HETATM   18  C   UNL     1      -9.837   6.535  71.959  1.00  0.00    -0.158 A  
HETATM   19  N   UNL     1      -9.874   7.313  73.111  1.00  0.00    -0.210 NA 
HETATM   20  C   UNL     1      -8.545   6.220  71.547  1.00  0.00    -0.131 A  
HETATM   21  N   UNL     1      -8.468   8.716  74.311  1.00  0.00    -0.330 NA 
HETATM   22  H2  UNL     1      -7.515   9.041  74.475  1.00  0.00     0.000 HD 
HETATM   23  S   UNL     1      -7.395   7.045  72.517  1.00  0.00    -0.081 SA 
HETATM   24  H1  UNL     1      -9.232   9.137  74.841  1.00  0.00     0.000 HD 
HETATM   25  C   UNL     1      -8.679   7.752  73.407  1.00  0.00    -0.227 A  
ENDBRANCH  17  18
BRANCH  17  26
HETATM   26  N   UNL     1     -10.868   5.419  70.255  1.00  0.00    -0.222 NA 
HETATM   27  H   UNL     1     -11.163   4.479  70.522  1.00  0.00     0.000 HD 
BRANCH  26  28
HETATM   28  O   UNL     1     -10.311   5.582  68.981  1.00  0.00    -0.210 OA 
HETATM   29  C   UNL     1      -9.487   4.574  68.438  1.00  0.00    -0.151 C  
ENDBRANCH  26  28
ENDBRANCH  17  26
ENDBRANCH  14  17
ENDBRANCH  11  13
TORSDOF 5
ENDMDL
MODEL      171
REMARK 921   NORMALIZED FREE ENERGY PREDICTED BY IDOCK:   -4.74 KCAL/MOL
REMARK 922        TOTAL FREE ENERGY PREDICTED BY IDOCK:   -6.89 KCAL/MOL
REMARK 923 INTER-LIGAND FREE ENERGY PREDICTED BY IDOCK:   -6.24 KCAL/MOL
REMARK 924 INTRA-LIGAND FREE ENERGY PREDICTED BY IDOCK:   -0.65 KCAL/MOL
REMARK 927      BINDING AFFINITY PREDICTED BY RF-SCORE:    0.00 PKD
ROOT
HETATM    1  CE  UNL     1      -9.977  13.579  68.222  1.00  0.00    -0.237 C  
HETATM    2  SD  UNL     1      -8.917  14.982  68.150  1.00  0.00    -0.178 SA 
HETATM    3  CG  UNL     1      -9.419  15.804  66.606  1.00  0.00    -0.257 C  
HETATM    4  CB  UNL     1     -10.539  15.194  65.840  1.00  0.00    -0.347 C  
HETATM    5  CA  UNL     1     -11.134  14.007  66.042  1.00  0.00    -0.303 C  
HETATM    6  N   UNL     1     -10.712  13.202  67.062  1.00  0.00    -0.261 N  
HETATM    7  C   UNL     1     -12.156  13.593  65.029  1.00  0.00    -0.392 C  
HETATM    8  C   UNL     1     -10.813  11.879  67.371  1.00  0.00    -0.243 C  
HETATM    9  O   UNL     1     -12.726  12.406  65.151  1.00  0.00    -0.630 OA 
HETATM   10  OXT UNL     1     -12.489  14.332  64.099  1.00  0.00    -0.675 OA 
HETATM   11  CA  UNL     1      -9.600  12.030  68.349  1.00  0.00    -0.190 C  
HETATM   12  O   UNL     1     -11.457  11.013  66.876  1.00  0.00    -0.384 OA 
ENDROOT
BRANCH  11  13
HETATM   13  N   UNL     1      -8.424  11.214  67.863  1.00  0.00    -0.127 N  
HETATM   14  C   UNL     1      -7.400  10.469  68.468  1.00  0.00    -0.088 C  
HETATM   15  H   UNL     1      -8.359  11.201  66.845  1.00  0.00     0.000 HD 
HETATM   16  O   UNL     1      -6.535   9.996  67.731  1.00  0.00    -0.065 OA 
BRANCH  14  17
HETATM   17  C   UNL     1      -7.401  10.073  69.936  1.00  0.00    -0.161 C  
BRANCH  17  18
HETATM   18  C   UNL     1      -8.329   9.056  70.455  1.00  0.00    -0.183 A  
HETATM   19  N   UNL     1      -9.070   9.299  71.607  1.00  0.00    -0.273 NA 
HETATM   20  C   UNL     1      -8.332   7.719  70.069  1.00  0.00    -0.130 A  
HETATM   21  N   UNL     1      -9.902   8.119  73.424  1.00  0.00    -0.143 NA 
HETATM   22  H2  UNL     1     -10.116   7.209  73.830  1.00  0.00     0.000 HD 
HETATM   23  S   UNL     1      -9.125   6.762  71.252  1.00  0.00    -0.150 SA 
HETATM   24  H1  UNL     1     -10.070   8.959  73.976  1.00  0.00     0.000 HD 
HETATM   25  C   UNL     1      -9.408   8.175  72.181  1.00  0.00    -0.206 A  
ENDBRANCH  17  18
BRANCH  17  26
HETATM   26  N   UNL     1      -6.821  10.707  70.918  1.00  0.00    -0.325 NA 
HETATM   27  H   UNL     1      -7.088  10.446  71.868  1.00  0.00     0.000 HD 
BRANCH  26  28
HETATM   28  O   UNL     1      -5.862  11.716  70.772  1.00  0.00    -0.301 OA 
HETATM   29  C   UNL     1      -6.244  12.988  70.297  1.00  0.00     0.008 C  
ENDBRANCH  26  28
ENDBRANCH  17  26
ENDBRANCH  14  17
ENDBRANCH  11  13
TORSDOF 5
ENDMDL
MODEL      172
REMARK 921   NORMALIZED FREE ENERGY PREDICTED BY IDOCK:   -4.73 KCAL/MOL
REMARK 922        TOTAL FREE ENERGY PREDICTED BY IDOCK:   -6.88 KCAL/MOL
REMARK 923 INTER-LIGAND FREE ENERGY PREDICTED BY IDOCK:   -6.07 KCAL/MOL
REMARK 924 INTRA-LIGAND FREE ENERGY PREDICTED BY IDOCK:   -0.81 KCAL/MOL
REMARK 927      BINDING AFFINITY PREDICTED BY RF-SCORE:    0.00 PKD
ROOT
HETATM    1  CE  UNL     1      -9.427   7.937  70.002  1.00  0.00    -0.157 C  
HETATM    2  SD  UNL     1      -7.847   8.596  70.407  1.00  0.00    -0.101 SA 
HETATM    3  CG  UNL     1      -7.543   7.951  72.082  1.00  0.00    -0.089 C  
HETATM    4  CB  UNL     1      -8.578   7.056  72.667  1.00  0.00    -0.133 C  
HETATM    5  CA  UNL     1      -9.805   6.785  72.194  1.00  0.00    -0.148 C  
HETATM    6  N   UNL     1     -10.227   7.366  71.033  1.00  0.00    -0.192 N  
HETATM    7  C   UNL     1     -10.684   5.942  73.066  1.00  0.00    -0.256 C  
HETATM    8  C   UNL     1     -11.431   7.603  70.437  1.00  0.00    -0.174 C  
HETATM    9  O   UNL     1     -11.922   5.697  72.671  1.00  0.00    -0.252 OA 
HETATM   10  OXT UNL     1     -10.280   5.460  74.128  1.00  0.00    -0.214 OA 
HETATM   11  CA  UNL     1     -10.756   8.699  69.547  1.00  0.00    -0.182 C  
HETATM   12  O   UNL     1     -12.521   7.225  70.713  1.00  0.00    -0.259 OA 
ENDROOT
BRANCH  11  13
HETATM   13  N   UNL     1     -11.322  10.064  69.869  1.00  0.00    -0.286 N  
HETATM   14  C   UNL     1     -11.510  11.265  69.168  1.00  0.00    -0.297 C  
HETATM   15  H   UNL     1     -11.648  10.127  70.834  1.00  0.00     0.000 HD 
HETATM   16  O   UNL     1     -11.935  12.229  69.803  1.00  0.00    -0.314 OA 
BRANCH  14  17
HETATM   17  C   UNL     1     -11.389  11.386  67.657  1.00  0.00    -0.290 C  
BRANCH  17  18
HETATM   18  C   UNL     1     -10.196  10.906  66.942  1.00  0.00    -0.228 A  
HETATM   19  N   UNL     1     -10.266   9.783  66.125  1.00  0.00    -0.242 NA 
HETATM   20  C   UNL     1      -8.892  11.296  67.233  1.00  0.00    -0.150 A  
HETATM   21  N   UNL     1      -8.919   8.003  65.490  1.00  0.00    -0.377 NA 
HETATM   22  H2  UNL     1      -7.980   7.608  65.455  1.00  0.00     0.000 HD 
HETATM   23  S   UNL     1      -7.777  10.147  66.614  1.00  0.00    -0.109 SA 
HETATM   24  H1  UNL     1      -9.700   7.455  65.129  1.00  0.00     0.000 HD 
HETATM   25  C   UNL     1      -9.090   9.225  66.008  1.00  0.00    -0.188 A  
ENDBRANCH  17  18
BRANCH  17  26
HETATM   26  N   UNL     1     -12.134  12.111  66.868  1.00  0.00    -0.556 NA 
HETATM   27  H   UNL     1     -12.948  11.661  66.448  1.00  0.00     0.000 HD 
BRANCH  26  28
HETATM   28  O   UNL     1     -11.905  13.455  66.552  1.00  0.00    -0.356 OA 
HETATM   29  C   UNL     1     -12.574  14.046  65.459  1.00  0.00    -0.516 C  
ENDBRANCH  26  28
ENDBRANCH  17  26
ENDBRANCH  14  17
ENDBRANCH  11  13
TORSDOF 5
ENDMDL
MODEL      173
REMARK 921   NORMALIZED FREE ENERGY PREDICTED BY IDOCK:   -4.72 KCAL/MOL
REMARK 922        TOTAL FREE ENERGY PREDICTED BY IDOCK:   -6.86 KCAL/MOL
REMARK 923 INTER-LIGAND FREE ENERGY PREDICTED BY IDOCK:   -6.25 KCAL/MOL
REMARK 924 INTRA-LIGAND FREE ENERGY PREDICTED BY IDOCK:   -0.61 KCAL/MOL
REMARK 927      BINDING AFFINITY PREDICTED BY RF-SCORE:    0.00 PKD
ROOT
HETATM    1  CE  UNL     1      -9.640  10.641  64.079  1.00  0.00    -0.299 C  
HETATM    2  SD  UNL     1      -9.259  10.381  62.381  1.00  0.00    -0.266 SA 
HETATM    3  CG  UNL     1      -7.508   9.884  62.418  1.00  0.00    -0.115 C  
HETATM    4  CB  UNL     1      -6.858   9.773  63.752  1.00  0.00    -0.119 C  
HETATM    5  CA  UNL     1      -7.340  10.157  64.945  1.00  0.00    -0.136 C  
HETATM    6  N   UNL     1      -8.579  10.728  65.024  1.00  0.00    -0.151 N  
HETATM    7  C   UNL     1      -6.406  10.039  66.110  1.00  0.00    -0.081 C  
HETATM    8  C   UNL     1      -9.242  11.505  65.926  1.00  0.00    -0.210 C  
HETATM    9  O   UNL     1      -6.814  10.460  67.296  1.00  0.00    -0.078 OA 
HETATM   10  OXT UNL     1      -5.279   9.549  65.996  1.00  0.00    -0.035 OA 
HETATM   11  CA  UNL     1     -10.233  11.941  64.796  1.00  0.00    -0.276 C  
HETATM   12  O   UNL     1      -8.964  11.816  67.037  1.00  0.00    -0.174 OA 
ENDROOT
BRANCH  11  13
HETATM   13  N   UNL     1     -10.100  13.422  64.518  1.00  0.00    -0.634 N  
HETATM   14  C   UNL     1     -10.638  14.599  65.061  1.00  0.00    -0.439 C  
HETATM   15  H   UNL     1      -9.461  13.612  63.745  1.00  0.00     0.000 HD 
HETATM   16  O   UNL     1     -10.359  15.658  64.500  1.00  0.00    -0.237 OA 
BRANCH  14  17
HETATM   17  C   UNL     1     -11.384  14.651  66.384  1.00  0.00    -0.348 C  
BRANCH  17  18
HETATM   18  C   UNL     1     -10.856  15.403  67.534  1.00  0.00    -0.305 A  
HETATM   19  N   UNL     1     -11.238  16.722  67.750  1.00  0.00    -0.130 NA 
HETATM   20  C   UNL     1      -9.753  15.017  68.290  1.00  0.00    -0.215 A  
HETATM   21  N   UNL     1     -10.324  18.687  68.582  1.00  0.00    -0.425 NA 
HETATM   22  H2  UNL     1      -9.571  19.126  69.110  1.00  0.00     0.000 HD 
HETATM   23  S   UNL     1      -9.112  16.366  69.134  1.00  0.00    -0.148 SA 
HETATM   24  H1  UNL     1     -11.050  19.275  68.172  1.00  0.00     0.000 HD 
HETATM   25  C   UNL     1     -10.331  17.355  68.446  1.00  0.00    -0.379 A  
ENDBRANCH  17  18
BRANCH  17  26
HETATM   26  N   UNL     1     -12.376  13.887  66.754  1.00  0.00    -0.472 NA 
HETATM   27  H   UNL     1     -13.271  14.340  66.945  1.00  0.00     0.000 HD 
BRANCH  26  28
HETATM   28  O   UNL     1     -12.310  12.498  66.910  1.00  0.00    -0.431 OA 
HETATM   29  C   UNL     1     -11.933  11.945  68.152  1.00  0.00    -0.152 C  
ENDBRANCH  26  28
ENDBRANCH  17  26
ENDBRANCH  14  17
ENDBRANCH  11  13
TORSDOF 5
ENDMDL
MODEL      174
REMARK 921   NORMALIZED FREE ENERGY PREDICTED BY IDOCK:   -4.72 KCAL/MOL
REMARK 922        TOTAL FREE ENERGY PREDICTED BY IDOCK:   -6.86 KCAL/MOL
REMARK 923 INTER-LIGAND FREE ENERGY PREDICTED BY IDOCK:   -5.70 KCAL/MOL
REMARK 924 INTRA-LIGAND FREE ENERGY PREDICTED BY IDOCK:   -1.16 KCAL/MOL
REMARK 927      BINDING AFFINITY PREDICTED BY RF-SCORE:    0.00 PKD
ROOT
HETATM    1  CE  UNL     1      -9.360   6.162  68.994  1.00  0.00    -0.128 C  
HETATM    2  SD  UNL     1     -10.767   6.900  68.239  1.00  0.00    -0.194 SA 
HETATM    3  CG  UNL     1     -10.530   8.675  68.564  1.00  0.00    -0.172 C  
HETATM    4  CB  UNL     1      -9.294   9.079  69.287  1.00  0.00    -0.150 C  
HETATM    5  CA  UNL     1      -8.392   8.290  69.893  1.00  0.00    -0.125 C  
HETATM    6  N   UNL     1      -8.562   6.935  69.885  1.00  0.00    -0.140 N  
HETATM    7  C   UNL     1      -7.306   8.985  70.657  1.00  0.00    -0.098 C  
HETATM    8  C   UNL     1      -8.095   5.885  70.619  1.00  0.00    -0.118 C  
HETATM    9  O   UNL     1      -6.428   8.251  71.320  1.00  0.00    -0.041 OA 
HETATM   10  OXT UNL     1      -7.202  10.214  70.669  1.00  0.00    -0.317 OA 
HETATM   11  CA  UNL     1      -9.291   5.015  70.106  1.00  0.00    -0.157 C  
HETATM   12  O   UNL     1      -7.242   5.832  71.442  1.00  0.00    -0.074 OA 
ENDROOT
BRANCH  11  13
HETATM   13  N   UNL     1     -10.200   4.638  71.253  1.00  0.00    -0.172 N  
HETATM   14  C   UNL     1     -10.775   5.309  72.343  1.00  0.00    -0.229 C  
HETATM   15  H   UNL     1     -10.461   3.652  71.229  1.00  0.00     0.000 HD 
HETATM   16  O   UNL     1     -11.413   4.634  73.150  1.00  0.00    -0.286 OA 
BRANCH  14  17
HETATM   17  C   UNL     1     -10.801   6.823  72.481  1.00  0.00    -0.239 C  
BRANCH  17  18
HETATM   18  C   UNL     1     -11.901   7.625  71.921  1.00  0.00    -0.294 A  
HETATM   19  N   UNL     1     -11.863   9.014  71.979  1.00  0.00    -0.366 NA 
HETATM   20  C   UNL     1     -13.155   7.121  71.589  1.00  0.00    -0.361 A  
HETATM   21  N   UNL     1     -13.338  10.789  72.213  1.00  0.00    -0.576 NA 
HETATM   22  H2  UNL     1     -14.306  11.110  72.188  1.00  0.00     0.000 HD 
HETATM   23  S   UNL     1     -14.305   8.393  71.519  1.00  0.00    -0.346 SA 
HETATM   24  H1  UNL     1     -12.604  11.454  72.457  1.00  0.00     0.000 HD 
HETATM   25  C   UNL     1     -13.071   9.510  71.928  1.00  0.00    -0.428 A  
ENDBRANCH  17  18
BRANCH  17  26
HETATM   26  N   UNL     1      -9.812   7.594  72.843  1.00  0.00    -0.217 NA 
HETATM   27  H   UNL     1      -9.368   8.159  72.118  1.00  0.00     0.000 HD 
BRANCH  26  28
HETATM   28  O   UNL     1      -9.312   7.706  74.145  1.00  0.00    -0.217 OA 
HETATM   29  C   UNL     1      -7.983   8.133  74.356  1.00  0.00    -0.253 C  
ENDBRANCH  26  28
ENDBRANCH  17  26
ENDBRANCH  14  17
ENDBRANCH  11  13
TORSDOF 5
ENDMDL
MODEL      175
REMARK 921   NORMALIZED FREE ENERGY PREDICTED BY IDOCK:   -4.68 KCAL/MOL
REMARK 922        TOTAL FREE ENERGY PREDICTED BY IDOCK:   -6.81 KCAL/MOL
REMARK 923 INTER-LIGAND FREE ENERGY PREDICTED BY IDOCK:   -6.50 KCAL/MOL
REMARK 924 INTRA-LIGAND FREE ENERGY PREDICTED BY IDOCK:   -0.32 KCAL/MOL
REMARK 927      BINDING AFFINITY PREDICTED BY RF-SCORE:    0.00 PKD
ROOT
HETATM    1  CE  UNL     1      -9.879  14.727  68.702  1.00  0.00    -0.225 C  
HETATM    2  SD  UNL     1     -11.087  16.005  68.629  1.00  0.00    -0.367 SA 
HETATM    3  CG  UNL     1     -12.578  15.207  69.302  1.00  0.00     0.147 C  
HETATM    4  CB  UNL     1     -12.450  13.799  69.765  1.00  0.00    -0.216 C  
HETATM    5  CA  UNL     1     -11.412  12.962  69.600  1.00  0.00    -0.181 C  
HETATM    6  N   UNL     1     -10.298  13.386  68.933  1.00  0.00    -0.137 N  
HETATM    7  C   UNL     1     -11.615  11.551  70.063  1.00  0.00    -0.282 C  
HETATM    8  C   UNL     1      -9.248  12.789  68.304  1.00  0.00    -0.186 C  
HETATM    9  O   UNL     1     -10.644  10.675  69.868  1.00  0.00    -0.238 OA 
HETATM   10  OXT UNL     1     -12.649  11.194  70.632  1.00  0.00    -0.332 OA 
HETATM   11  CA  UNL     1      -8.972  14.123  67.533  1.00  0.00    -0.198 C  
HETATM   12  O   UNL     1      -8.906  11.653  68.270  1.00  0.00    -0.157 OA 
ENDROOT
BRANCH  11  13
HETATM   13  N   UNL     1      -9.196  13.932  66.049  1.00  0.00    -0.500 N  
HETATM   14  C   UNL     1      -9.917  13.034  65.249  1.00  0.00    -0.170 C  
HETATM   15  H   UNL     1      -8.700  14.630  65.494  1.00  0.00     0.000 HD 
HETATM   16  O   UNL     1      -9.790  13.136  64.030  1.00  0.00    -0.209 OA 
BRANCH  14  17
HETATM   17  C   UNL     1     -10.966  12.077  65.793  1.00  0.00    -0.307 C  
BRANCH  17  18
HETATM   18  C   UNL     1     -10.697  10.636  65.922  1.00  0.00    -0.035 A  
HETATM   19  N   UNL     1     -11.255   9.904  66.965  1.00  0.00     0.044 NA 
HETATM   20  C   UNL     1      -9.677   9.962  65.259  1.00  0.00    -0.313 A  
HETATM   21  N   UNL     1     -10.701   8.106  68.322  1.00  0.00    -0.422 NA 
HETATM   22  H2  UNL     1     -10.086   7.308  68.481  1.00  0.00     0.000 HD 
HETATM   23  S   UNL     1      -9.321   8.487  66.061  1.00  0.00    -0.166 SA 
HETATM   24  H1  UNL     1     -11.423   8.318  69.010  1.00  0.00     0.000 HD 
HETATM   25  C   UNL     1     -10.535   8.843  67.218  1.00  0.00    -0.277 A  
ENDBRANCH  17  18
BRANCH  17  26
HETATM   26  N   UNL     1     -12.238  12.321  65.958  1.00  0.00    -0.597 NA 
HETATM   27  H   UNL     1     -12.594  12.331  66.914  1.00  0.00     0.000 HD 
BRANCH  26  28
HETATM   28  O   UNL     1     -13.151  12.571  64.928  1.00  0.00    -0.833 OA 
HETATM   29  C   UNL     1     -12.875  12.127  63.617  1.00  0.00    -0.341 C  
ENDBRANCH  26  28
ENDBRANCH  17  26
ENDBRANCH  14  17
ENDBRANCH  11  13
TORSDOF 5
ENDMDL
MODEL      176
REMARK 921   NORMALIZED FREE ENERGY PREDICTED BY IDOCK:   -4.68 KCAL/MOL
REMARK 922        TOTAL FREE ENERGY PREDICTED BY IDOCK:   -6.81 KCAL/MOL
REMARK 923 INTER-LIGAND FREE ENERGY PREDICTED BY IDOCK:   -6.22 KCAL/MOL
REMARK 924 INTRA-LIGAND FREE ENERGY PREDICTED BY IDOCK:   -0.59 KCAL/MOL
REMARK 927      BINDING AFFINITY PREDICTED BY RF-SCORE:    0.00 PKD
ROOT
HETATM    1  CE  UNL     1      -8.997  13.040  65.984  1.00  0.00     0.315 C  
HETATM    2  SD  UNL     1      -8.718  11.547  66.870  1.00  0.00    -0.186 SA 
HETATM    3  CG  UNL     1     -10.236  10.590  66.562  1.00  0.00    -0.231 C  
HETATM    4  CB  UNL     1     -11.261  11.203  65.676  1.00  0.00     0.008 C  
HETATM    5  CA  UNL     1     -11.302  12.457  65.196  1.00  0.00    -0.323 C  
HETATM    6  N   UNL     1     -10.309  13.338  65.518  1.00  0.00    -0.286 N  
HETATM    7  C   UNL     1     -12.530  12.837  64.427  1.00  0.00    -0.399 C  
HETATM    8  C   UNL     1     -10.165  14.694  65.517  1.00  0.00    -0.370 C  
HETATM    9  O   UNL     1     -12.643  14.078  63.985  1.00  0.00    -0.689 OA 
HETATM   10  OXT UNL     1     -13.424  12.023  64.183  1.00  0.00    -0.672 OA 
HETATM   11  CA  UNL     1      -8.962  14.551  66.508  1.00  0.00    -0.180 C  
HETATM   12  O   UNL     1     -10.861  15.548  65.076  1.00  0.00    -0.407 OA 
ENDROOT
BRANCH  11  13
HETATM   13  N   UNL     1      -9.295  15.187  67.839  1.00  0.00    -0.185 N  
HETATM   14  C   UNL     1      -8.566  15.619  68.957  1.00  0.00    -0.232 C  
HETATM   15  H   UNL     1     -10.298  15.340  67.951  1.00  0.00     0.000 HD 
HETATM   16  O   UNL     1      -9.206  16.021  69.928  1.00  0.00     0.008 OA 
BRANCH  14  17
HETATM   17  C   UNL     1      -7.054  15.782  68.964  1.00  0.00    -0.159 C  
BRANCH  17  18
HETATM   18  C   UNL     1      -6.425  17.087  69.222  1.00  0.00    -0.231 A  
HETATM   19  N   UNL     1      -5.664  17.290  70.368  1.00  0.00    -0.192 NA 
HETATM   20  C   UNL     1      -6.760  18.268  68.566  1.00  0.00    -0.238 A  
HETATM   21  N   UNL     1      -5.188  18.999  71.863  1.00  0.00    -0.712 NA 
HETATM   22  H2  UNL     1      -5.220  19.999  72.062  1.00  0.00     0.000 HD 
HETATM   23  S   UNL     1      -6.256  19.623  69.490  1.00  0.00    -0.330 SA 
HETATM   24  H1  UNL     1      -4.818  18.366  72.571  1.00  0.00     0.000 HD 
HETATM   25  C   UNL     1      -5.634  18.558  70.681  1.00  0.00    -0.173 A  
ENDBRANCH  17  18
BRANCH  17  26
HETATM   26  N   UNL     1      -6.173  14.930  68.517  1.00  0.00    -0.086 NA 
HETATM   27  H   UNL     1      -5.906  15.002  67.534  1.00  0.00     0.000 HD 
BRANCH  26  28
HETATM   28  O   UNL     1      -5.564  13.925  69.277  1.00  0.00    -0.081 OA 
HETATM   29  C   UNL     1      -5.820  13.836  70.662  1.00  0.00    -0.187 C  
ENDBRANCH  26  28
ENDBRANCH  17  26
ENDBRANCH  14  17
ENDBRANCH  11  13
TORSDOF 5
ENDMDL
MODEL      177
REMARK 921   NORMALIZED FREE ENERGY PREDICTED BY IDOCK:   -4.66 KCAL/MOL
REMARK 922        TOTAL FREE ENERGY PREDICTED BY IDOCK:   -6.79 KCAL/MOL
REMARK 923 INTER-LIGAND FREE ENERGY PREDICTED BY IDOCK:   -5.93 KCAL/MOL
REMARK 924 INTRA-LIGAND FREE ENERGY PREDICTED BY IDOCK:   -0.85 KCAL/MOL
REMARK 927      BINDING AFFINITY PREDICTED BY RF-SCORE:    0.00 PKD
ROOT
HETATM    1  CE  UNL     1     -11.367   6.951  69.510  1.00  0.00    -0.167 C  
HETATM    2  SD  UNL     1     -10.669   6.127  68.121  1.00  0.00    -0.301 SA 
HETATM    3  CG  UNL     1      -9.756   4.744  68.873  1.00  0.00    -0.174 C  
HETATM    4  CB  UNL     1      -9.831   4.599  70.352  1.00  0.00    -0.306 C  
HETATM    5  CA  UNL     1     -10.348   5.459  71.245  1.00  0.00    -0.228 C  
HETATM    6  N   UNL     1     -10.895   6.634  70.816  1.00  0.00    -0.240 N  
HETATM    7  C   UNL     1     -10.168   5.107  72.690  1.00  0.00    -0.186 C  
HETATM    8  C   UNL     1     -11.196   7.838  71.381  1.00  0.00    -0.246 C  
HETATM    9  O   UNL     1     -10.608   5.951  73.608  1.00  0.00    -0.250 OA 
HETATM   10  OXT UNL     1      -9.638   4.050  73.042  1.00  0.00    -0.122 OA 
HETATM   11  CA  UNL     1     -11.231   8.481  69.955  1.00  0.00    -0.032 C  
HETATM   12  O   UNL     1     -11.194   8.185  72.516  1.00  0.00    -0.351 OA 
ENDROOT
BRANCH  11  13
HETATM   13  N   UNL     1     -10.125   9.501  69.807  1.00  0.00    -0.201 N  
HETATM   14  C   UNL     1      -9.558  10.223  68.745  1.00  0.00    -0.175 C  
HETATM   15  H   UNL     1      -9.682   9.719  70.699  1.00  0.00     0.000 HD 
HETATM   16  O   UNL     1      -8.579  10.923  68.998  1.00  0.00    -0.156 OA 
BRANCH  14  17
HETATM   17  C   UNL     1     -10.188  10.323  67.365  1.00  0.00    -0.218 C  
BRANCH  17  18
HETATM   18  C   UNL     1     -10.924  11.525  66.943  1.00  0.00    -0.296 A  
HETATM   19  N   UNL     1     -10.603  12.169  65.753  1.00  0.00    -0.252 NA 
HETATM   20  C   UNL     1     -11.742  12.282  67.776  1.00  0.00    -0.337 A  
HETATM   21  N   UNL     1     -10.552  14.326  64.898  1.00  0.00    -0.417 NA 
HETATM   22  H2  UNL     1     -10.839  15.298  65.005  1.00  0.00     0.000 HD 
HETATM   23  S   UNL     1     -11.957  13.856  67.127  1.00  0.00    -0.400 SA 
HETATM   24  H1  UNL     1      -9.960  14.069  64.108  1.00  0.00     0.000 HD 
HETATM   25  C   UNL     1     -10.962  13.425  65.799  1.00  0.00    -0.277 A  
ENDBRANCH  17  18
BRANCH  17  26
HETATM   26  N   UNL     1     -10.386   9.346  66.522  1.00  0.00    -0.232 NA 
HETATM   27  H   UNL     1     -11.354   9.092  66.317  1.00  0.00     0.000 HD 
BRANCH  26  28
HETATM   28  O   UNL     1      -9.379   8.619  65.878  1.00  0.00    -0.219 OA 
HETATM   29  C   UNL     1      -8.389   9.294  65.133  1.00  0.00    -0.150 C  
ENDBRANCH  26  28
ENDBRANCH  17  26
ENDBRANCH  14  17
ENDBRANCH  11  13
TORSDOF 5
ENDMDL
MODEL      178
REMARK 921   NORMALIZED FREE ENERGY PREDICTED BY IDOCK:   -4.64 KCAL/MOL
REMARK 922        TOTAL FREE ENERGY PREDICTED BY IDOCK:   -6.76 KCAL/MOL
REMARK 923 INTER-LIGAND FREE ENERGY PREDICTED BY IDOCK:   -6.00 KCAL/MOL
REMARK 924 INTRA-LIGAND FREE ENERGY PREDICTED BY IDOCK:   -0.77 KCAL/MOL
REMARK 927      BINDING AFFINITY PREDICTED BY RF-SCORE:    0.00 PKD
ROOT
HETATM    1  CE  UNL     1      -9.797   8.234  69.905  1.00  0.00    -0.186 C  
HETATM    2  SD  UNL     1     -11.092   7.050  70.031  1.00  0.00    -0.268 SA 
HETATM    3  CG  UNL     1     -10.433   5.615  69.126  1.00  0.00    -0.269 C  
HETATM    4  CB  UNL     1      -9.058   5.731  68.570  1.00  0.00    -0.116 C  
HETATM    5  CA  UNL     1      -8.282   6.824  68.496  1.00  0.00    -0.120 C  
HETATM    6  N   UNL     1      -8.745   8.018  68.971  1.00  0.00    -0.137 N  
HETATM    7  C   UNL     1      -6.983   6.671  67.764  1.00  0.00    -0.083 C  
HETATM    8  C   UNL     1      -8.431   9.332  68.790  1.00  0.00    -0.129 C  
HETATM    9  O   UNL     1      -6.212   7.734  67.612  1.00  0.00    -0.047 OA 
HETATM   10  OXT UNL     1      -6.611   5.583  67.317  1.00  0.00    -0.050 OA 
HETATM   11  CA  UNL     1      -9.843   9.728  69.337  1.00  0.00    -0.205 C  
HETATM   12  O   UNL     1      -7.514   9.842  68.235  1.00  0.00    -0.079 OA 
ENDROOT
BRANCH  11  13
HETATM   13  N   UNL     1     -10.662  10.393  68.253  1.00  0.00    -0.218 N  
HETATM   14  C   UNL     1     -11.528  11.495  68.181  1.00  0.00    -0.315 C  
HETATM   15  H   UNL     1     -10.560   9.925  67.353  1.00  0.00     0.000 HD 
HETATM   16  O   UNL     1     -12.104  11.691  67.112  1.00  0.00    -0.575 OA 
BRANCH  14  17
HETATM   17  C   UNL     1     -11.651  12.542  69.277  1.00  0.00    -0.319 C  
BRANCH  17  18
HETATM   18  C   UNL     1     -11.313  13.953  69.031  1.00  0.00    -0.283 A  
HETATM   19  N   UNL     1     -10.173  14.291  68.310  1.00  0.00    -0.237 NA 
HETATM   20  C   UNL     1     -11.874  15.029  69.712  1.00  0.00    -0.321 A  
HETATM   21  N   UNL     1      -8.569  15.967  68.272  1.00  0.00    -0.175 NA 
HETATM   22  H2  UNL     1      -8.297  16.902  68.576  1.00  0.00     0.000 HD 
HETATM   23  S   UNL     1     -10.866  16.410  69.572  1.00  0.00    -0.326 SA 
HETATM   24  H1  UNL     1      -7.917  15.422  67.709  1.00  0.00     0.000 HD 
HETATM   25  C   UNL     1      -9.770  15.493  68.625  1.00  0.00    -0.208 A  
ENDBRANCH  17  18
BRANCH  17  26
HETATM   26  N   UNL     1     -11.799  12.324  70.555  1.00  0.00    -0.517 NA 
HETATM   27  H   UNL     1     -11.061  12.657  71.177  1.00  0.00     0.000 HD 
BRANCH  26  28
HETATM   28  O   UNL     1     -12.889  11.670  71.141  1.00  0.00    -0.364 OA 
HETATM   29  C   UNL     1     -12.789  10.307  71.490  1.00  0.00    -0.452 C  
ENDBRANCH  26  28
ENDBRANCH  17  26
ENDBRANCH  14  17
ENDBRANCH  11  13
TORSDOF 5
ENDMDL
MODEL      179
REMARK 921   NORMALIZED FREE ENERGY PREDICTED BY IDOCK:   -4.64 KCAL/MOL
REMARK 922        TOTAL FREE ENERGY PREDICTED BY IDOCK:   -6.75 KCAL/MOL
REMARK 923 INTER-LIGAND FREE ENERGY PREDICTED BY IDOCK:   -5.52 KCAL/MOL
REMARK 924 INTRA-LIGAND FREE ENERGY PREDICTED BY IDOCK:   -1.24 KCAL/MOL
REMARK 927      BINDING AFFINITY PREDICTED BY RF-SCORE:    0.00 PKD
ROOT
HETATM    1  CE  UNL     1     -10.497   5.632  66.649  1.00  0.00    -0.279 C  
HETATM    2  SD  UNL     1      -9.818   4.285  65.744  1.00  0.00    -0.221 SA 
HETATM    3  CG  UNL     1      -9.288   3.132  67.049  1.00  0.00    -0.150 C  
HETATM    4  CB  UNL     1      -9.560   3.524  68.458  1.00  0.00    -0.151 C  
HETATM    5  CA  UNL     1      -9.999   4.706  68.922  1.00  0.00    -0.098 C  
HETATM    6  N   UNL     1     -10.251   5.725  68.049  1.00  0.00    -0.170 N  
HETATM    7  C   UNL     1     -10.059   4.856  70.411  1.00  0.00    -0.245 C  
HETATM    8  C   UNL     1     -10.372   7.080  68.134  1.00  0.00    -0.191 C  
HETATM    9  O   UNL     1     -10.428   6.021  70.917  1.00  0.00    -0.215 OA 
HETATM   10  OXT UNL     1      -9.792   3.922  71.172  1.00  0.00    -0.180 OA 
HETATM   11  CA  UNL     1     -10.115   7.184  66.594  1.00  0.00    -0.159 C  
HETATM   12  O   UNL     1     -10.433   7.796  69.079  1.00  0.00    -0.216 OA 
ENDROOT
BRANCH  11  13
HETATM   13  N   UNL     1      -8.821   7.917  66.322  1.00  0.00    -0.152 N  
HETATM   14  C   UNL     1      -8.464   9.149  65.754  1.00  0.00    -0.141 C  
HETATM   15  H   UNL     1      -8.006   7.384  66.628  1.00  0.00     0.000 HD 
HETATM   16  O   UNL     1      -7.263   9.380  65.614  1.00  0.00    -0.088 OA 
BRANCH  14  17
HETATM   17  C   UNL     1      -9.456  10.267  65.474  1.00  0.00    -0.223 C  
BRANCH  17  18
HETATM   18  C   UNL     1     -10.012  11.089  66.560  1.00  0.00    -0.212 A  
HETATM   19  N   UNL     1      -9.759  10.768  67.890  1.00  0.00    -0.164 NA 
HETATM   20  C   UNL     1     -11.037  12.017  66.402  1.00  0.00    -0.318 A  
HETATM   21  N   UNL     1     -10.836  10.874  69.942  1.00  0.00    -0.446 NA 
HETATM   22  H2  UNL     1     -11.608  11.256  70.487  1.00  0.00     0.000 HD 
HETATM   23  S   UNL     1     -11.779  12.344  67.915  1.00  0.00    -0.326 SA 
HETATM   24  H1  UNL     1     -10.193  10.220  70.388  1.00  0.00     0.000 HD 
HETATM   25  C   UNL     1     -10.698  11.244  68.664  1.00  0.00    -0.205 A  
ENDBRANCH  17  18
BRANCH  17  26
HETATM   26  N   UNL     1     -10.113  10.471  64.365  1.00  0.00    -0.346 NA 
HETATM   27  H   UNL     1     -10.999   9.978  64.246  1.00  0.00     0.000 HD 
BRANCH  26  28
HETATM   28  O   UNL     1      -9.698  11.311  63.325  1.00  0.00    -0.310 OA 
HETATM   29  C   UNL     1      -8.764  10.849  62.375  1.00  0.00    -0.309 C  
ENDBRANCH  26  28
ENDBRANCH  17  26
ENDBRANCH  14  17
ENDBRANCH  11  13
TORSDOF 5
ENDMDL
MODEL      180
REMARK 921   NORMALIZED FREE ENERGY PREDICTED BY IDOCK:   -4.62 KCAL/MOL
REMARK 922        TOTAL FREE ENERGY PREDICTED BY IDOCK:   -6.74 KCAL/MOL
REMARK 923 INTER-LIGAND FREE ENERGY PREDICTED BY IDOCK:   -5.89 KCAL/MOL
REMARK 924 INTRA-LIGAND FREE ENERGY PREDICTED BY IDOCK:   -0.85 KCAL/MOL
REMARK 927      BINDING AFFINITY PREDICTED BY RF-SCORE:    0.00 PKD
ROOT
HETATM    1  CE  UNL     1      -9.723  14.659  65.786  1.00  0.00    -0.297 C  
HETATM    2  SD  UNL     1     -10.978  15.655  65.059  1.00  0.00    -0.395 SA 
HETATM    3  CG  UNL     1     -10.770  17.259  65.892  1.00  0.00    -0.126 C  
HETATM    4  CB  UNL     1      -9.663  17.379  66.878  1.00  0.00    -0.286 C  
HETATM    5  CA  UNL     1      -8.883  16.404  67.373  1.00  0.00    -0.183 C  
HETATM    6  N   UNL     1      -9.070  15.114  66.967  1.00  0.00    -0.216 N  
HETATM    7  C   UNL     1      -7.926  16.802  68.456  1.00  0.00    -0.235 C  
HETATM    8  C   UNL     1      -8.744  13.880  67.445  1.00  0.00    -0.203 C  
HETATM    9  O   UNL     1      -7.179  15.866  69.017  1.00  0.00    -0.151 OA 
HETATM   10  OXT UNL     1      -7.807  17.974  68.822  1.00  0.00    -0.301 OA 
HETATM   11  CA  UNL     1      -9.853  13.253  66.536  1.00  0.00    -0.281 C  
HETATM   12  O   UNL     1      -8.038  13.557  68.342  1.00  0.00    -0.146 OA 
ENDROOT
BRANCH  11  13
HETATM   13  N   UNL     1     -10.943  12.634  67.382  1.00  0.00    -0.246 N  
HETATM   14  C   UNL     1     -11.225  11.353  67.878  1.00  0.00    -0.288 C  
HETATM   15  H   UNL     1     -11.648  13.318  67.661  1.00  0.00     0.000 HD 
HETATM   16  O   UNL     1     -12.289  11.201  68.479  1.00  0.00    -0.561 OA 
BRANCH  14  17
HETATM   17  C   UNL     1     -10.225  10.207  67.870  1.00  0.00    -0.180 C  
BRANCH  17  18
HETATM   18  C   UNL     1      -9.374   9.941  66.700  1.00  0.00    -0.157 A  
HETATM   19  N   UNL     1      -8.003  10.169  66.757  1.00  0.00    -0.114 NA 
HETATM   20  C   UNL     1      -9.848   9.755  65.405  1.00  0.00    -0.295 A  
HETATM   21  N   UNL     1      -6.293  10.865  65.352  1.00  0.00    -0.361 NA 
HETATM   22  H2  UNL     1      -5.985  11.038  64.395  1.00  0.00     0.000 HD 
HETATM   23  S   UNL     1      -8.594  10.036  64.267  1.00  0.00    -0.205 SA 
HETATM   24  H1  UNL     1      -5.655  11.069  66.121  1.00  0.00     0.000 HD 
HETATM   25  C   UNL     1      -7.522  10.379  65.560  1.00  0.00    -0.142 A  
ENDBRANCH  17  18
BRANCH  17  26
HETATM   26  N   UNL     1     -10.166   9.214  68.714  1.00  0.00    -0.204 NA 
HETATM   27  H   UNL     1     -10.161   9.442  69.709  1.00  0.00     0.000 HD 
BRANCH  26  28
HETATM   28  O   UNL     1     -10.109   7.860  68.363  1.00  0.00    -0.182 OA 
HETATM   29  C   UNL     1      -9.036   7.060  68.811  1.00  0.00    -0.131 C  
ENDBRANCH  26  28
ENDBRANCH  17  26
ENDBRANCH  14  17
ENDBRANCH  11  13
TORSDOF 5
ENDMDL
MODEL      181
REMARK 921   NORMALIZED FREE ENERGY PREDICTED BY IDOCK:   -4.62 KCAL/MOL
REMARK 922        TOTAL FREE ENERGY PREDICTED BY IDOCK:   -6.73 KCAL/MOL
REMARK 923 INTER-LIGAND FREE ENERGY PREDICTED BY IDOCK:   -6.01 KCAL/MOL
REMARK 924 INTRA-LIGAND FREE ENERGY PREDICTED BY IDOCK:   -0.72 KCAL/MOL
REMARK 927      BINDING AFFINITY PREDICTED BY RF-SCORE:    0.00 PKD
ROOT
HETATM    1  CE  UNL     1      -9.690  18.172  66.106  1.00  0.00    -0.210 C  
HETATM    2  SD  UNL     1     -10.736  19.520  66.536  1.00  0.00    -0.381 SA 
HETATM    3  CG  UNL     1      -9.588  20.713  67.292  1.00  0.00    -0.417 C  
HETATM    4  CB  UNL     1      -8.148  20.342  67.335  1.00  0.00    -0.377 C  
HETATM    5  CA  UNL     1      -7.586  19.158  67.042  1.00  0.00    -0.227 C  
HETATM    6  N   UNL     1      -8.373  18.114  66.645  1.00  0.00    -0.255 N  
HETATM    7  C   UNL     1      -6.116  19.035  67.301  1.00  0.00    -0.168 C  
HETATM    8  C   UNL     1      -8.245  16.759  66.587  1.00  0.00    -0.261 C  
HETATM    9  O   UNL     1      -5.528  17.870  67.084  1.00  0.00    -0.132 OA 
HETATM   10  OXT UNL     1      -5.441  19.991  67.693  1.00  0.00    -0.181 OA 
HETATM   11  CA  UNL     1      -9.804  16.631  66.517  1.00  0.00    -0.281 C  
HETATM   12  O   UNL     1      -7.300  16.060  66.749  1.00  0.00    -0.216 OA 
ENDROOT
BRANCH  11  13
HETATM   13  N   UNL     1     -10.332  15.930  67.748  1.00  0.00    -0.271 N  
HETATM   14  C   UNL     1     -10.485  14.597  68.158  1.00  0.00    -0.237 C  
HETATM   15  H   UNL     1     -10.659  16.589  68.455  1.00  0.00     0.000 HD 
HETATM   16  O   UNL     1     -11.056  14.397  69.230  1.00  0.00    -0.257 OA 
BRANCH  14  17
HETATM   17  C   UNL     1      -9.834  13.418  67.450  1.00  0.00    -0.227 C  
BRANCH  17  18
HETATM   18  C   UNL     1     -10.316  12.043  67.650  1.00  0.00    -0.198 A  
HETATM   19  N   UNL     1     -10.264  11.452  68.908  1.00  0.00    -0.197 NA 
HETATM   20  C   UNL     1     -10.557  11.134  66.624  1.00  0.00    -0.264 A  
HETATM   21  N   UNL     1      -9.929   9.351  69.833  1.00  0.00    -0.197 NA 
HETATM   22  H2  UNL     1      -9.887   8.343  69.682  1.00  0.00     0.000 HD 
HETATM   23  S   UNL     1     -10.548   9.531  67.236  1.00  0.00    -0.205 SA 
HETATM   24  H1  UNL     1      -9.740   9.718  70.765  1.00  0.00     0.000 HD 
HETATM   25  C   UNL     1     -10.230  10.150  68.803  1.00  0.00    -0.186 A  
ENDBRANCH  17  18
BRANCH  17  26
HETATM   26  N   UNL     1      -8.687  13.416  66.828  1.00  0.00    -0.417 NA 
HETATM   27  H   UNL     1      -8.633  13.916  65.940  1.00  0.00     0.000 HD 
BRANCH  26  28
HETATM   28  O   UNL     1      -7.525  12.782  67.281  1.00  0.00    -0.149 OA 
HETATM   29  C   UNL     1      -7.094  12.967  68.612  1.00  0.00    -0.103 C  
ENDBRANCH  26  28
ENDBRANCH  17  26
ENDBRANCH  14  17
ENDBRANCH  11  13
TORSDOF 5
ENDMDL
MODEL      182
REMARK 921   NORMALIZED FREE ENERGY PREDICTED BY IDOCK:   -4.58 KCAL/MOL
REMARK 922        TOTAL FREE ENERGY PREDICTED BY IDOCK:   -6.68 KCAL/MOL
REMARK 923 INTER-LIGAND FREE ENERGY PREDICTED BY IDOCK:   -5.85 KCAL/MOL
REMARK 924 INTRA-LIGAND FREE ENERGY PREDICTED BY IDOCK:   -0.83 KCAL/MOL
REMARK 927      BINDING AFFINITY PREDICTED BY RF-SCORE:    0.00 PKD
ROOT
HETATM    1  CE  UNL     1      -7.051  13.009  67.625  1.00  0.00    -0.156 C  
HETATM    2  SD  UNL     1      -6.566  14.574  68.266  1.00  0.00    -0.134 SA 
HETATM    3  CG  UNL     1      -5.962  14.172  69.935  1.00  0.00    -0.133 C  
HETATM    4  CB  UNL     1      -5.968  12.739  70.336  1.00  0.00    -0.104 C  
HETATM    5  CA  UNL     1      -6.522  11.698  69.692  1.00  0.00    -0.124 C  
HETATM    6  N   UNL     1      -7.179  11.903  68.513  1.00  0.00    -0.094 N  
HETATM    7  C   UNL     1      -6.482  10.379  70.401  1.00  0.00    -0.125 C  
HETATM    8  C   UNL     1      -8.100  11.222  67.774  1.00  0.00    -0.119 C  
HETATM    9  O   UNL     1      -7.067   9.337  69.834  1.00  0.00    -0.053 OA 
HETATM   10  OXT UNL     1      -5.908  10.238  71.484  1.00  0.00    -0.291 OA 
HETATM   11  CA  UNL     1      -8.463  12.551  67.032  1.00  0.00    -0.161 C  
HETATM   12  O   UNL     1      -8.522  10.119  67.885  1.00  0.00    -0.117 OA 
ENDROOT
BRANCH  11  13
HETATM   13  N   UNL     1      -9.888  12.955  67.337  1.00  0.00    -0.204 N  
HETATM   14  C   UNL     1     -10.747  13.990  66.937  1.00  0.00    -0.285 C  
HETATM   15  H   UNL     1     -10.335  12.318  67.997  1.00  0.00     0.000 HD 
HETATM   16  O   UNL     1     -11.849  14.051  67.480  1.00  0.00    -0.365 OA 
BRANCH  14  17
HETATM   17  C   UNL     1     -10.464  14.912  65.761  1.00  0.00    -0.330 C  
BRANCH  17  18
HETATM   18  C   UNL     1     -10.049  16.309  65.965  1.00  0.00    -0.356 A  
HETATM   19  N   UNL     1      -9.243  16.656  67.043  1.00  0.00    -0.214 NA 
HETATM   20  C   UNL     1     -10.634  17.405  65.338  1.00  0.00    -0.034 A  
HETATM   21  N   UNL     1      -8.947  18.444  68.493  1.00  0.00    -0.317 NA 
HETATM   22  H2  UNL     1      -9.133  19.426  68.693  1.00  0.00     0.000 HD 
HETATM   23  S   UNL     1     -10.296  18.840  66.216  1.00  0.00    -0.443 SA 
HETATM   24  H1  UNL     1      -8.417  17.894  69.168  1.00  0.00     0.000 HD 
HETATM   25  C   UNL     1      -9.405  17.915  67.352  1.00  0.00    -0.257 A  
ENDBRANCH  17  18
BRANCH  17  26
HETATM   26  N   UNL     1     -10.778  14.706  64.511  1.00  0.00    -0.610 NA 
HETATM   27  H   UNL     1     -10.456  15.390  63.827  1.00  0.00     0.000 HD 
BRANCH  26  28
HETATM   28  O   UNL     1     -11.523  13.620  64.035  1.00  0.00    -0.360 OA 
HETATM   29  C   UNL     1     -10.865  12.451  63.599  1.00  0.00    -0.462 C  
ENDBRANCH  26  28
ENDBRANCH  17  26
ENDBRANCH  14  17
ENDBRANCH  11  13
TORSDOF 5
ENDMDL
MODEL      183
REMARK 921   NORMALIZED FREE ENERGY PREDICTED BY IDOCK:   -4.56 KCAL/MOL
REMARK 922        TOTAL FREE ENERGY PREDICTED BY IDOCK:   -6.66 KCAL/MOL
REMARK 923 INTER-LIGAND FREE ENERGY PREDICTED BY IDOCK:   -5.66 KCAL/MOL
REMARK 924 INTRA-LIGAND FREE ENERGY PREDICTED BY IDOCK:   -1.00 KCAL/MOL
REMARK 927      BINDING AFFINITY PREDICTED BY RF-SCORE:    0.00 PKD
ROOT
HETATM    1  CE  UNL     1      -8.991  13.845  67.603  1.00  0.00    -0.192 C  
HETATM    2  SD  UNL     1      -9.074  15.373  66.734  1.00  0.00    -0.281 SA 
HETATM    3  CG  UNL     1     -10.553  16.170  67.435  1.00  0.00    -0.311 C  
HETATM    4  CB  UNL     1     -11.271  15.446  68.517  1.00  0.00    -0.321 C  
HETATM    5  CA  UNL     1     -11.078  14.187  68.944  1.00  0.00    -0.263 C  
HETATM    6  N   UNL     1     -10.117  13.413  68.359  1.00  0.00    -0.245 N  
HETATM    7  C   UNL     1     -12.042  13.676  69.971  1.00  0.00    -0.348 C  
HETATM    8  C   UNL     1      -9.853  12.078  68.274  1.00  0.00    -0.204 C  
HETATM    9  O   UNL     1     -11.930  12.423  70.379  1.00  0.00    -0.344 OA 
HETATM   10  OXT UNL     1     -12.922  14.395  70.454  1.00  0.00    -0.320 OA 
HETATM   11  CA  UNL     1      -8.946  12.354  67.028  1.00  0.00    -0.209 C  
HETATM   12  O   UNL     1     -10.339  11.153  68.835  1.00  0.00    -0.195 OA 
ENDROOT
BRANCH  11  13
HETATM   13  N   UNL     1      -9.532  11.708  65.793  1.00  0.00    -0.231 N  
HETATM   14  C   UNL     1      -9.463  10.443  65.191  1.00  0.00    -0.249 C  
HETATM   15  H   UNL     1     -10.125  12.352  65.268  1.00  0.00     0.000 HD 
HETATM   16  O   UNL     1     -10.022  10.303  64.104  1.00  0.00    -0.315 OA 
BRANCH  14  17
HETATM   17  C   UNL     1      -8.899   9.211  65.882  1.00  0.00    -0.175 C  
BRANCH  17  18
HETATM   18  C   UNL     1      -9.777   8.137  66.373  1.00  0.00    -0.205 A  
HETATM   19  N   UNL     1     -10.603   8.347  67.472  1.00  0.00    -0.246 NA 
HETATM   20  C   UNL     1      -9.653   6.796  66.024  1.00  0.00     0.145 A  
HETATM   21  N   UNL     1     -11.451   7.146  69.267  1.00  0.00    -0.490 NA 
HETATM   22  H2  UNL     1     -11.620   6.231  69.684  1.00  0.00     0.000 HD 
HETATM   23  S   UNL     1     -10.441   5.806  67.183  1.00  0.00    -0.295 SA 
HETATM   24  H1  UNL     1     -11.717   7.983  69.786  1.00  0.00     0.000 HD 
HETATM   25  C   UNL     1     -10.888   7.213  68.055  1.00  0.00    -0.128 A  
ENDBRANCH  17  18
BRANCH  17  26
HETATM   26  N   UNL     1      -7.688   9.060  66.345  1.00  0.00    -0.098 NA 
HETATM   27  H   UNL     1      -6.957   8.813  65.676  1.00  0.00     0.000 HD 
BRANCH  26  28
HETATM   28  O   UNL     1      -7.312   9.208  67.685  1.00  0.00    -0.086 OA 
HETATM   29  C   UNL     1      -6.236  10.055  68.026  1.00  0.00    -0.053 C  
ENDBRANCH  26  28
ENDBRANCH  17  26
ENDBRANCH  14  17
ENDBRANCH  11  13
TORSDOF 5
ENDMDL
MODEL      184
REMARK 921   NORMALIZED FREE ENERGY PREDICTED BY IDOCK:   -4.55 KCAL/MOL
REMARK 922        TOTAL FREE ENERGY PREDICTED BY IDOCK:   -6.64 KCAL/MOL
REMARK 923 INTER-LIGAND FREE ENERGY PREDICTED BY IDOCK:   -5.26 KCAL/MOL
REMARK 924 INTRA-LIGAND FREE ENERGY PREDICTED BY IDOCK:   -1.38 KCAL/MOL
REMARK 927      BINDING AFFINITY PREDICTED BY RF-SCORE:    0.00 PKD
ROOT
HETATM    1  CE  UNL     1      -8.097   6.278  70.477  1.00  0.00    -0.113 C  
HETATM    2  SD  UNL     1      -6.798   6.767  71.558  1.00  0.00    -0.067 SA 
HETATM    3  CG  UNL     1      -7.670   7.670  72.876  1.00  0.00    -0.099 C  
HETATM    4  CB  UNL     1      -9.153   7.749  72.783  1.00  0.00    -0.242 C  
HETATM    5  CA  UNL     1      -9.942   7.387  71.758  1.00  0.00    -0.171 C  
HETATM    6  N   UNL     1      -9.384   6.870  70.624  1.00  0.00    -0.162 N  
HETATM    7  C   UNL     1     -11.400   7.703  71.896  1.00  0.00    -0.266 C  
HETATM    8  C   UNL     1      -9.773   6.708  69.328  1.00  0.00    -0.146 C  
HETATM    9  O   UNL     1     -12.208   7.419  70.888  1.00  0.00    -0.298 OA 
HETATM   10  OXT UNL     1     -11.865   8.202  72.924  1.00  0.00    -0.352 OA 
HETATM   11  CA  UNL     1      -8.272   6.556  68.912  1.00  0.00    -0.119 C  
HETATM   12  O   UNL     1     -10.831   6.856  68.810  1.00  0.00    -0.221 OA 
ENDROOT
BRANCH  11  13
HETATM   13  N   UNL     1      -7.853   7.700  68.017  1.00  0.00    -0.119 N  
HETATM   14  C   UNL     1      -7.984   9.097  68.043  1.00  0.00    -0.101 C  
HETATM   15  H   UNL     1      -7.350   7.377  67.190  1.00  0.00     0.000 HD 
HETATM   16  O   UNL     1      -7.580   9.721  67.062  1.00  0.00    -0.091 OA 
BRANCH  14  17
HETATM   17  C   UNL     1      -8.426   9.879  69.270  1.00  0.00    -0.158 C  
BRANCH  17  18
HETATM   18  C   UNL     1      -9.642  10.707  69.255  1.00  0.00    -0.144 A  
HETATM   19  N   UNL     1     -10.765  10.326  69.981  1.00  0.00    -0.289 NA 
HETATM   20  C   UNL     1      -9.898  11.715  68.331  1.00  0.00    -0.202 A  
HETATM   21  N   UNL     1     -13.076  10.450  69.808  1.00  0.00    -0.461 NA 
HETATM   22  H2  UNL     1     -13.880  10.874  69.345  1.00  0.00     0.000 HD 
HETATM   23  S   UNL     1     -11.580  12.051  68.270  1.00  0.00    -0.342 SA 
HETATM   24  H1  UNL     1     -13.233   9.735  70.518  1.00  0.00     0.000 HD 
HETATM   25  C   UNL     1     -11.845  10.849  69.464  1.00  0.00    -0.332 A  
ENDBRANCH  17  18
BRANCH  17  26
HETATM   26  N   UNL     1      -7.716  10.128  70.337  1.00  0.00    -0.433 NA 
HETATM   27  H   UNL     1      -7.941   9.603  71.183  1.00  0.00     0.000 HD 
BRANCH  26  28
HETATM   28  O   UNL     1      -6.671  11.055  70.412  1.00  0.00    -0.263 OA 
HETATM   29  C   UNL     1      -5.332  10.612  70.392  1.00  0.00    -0.070 C  
ENDBRANCH  26  28
ENDBRANCH  17  26
ENDBRANCH  14  17
ENDBRANCH  11  13
TORSDOF 5
ENDMDL
MODEL      185
REMARK 921   NORMALIZED FREE ENERGY PREDICTED BY IDOCK:   -4.55 KCAL/MOL
REMARK 922        TOTAL FREE ENERGY PREDICTED BY IDOCK:   -6.64 KCAL/MOL
REMARK 923 INTER-LIGAND FREE ENERGY PREDICTED BY IDOCK:   -5.62 KCAL/MOL
REMARK 924 INTRA-LIGAND FREE ENERGY PREDICTED BY IDOCK:   -1.01 KCAL/MOL
REMARK 927      BINDING AFFINITY PREDICTED BY RF-SCORE:    0.00 PKD
ROOT
HETATM    1  CE  UNL     1     -10.305   5.267  66.499  1.00  0.00    -0.285 C  
HETATM    2  SD  UNL     1      -9.329   4.559  65.218  1.00  0.00    -0.162 SA 
HETATM    3  CG  UNL     1      -8.362   3.285  66.088  1.00  0.00    -0.100 C  
HETATM    4  CB  UNL     1      -8.617   3.109  67.543  1.00  0.00    -0.121 C  
HETATM    5  CA  UNL     1      -9.353   3.883  68.357  1.00  0.00    -0.163 C  
HETATM    6  N   UNL     1      -9.978   4.990  67.857  1.00  0.00    -0.153 N  
HETATM    7  C   UNL     1      -9.327   3.532  69.813  1.00  0.00    -0.174 C  
HETATM    8  C   UNL     1     -10.499   6.138  68.376  1.00  0.00    -0.231 C  
HETATM    9  O   UNL     1      -9.988   4.300  70.663  1.00  0.00    -0.201 OA 
HETATM   10  OXT UNL     1      -8.723   2.542  70.234  1.00  0.00    -0.060 OA 
HETATM   11  CA  UNL     1     -10.420   6.795  66.958  1.00  0.00    -0.299 C  
HETATM   12  O   UNL     1     -10.693   6.464  69.500  1.00  0.00    -0.230 OA 
ENDROOT
BRANCH  11  13
HETATM   13  N   UNL     1      -9.439   7.946  66.961  1.00  0.00    -0.163 N  
HETATM   14  C   UNL     1      -9.460   9.283  67.386  1.00  0.00    -0.132 C  
HETATM   15  H   UNL     1      -8.540   7.685  66.555  1.00  0.00     0.000 HD 
HETATM   16  O   UNL     1      -8.469   9.969  67.138  1.00  0.00    -0.124 OA 
BRANCH  14  17
HETATM   17  C   UNL     1     -10.546   9.867  68.276  1.00  0.00    -0.229 C  
BRANCH  17  18
HETATM   18  C   UNL     1     -10.484   9.746  69.741  1.00  0.00    -0.250 A  
HETATM   19  N   UNL     1      -9.301   9.375  70.369  1.00  0.00    -0.252 NA 
HETATM   20  C   UNL     1     -11.596   9.679  70.574  1.00  0.00    -0.272 A  
HETATM   21  N   UNL     1      -8.622   8.167  72.231  1.00  0.00    -0.157 NA 
HETATM   22  H2  UNL     1      -8.884   7.739  73.119  1.00  0.00     0.000 HD 
HETATM   23  S   UNL     1     -11.164   8.990  72.086  1.00  0.00    -0.073 SA 
HETATM   24  H1  UNL     1      -7.661   8.074  71.903  1.00  0.00     0.000 HD 
HETATM   25  C   UNL     1      -9.549   8.834  71.533  1.00  0.00    -0.284 A  
ENDBRANCH  17  18
BRANCH  17  26
HETATM   26  N   UNL     1     -11.723  10.286  67.900  1.00  0.00    -0.621 NA 
HETATM   27  H   UNL     1     -12.440   9.581  67.728  1.00  0.00     0.000 HD 
BRANCH  26  28
HETATM   28  O   UNL     1     -12.081  11.627  67.716  1.00  0.00    -0.613 OA 
HETATM   29  C   UNL     1     -11.135  12.547  67.218  1.00  0.00    -0.274 C  
ENDBRANCH  26  28
ENDBRANCH  17  26
ENDBRANCH  14  17
ENDBRANCH  11  13
TORSDOF 5
ENDMDL
MODEL      186
REMARK 921   NORMALIZED FREE ENERGY PREDICTED BY IDOCK:   -4.54 KCAL/MOL
REMARK 922        TOTAL FREE ENERGY PREDICTED BY IDOCK:   -6.63 KCAL/MOL
REMARK 923 INTER-LIGAND FREE ENERGY PREDICTED BY IDOCK:   -6.59 KCAL/MOL
REMARK 924 INTRA-LIGAND FREE ENERGY PREDICTED BY IDOCK:   -0.04 KCAL/MOL
REMARK 927      BINDING AFFINITY PREDICTED BY RF-SCORE:    0.00 PKD
ROOT
HETATM    1  CE  UNL     1     -11.368  13.102  65.951  1.00  0.00    -0.311 C  
HETATM    2  SD  UNL     1     -12.601  13.456  64.747  1.00  0.00    -0.266 SA 
HETATM    3  CG  UNL     1     -12.245  12.260  63.422  1.00  0.00    -0.527 C  
HETATM    4  CB  UNL     1     -11.126  11.305  63.646  1.00  0.00    -0.300 C  
HETATM    5  CA  UNL     1     -10.216  11.310  64.634  1.00  0.00    -0.301 C  
HETATM    6  N   UNL     1     -10.260  12.282  65.592  1.00  0.00    -0.256 N  
HETATM    7  C   UNL     1      -9.120  10.293  64.534  1.00  0.00    -0.234 C  
HETATM    8  C   UNL     1      -9.387  12.802  66.500  1.00  0.00    -0.221 C  
HETATM    9  O   UNL     1      -8.166  10.297  65.451  1.00  0.00    -0.146 OA 
HETATM   10  OXT UNL     1      -9.093   9.450  63.634  1.00  0.00    -0.193 OA 
HETATM   11  CA  UNL     1     -10.287  14.077  66.612  1.00  0.00    -0.278 C  
HETATM   12  O   UNL     1      -8.307  12.440  66.833  1.00  0.00    -0.177 OA 
ENDROOT
BRANCH  11  13
HETATM   13  N   UNL     1      -9.548  15.293  66.099  1.00  0.00    -0.298 N  
HETATM   14  C   UNL     1      -9.037  16.471  66.665  1.00  0.00    -0.255 C  
HETATM   15  H   UNL     1      -9.378  15.244  65.095  1.00  0.00     0.000 HD 
HETATM   16  O   UNL     1      -8.556  17.304  65.897  1.00  0.00    -0.528 OA 
BRANCH  14  17
HETATM   17  C   UNL     1      -8.885  16.689  68.162  1.00  0.00    -0.206 C  
BRANCH  17  18
HETATM   18  C   UNL     1      -9.828  16.095  69.123  1.00  0.00    -0.250 A  
HETATM   19  N   UNL     1      -9.831  14.723  69.354  1.00  0.00    -0.122 NA 
HETATM   20  C   UNL     1     -10.951  16.742  69.629  1.00  0.00    -0.119 A  
HETATM   21  N   UNL     1     -11.353  13.045  69.857  1.00  0.00    -0.501 NA 
HETATM   22  H2  UNL     1     -12.290  12.805  70.180  1.00  0.00     0.000 HD 
HETATM   23  S   UNL     1     -12.073  15.594  70.238  1.00  0.00    -0.367 SA 
HETATM   24  H1  UNL     1     -10.714  12.296  69.593  1.00  0.00     0.000 HD 
HETATM   25  C   UNL     1     -10.999  14.334  69.794  1.00  0.00    -0.069 A  
ENDBRANCH  17  18
BRANCH  17  26
HETATM   26  N   UNL     1      -8.129  17.574  68.752  1.00  0.00    -0.263 NA 
HETATM   27  H   UNL     1      -8.573  18.440  69.060  1.00  0.00     0.000 HD 
BRANCH  26  28
HETATM   28  O   UNL     1      -6.758  17.431  68.994  1.00  0.00    -0.222 OA 
HETATM   29  C   UNL     1      -6.290  16.365  69.791  1.00  0.00    -0.186 C  
ENDBRANCH  26  28
ENDBRANCH  17  26
ENDBRANCH  14  17
ENDBRANCH  11  13
TORSDOF 5
ENDMDL
MODEL      187
REMARK 921   NORMALIZED FREE ENERGY PREDICTED BY IDOCK:   -4.54 KCAL/MOL
REMARK 922        TOTAL FREE ENERGY PREDICTED BY IDOCK:   -6.63 KCAL/MOL
REMARK 923 INTER-LIGAND FREE ENERGY PREDICTED BY IDOCK:   -5.78 KCAL/MOL
REMARK 924 INTRA-LIGAND FREE ENERGY PREDICTED BY IDOCK:   -0.85 KCAL/MOL
REMARK 927      BINDING AFFINITY PREDICTED BY RF-SCORE:    0.00 PKD
ROOT
HETATM    1  CE  UNL     1      -8.421   9.806  68.169  1.00  0.00    -0.114 C  
HETATM    2  SD  UNL     1      -7.712  11.288  68.798  1.00  0.00    -0.126 SA 
HETATM    3  CG  UNL     1      -6.546  10.688  70.060  1.00  0.00    -0.149 C  
HETATM    4  CB  UNL     1      -6.426   9.215  70.235  1.00  0.00    -0.050 C  
HETATM    5  CA  UNL     1      -7.192   8.251  69.700  1.00  0.00    -0.061 C  
HETATM    6  N   UNL     1      -8.232   8.587  68.881  1.00  0.00    -0.116 N  
HETATM    7  C   UNL     1      -6.916   6.851  70.156  1.00  0.00    -0.066 C  
HETATM    8  C   UNL     1      -9.370   7.978  68.442  1.00  0.00    -0.138 C  
HETATM    9  O   UNL     1      -7.683   5.873  69.703  1.00  0.00    -0.092 OA 
HETATM   10  OXT UNL     1      -5.988   6.587  70.925  1.00  0.00    -0.026 OA 
HETATM   11  CA  UNL     1      -9.960   9.379  68.074  1.00  0.00    -0.176 C  
HETATM   12  O   UNL     1      -9.738   6.854  68.546  1.00  0.00    -0.138 OA 
ENDROOT
BRANCH  11  13
HETATM   13  N   UNL     1     -11.168   9.686  68.930  1.00  0.00    -0.459 N  
HETATM   14  C   UNL     1     -11.865  10.844  69.305  1.00  0.00    -0.324 C  
HETATM   15  H   UNL     1     -11.577   8.843  69.334  1.00  0.00     0.000 HD 
HETATM   16  O   UNL     1     -12.783  10.713  70.115  1.00  0.00    -0.308 OA 
BRANCH  14  17
HETATM   17  C   UNL     1     -11.670  12.198  68.641  1.00  0.00    -0.330 C  
BRANCH  17  18
HETATM   18  C   UNL     1     -11.371  13.403  69.430  1.00  0.00    -0.226 A  
HETATM   19  N   UNL     1     -12.110  13.704  70.569  1.00  0.00    -0.349 NA 
HETATM   20  C   UNL     1     -10.591  14.466  68.983  1.00  0.00    -0.237 A  
HETATM   21  N   UNL     1     -12.888  15.576  71.698  1.00  0.00    -0.415 NA 
HETATM   22  H2  UNL     1     -12.831  16.586  71.826  1.00  0.00     0.000 HD 
HETATM   23  S   UNL     1     -10.928  15.876  69.901  1.00  0.00    -0.371 SA 
HETATM   24  H1  UNL     1     -13.567  15.046  72.243  1.00  0.00     0.000 HD 
HETATM   25  C   UNL     1     -12.070  14.986  70.818  1.00  0.00    -0.322 A  
ENDBRANCH  17  18
BRANCH  17  26
HETATM   26  N   UNL     1     -11.976  12.519  67.414  1.00  0.00    -0.488 NA 
HETATM   27  H   UNL     1     -12.565  13.342  67.276  1.00  0.00     0.000 HD 
BRANCH  26  28
HETATM   28  O   UNL     1     -11.562  11.826  66.271  1.00  0.00    -0.441 OA 
HETATM   29  C   UNL     1     -10.300  12.097  65.700  1.00  0.00    -0.257 C  
ENDBRANCH  26  28
ENDBRANCH  17  26
ENDBRANCH  14  17
ENDBRANCH  11  13
TORSDOF 5
ENDMDL
MODEL      188
REMARK 921   NORMALIZED FREE ENERGY PREDICTED BY IDOCK:   -4.54 KCAL/MOL
REMARK 922        TOTAL FREE ENERGY PREDICTED BY IDOCK:   -6.62 KCAL/MOL
REMARK 923 INTER-LIGAND FREE ENERGY PREDICTED BY IDOCK:   -5.99 KCAL/MOL
REMARK 924 INTRA-LIGAND FREE ENERGY PREDICTED BY IDOCK:   -0.63 KCAL/MOL
REMARK 927      BINDING AFFINITY PREDICTED BY RF-SCORE:    0.00 PKD
ROOT
HETATM    1  CE  UNL     1     -11.460  11.766  67.490  1.00  0.00    -0.303 C  
HETATM    2  SD  UNL     1     -11.533  12.919  68.817  1.00  0.00    -0.324 SA 
HETATM    3  CG  UNL     1     -11.954  14.483  67.987  1.00  0.00    -0.270 C  
HETATM    4  CB  UNL     1     -12.168  14.439  66.516  1.00  0.00    -0.358 C  
HETATM    5  CA  UNL     1     -11.927  13.423  65.671  1.00  0.00    -0.401 C  
HETATM    6  N   UNL     1     -11.422  12.248  66.151  1.00  0.00    -0.357 N  
HETATM    7  C   UNL     1     -12.119  13.709  64.213  1.00  0.00    -0.434 C  
HETATM    8  C   UNL     1     -10.768  11.176  65.622  1.00  0.00    -0.185 C  
HETATM    9  O   UNL     1     -11.837  12.758  63.338  1.00  0.00    -0.513 OA 
HETATM   10  OXT UNL     1     -12.545  14.795  63.812  1.00  0.00    -0.806 OA 
HETATM   11  CA  UNL     1     -10.265  10.796  67.055  1.00  0.00    -0.217 C  
HETATM   12  O   UNL     1     -10.557  10.873  64.494  1.00  0.00    -0.343 OA 
ENDROOT
BRANCH  11  13
HETATM   13  N   UNL     1      -8.760  10.917  67.136  1.00  0.00    -0.132 N  
HETATM   14  C   UNL     1      -7.706  10.083  67.540  1.00  0.00    -0.091 C  
HETATM   15  H   UNL     1      -8.430  11.829  66.820  1.00  0.00     0.000 HD 
HETATM   16  O   UNL     1      -6.575  10.569  67.551  1.00  0.00    -0.064 OA 
BRANCH  14  17
HETATM   17  C   UNL     1      -7.858   8.590  67.784  1.00  0.00    -0.103 C  
BRANCH  17  18
HETATM   18  C   UNL     1      -8.430   8.073  69.038  1.00  0.00    -0.130 A  
HETATM   19  N   UNL     1      -8.320   6.725  69.361  1.00  0.00    -0.130 NA 
HETATM   20  C   UNL     1      -9.354   8.755  69.824  1.00  0.00    -0.163 A  
HETATM   21  N   UNL     1      -9.552   5.088  70.450  1.00  0.00    -0.178 NA 
HETATM   22  H2  UNL     1     -10.332   4.872  71.070  1.00  0.00     0.000 HD 
HETATM   23  S   UNL     1     -10.191   7.657  70.843  1.00  0.00    -0.199 SA 
HETATM   24  H1  UNL     1      -9.008   4.322  70.054  1.00  0.00     0.000 HD 
HETATM   25  C   UNL     1      -9.275   6.369  70.178  1.00  0.00    -0.158 A  
ENDBRANCH  17  18
BRANCH  17  26
HETATM   26  N   UNL     1      -7.308   7.625  67.100  1.00  0.00    -0.089 NA 
HETATM   27  H   UNL     1      -7.931   6.999  66.587  1.00  0.00     0.000 HD 
BRANCH  26  28
HETATM   28  O   UNL     1      -5.933   7.379  67.014  1.00  0.00    -0.038 OA 
HETATM   29  C   UNL     1      -5.463   6.062  66.830  1.00  0.00    -0.009 C  
ENDBRANCH  26  28
ENDBRANCH  17  26
ENDBRANCH  14  17
ENDBRANCH  11  13
TORSDOF 5
ENDMDL
MODEL      189
REMARK 921   NORMALIZED FREE ENERGY PREDICTED BY IDOCK:   -4.51 KCAL/MOL
REMARK 922        TOTAL FREE ENERGY PREDICTED BY IDOCK:   -6.59 KCAL/MOL
REMARK 923 INTER-LIGAND FREE ENERGY PREDICTED BY IDOCK:   -5.74 KCAL/MOL
REMARK 924 INTRA-LIGAND FREE ENERGY PREDICTED BY IDOCK:   -0.85 KCAL/MOL
REMARK 927      BINDING AFFINITY PREDICTED BY RF-SCORE:    0.00 PKD
ROOT
HETATM    1  CE  UNL     1     -11.469  11.773  67.502  1.00  0.00    -0.303 C  
HETATM    2  SD  UNL     1     -11.578  12.903  68.846  1.00  0.00    -0.333 SA 
HETATM    3  CG  UNL     1     -12.087  14.456  68.044  1.00  0.00    -0.231 C  
HETATM    4  CB  UNL     1     -12.322  14.422  66.575  1.00  0.00    -0.272 C  
HETATM    5  CA  UNL     1     -12.044  13.430  65.713  1.00  0.00    -0.436 C  
HETATM    6  N   UNL     1     -11.475  12.275  66.169  1.00  0.00    -0.357 N  
HETATM    7  C   UNL     1     -12.271  13.726  64.262  1.00  0.00    -0.400 C  
HETATM    8  C   UNL     1     -10.778  11.242  65.616  1.00  0.00    -0.217 C  
HETATM    9  O   UNL     1     -11.957  12.801  63.370  1.00  0.00    -0.517 OA 
HETATM   10  OXT UNL     1     -12.756  14.795  63.883  1.00  0.00    -0.794 OA 
HETATM   11  CA  UNL     1     -10.236  10.869  67.036  1.00  0.00    -0.214 C  
HETATM   12  O   UNL     1     -10.570  10.966  64.481  1.00  0.00    -0.343 OA 
ENDROOT
BRANCH  11  13
HETATM   13  N   UNL     1      -8.737  11.061  67.097  1.00  0.00    -0.133 N  
HETATM   14  C   UNL     1      -7.611  10.284  66.789  1.00  0.00    -0.107 C  
HETATM   15  H   UNL     1      -8.482  11.984  67.449  1.00  0.00     0.000 HD 
HETATM   16  O   UNL     1      -6.507  10.756  67.061  1.00  0.00    -0.072 OA 
BRANCH  14  17
HETATM   17  C   UNL     1      -7.672   8.993  65.988  1.00  0.00    -0.095 C  
BRANCH  17  18
HETATM   18  C   UNL     1      -7.645   7.678  66.649  1.00  0.00    -0.097 A  
HETATM   19  N   UNL     1      -7.423   6.521  65.911  1.00  0.00    -0.079 NA 
HETATM   20  C   UNL     1      -8.123   7.431  67.933  1.00  0.00    -0.119 A  
HETATM   21  N   UNL     1      -8.078   4.295  65.922  1.00  0.00    -0.098 NA 
HETATM   22  H2  UNL     1      -8.510   3.530  66.440  1.00  0.00     0.000 HD 
HETATM   23  S   UNL     1      -8.444   5.757  68.133  1.00  0.00    -0.109 SA 
HETATM   24  H1  UNL     1      -7.771   4.131  64.963  1.00  0.00     0.000 HD 
HETATM   25  C   UNL     1      -7.930   5.482  66.521  1.00  0.00    -0.101 A  
ENDBRANCH  17  18
BRANCH  17  26
HETATM   26  N   UNL     1      -7.500   8.861  64.701  1.00  0.00    -0.101 NA 
HETATM   27  H   UNL     1      -8.298   8.542  64.151  1.00  0.00     0.000 HD 
BRANCH  26  28
HETATM   28  O   UNL     1      -6.308   9.122  64.016  1.00  0.00    -0.085 OA 
HETATM   29  C   UNL     1      -6.023  10.430  63.570  1.00  0.00    -0.122 C  
ENDBRANCH  26  28
ENDBRANCH  17  26
ENDBRANCH  14  17
ENDBRANCH  11  13
TORSDOF 5
ENDMDL
MODEL      190
REMARK 921   NORMALIZED FREE ENERGY PREDICTED BY IDOCK:   -4.50 KCAL/MOL
REMARK 922        TOTAL FREE ENERGY PREDICTED BY IDOCK:   -6.58 KCAL/MOL
REMARK 923 INTER-LIGAND FREE ENERGY PREDICTED BY IDOCK:   -5.61 KCAL/MOL
REMARK 924 INTRA-LIGAND FREE ENERGY PREDICTED BY IDOCK:   -0.97 KCAL/MOL
REMARK 927      BINDING AFFINITY PREDICTED BY RF-SCORE:    0.00 PKD
ROOT
HETATM    1  CE  UNL     1      -9.172  10.263  68.060  1.00  0.00    -0.135 C  
HETATM    2  SD  UNL     1      -7.897   9.325  67.293  1.00  0.00    -0.099 SA 
HETATM    3  CG  UNL     1      -8.182   9.609  65.518  1.00  0.00    -0.126 C  
HETATM    4  CB  UNL     1      -9.296  10.520  65.141  1.00  0.00    -0.262 C  
HETATM    5  CA  UNL     1     -10.246  11.042  65.935  1.00  0.00    -0.254 C  
HETATM    6  N   UNL     1     -10.253  10.746  67.268  1.00  0.00    -0.196 N  
HETATM    7  C   UNL     1     -11.323  11.830  65.255  1.00  0.00    -0.222 C  
HETATM    8  C   UNL     1     -11.170  10.792  68.276  1.00  0.00    -0.297 C  
HETATM    9  O   UNL     1     -12.313  12.314  65.987  1.00  0.00    -0.609 OA 
HETATM   10  OXT UNL     1     -11.302  12.051  64.041  1.00  0.00    -0.347 OA 
HETATM   11  CA  UNL     1     -10.292   9.791  69.099  1.00  0.00    -0.211 C  
HETATM   12  O   UNL     1     -12.258  11.265  68.315  1.00  0.00    -0.611 OA 
ENDROOT
BRANCH  11  13
HETATM   13  N   UNL     1     -11.027   8.484  69.297  1.00  0.00    -0.425 N  
HETATM   14  C   UNL     1     -10.665   7.131  69.387  1.00  0.00    -0.231 C  
HETATM   15  H   UNL     1     -12.034   8.619  69.388  1.00  0.00     0.000 HD 
HETATM   16  O   UNL     1     -11.575   6.307  69.465  1.00  0.00    -0.423 OA 
BRANCH  14  17
HETATM   17  C   UNL     1      -9.233   6.653  69.573  1.00  0.00    -0.143 C  
BRANCH  17  18
HETATM   18  C   UNL     1      -8.449   7.023  70.762  1.00  0.00    -0.135 A  
HETATM   19  N   UNL     1      -9.083   7.294  71.970  1.00  0.00    -0.129 NA 
HETATM   20  C   UNL     1      -7.118   7.427  70.735  1.00  0.00    -0.063 A  
HETATM   21  N   UNL     1      -8.808   8.683  73.808  1.00  0.00    -0.183 NA 
HETATM   22  H2  UNL     1      -8.188   9.302  74.331  1.00  0.00     0.000 HD 
HETATM   23  S   UNL     1      -6.731   8.293  72.166  1.00  0.00    -0.085 SA 
HETATM   24  H1  UNL     1      -9.764   8.550  74.135  1.00  0.00     0.000 HD 
HETATM   25  C   UNL     1      -8.340   8.070  72.715  1.00  0.00    -0.167 A  
ENDBRANCH  17  18
BRANCH  17  26
HETATM   26  N   UNL     1      -8.463   6.119  68.665  1.00  0.00    -0.114 NA 
HETATM   27  H   UNL     1      -7.838   6.743  68.153  1.00  0.00     0.000 HD 
BRANCH  26  28
HETATM   28  O   UNL     1      -8.424   4.759  68.339  1.00  0.00    -0.094 OA 
HETATM   29  C   UNL     1      -8.226   3.796  69.350  1.00  0.00    -0.053 C  
ENDBRANCH  26  28
ENDBRANCH  17  26
ENDBRANCH  14  17
ENDBRANCH  11  13
TORSDOF 5
ENDMDL
MODEL      191
REMARK 921   NORMALIZED FREE ENERGY PREDICTED BY IDOCK:   -4.49 KCAL/MOL
REMARK 922        TOTAL FREE ENERGY PREDICTED BY IDOCK:   -6.57 KCAL/MOL
REMARK 923 INTER-LIGAND FREE ENERGY PREDICTED BY IDOCK:   -5.69 KCAL/MOL
REMARK 924 INTRA-LIGAND FREE ENERGY PREDICTED BY IDOCK:   -0.88 KCAL/MOL
REMARK 927      BINDING AFFINITY PREDICTED BY RF-SCORE:    0.00 PKD
ROOT
HETATM    1  CE  UNL     1      -7.678   9.965  69.315  1.00  0.00    -0.109 C  
HETATM    2  SD  UNL     1      -7.462   8.707  70.527  1.00  0.00    -0.081 SA 
HETATM    3  CG  UNL     1      -7.014   7.248  69.536  1.00  0.00    -0.057 C  
HETATM    4  CB  UNL     1      -6.894   7.431  68.064  1.00  0.00    -0.070 C  
HETATM    5  CA  UNL     1      -7.240   8.501  67.330  1.00  0.00    -0.084 C  
HETATM    6  N   UNL     1      -7.775   9.599  67.943  1.00  0.00    -0.087 N  
HETATM    7  C   UNL     1      -7.126   8.355  65.844  1.00  0.00    -0.072 C  
HETATM    8  C   UNL     1      -8.515  10.675  67.551  1.00  0.00    -0.121 C  
HETATM    9  O   UNL     1      -7.511   9.360  65.076  1.00  0.00    -0.101 OA 
HETATM   10  OXT UNL     1      -6.669   7.334  65.323  1.00  0.00    -0.046 OA 
HETATM   11  CA  UNL     1      -8.946  10.899  69.039  1.00  0.00    -0.094 C  
HETATM   12  O   UNL     1      -8.811  11.061  66.469  1.00  0.00    -0.158 OA 
ENDROOT
BRANCH  11  13
HETATM   13  N   UNL     1     -10.435  10.686  69.196  1.00  0.00    -0.210 N  
HETATM   14  C   UNL     1     -11.590  11.443  68.948  1.00  0.00    -0.323 C  
HETATM   15  H   UNL     1     -10.653   9.765  69.577  1.00  0.00     0.000 HD 
HETATM   16  O   UNL     1     -12.667  10.960  69.295  1.00  0.00    -0.282 OA 
BRANCH  14  17
HETATM   17  C   UNL     1     -11.597  12.723  68.127  1.00  0.00    -0.336 C  
BRANCH  17  18
HETATM   18  C   UNL     1     -11.040  13.977  68.657  1.00  0.00    -0.264 A  
HETATM   19  N   UNL     1     -11.369  14.411  69.937  1.00  0.00    -0.247 NA 
HETATM   20  C   UNL     1     -10.428  14.958  67.883  1.00  0.00    -0.250 A  
HETATM   21  N   UNL     1     -11.711  16.410  71.065  1.00  0.00    -0.597 NA 
HETATM   22  H2  UNL     1     -11.598  17.424  71.068  1.00  0.00     0.000 HD 
HETATM   23  S   UNL     1     -10.427  16.458  68.717  1.00  0.00    -0.323 SA 
HETATM   24  H1  UNL     1     -12.188  15.964  71.848  1.00  0.00     0.000 HD 
HETATM   25  C   UNL     1     -11.229  15.707  70.033  1.00  0.00    -0.325 A  
ENDBRANCH  17  18
BRANCH  17  26
HETATM   26  N   UNL     1     -12.279  12.950  67.038  1.00  0.00    -0.391 NA 
HETATM   27  H   UNL     1     -12.865  13.785  67.016  1.00  0.00     0.000 HD 
BRANCH  26  28
HETATM   28  O   UNL     1     -12.270  12.139  65.897  1.00  0.00    -0.604 OA 
HETATM   29  C   UNL     1     -12.355  12.723  64.616  1.00  0.00    -0.459 C  
ENDBRANCH  26  28
ENDBRANCH  17  26
ENDBRANCH  14  17
ENDBRANCH  11  13
TORSDOF 5
ENDMDL
MODEL      192
REMARK 921   NORMALIZED FREE ENERGY PREDICTED BY IDOCK:   -4.48 KCAL/MOL
REMARK 922        TOTAL FREE ENERGY PREDICTED BY IDOCK:   -6.55 KCAL/MOL
REMARK 923 INTER-LIGAND FREE ENERGY PREDICTED BY IDOCK:   -5.58 KCAL/MOL
REMARK 924 INTRA-LIGAND FREE ENERGY PREDICTED BY IDOCK:   -0.96 KCAL/MOL
REMARK 927      BINDING AFFINITY PREDICTED BY RF-SCORE:    0.00 PKD
ROOT
HETATM    1  CE  UNL     1      -6.113  14.352  69.726  1.00  0.00    -0.131 C  
HETATM    2  SD  UNL     1      -5.608  13.963  71.366  1.00  0.00    -0.219 SA 
HETATM    3  CG  UNL     1      -5.326  12.166  71.300  1.00  0.00    -0.047 C  
HETATM    4  CB  UNL     1      -5.522  11.492  69.988  1.00  0.00    -0.094 C  
HETATM    5  CA  UNL     1      -6.049  12.001  68.863  1.00  0.00    -0.067 C  
HETATM    6  N   UNL     1      -6.481  13.297  68.843  1.00  0.00    -0.094 N  
HETATM    7  C   UNL     1      -6.240  11.046  67.725  1.00  0.00    -0.051 C  
HETATM    8  C   UNL     1      -7.322  14.036  68.066  1.00  0.00    -0.141 C  
HETATM    9  O   UNL     1      -6.810  11.487  66.616  1.00  0.00    -0.134 OA 
HETATM   10  OXT UNL     1      -5.868   9.871  67.790  1.00  0.00    -0.040 OA 
HETATM   11  CA  UNL     1      -7.442  15.085  69.222  1.00  0.00    -0.188 C  
HETATM   12  O   UNL     1      -7.850  13.783  67.034  1.00  0.00    -0.071 OA 
ENDROOT
BRANCH  11  13
HETATM   13  N   UNL     1      -8.858  15.129  69.751  1.00  0.00    -0.439 N  
HETATM   14  C   UNL     1     -10.069  15.702  69.336  1.00  0.00    -0.269 C  
HETATM   15  H   UNL     1      -8.956  14.614  70.627  1.00  0.00     0.000 HD 
HETATM   16  O   UNL     1     -11.032  15.599  70.094  1.00  0.00    -0.283 OA 
BRANCH  14  17
HETATM   17  C   UNL     1     -10.295  16.277  67.946  1.00  0.00    -0.285 C  
BRANCH  17  18
HETATM   18  C   UNL     1     -10.354  17.729  67.717  1.00  0.00    -0.380 A  
HETATM   19  N   UNL     1     -10.171  18.250  66.440  1.00  0.00    -0.386 NA 
HETATM   20  C   UNL     1     -10.282  18.690  68.721  1.00  0.00    -0.269 A  
HETATM   21  N   UNL     1      -9.259  20.137  65.444  1.00  0.00    -0.318 NA 
HETATM   22  H2  UNL     1      -8.916  21.090  65.564  1.00  0.00     0.000 HD 
HETATM   23  S   UNL     1      -9.819  20.205  68.060  1.00  0.00    -0.316 SA 
HETATM   24  H1  UNL     1      -9.218  19.710  64.519  1.00  0.00     0.000 HD 
HETATM   25  C   UNL     1      -9.750  19.486  66.505  1.00  0.00    -0.388 A  
ENDBRANCH  17  18
BRANCH  17  26
HETATM   26  N   UNL     1     -10.705  15.630  66.889  1.00  0.00    -0.313 NA 
HETATM   27  H   UNL     1     -10.892  16.176  66.048  1.00  0.00     0.000 HD 
BRANCH  26  28
HETATM   28  O   UNL     1     -10.907  14.247  66.818  1.00  0.00    -0.292 OA 
HETATM   29  C   UNL     1     -12.216  13.722  66.873  1.00  0.00    -0.366 C  
ENDBRANCH  26  28
ENDBRANCH  17  26
ENDBRANCH  14  17
ENDBRANCH  11  13
TORSDOF 5
ENDMDL
MODEL      193
REMARK 921   NORMALIZED FREE ENERGY PREDICTED BY IDOCK:   -4.46 KCAL/MOL
REMARK 922        TOTAL FREE ENERGY PREDICTED BY IDOCK:   -6.52 KCAL/MOL
REMARK 923 INTER-LIGAND FREE ENERGY PREDICTED BY IDOCK:   -5.19 KCAL/MOL
REMARK 924 INTRA-LIGAND FREE ENERGY PREDICTED BY IDOCK:   -1.32 KCAL/MOL
REMARK 927      BINDING AFFINITY PREDICTED BY RF-SCORE:    0.00 PKD
ROOT
HETATM    1  CE  UNL     1      -8.648   6.220  70.791  1.00  0.00    -0.135 C  
HETATM    2  SD  UNL     1      -9.959   6.528  71.923  1.00  0.00    -0.177 SA 
HETATM    3  CG  UNL     1     -11.427   6.600  70.851  1.00  0.00    -0.347 C  
HETATM    4  CB  UNL     1     -11.224   6.361  69.397  1.00  0.00    -0.459 C  
HETATM    5  CA  UNL     1     -10.064   6.262  68.726  1.00  0.00    -0.161 C  
HETATM    6  N   UNL     1      -8.881   6.385  69.396  1.00  0.00    -0.132 N  
HETATM    7  C   UNL     1     -10.165   6.146  67.235  1.00  0.00    -0.191 C  
HETATM    8  C   UNL     1      -7.590   6.666  69.060  1.00  0.00    -0.101 C  
HETATM    9  O   UNL     1      -9.049   6.107  66.526  1.00  0.00    -0.139 OA 
HETATM   10  OXT UNL     1     -11.253   6.072  66.659  1.00  0.00    -0.207 OA 
HETATM   11  CA  UNL     1      -7.302   7.048  70.550  1.00  0.00    -0.076 C  
HETATM   12  O   UNL     1      -7.066   6.756  67.999  1.00  0.00    -0.080 OA 
ENDROOT
BRANCH  11  13
HETATM   13  N   UNL     1      -6.963   8.518  70.663  1.00  0.00    -0.039 N  
HETATM   14  C   UNL     1      -7.574   9.722  70.284  1.00  0.00    -0.172 C  
HETATM   15  H   UNL     1      -6.069   8.671  71.131  1.00  0.00     0.000 HD 
HETATM   16  O   UNL     1      -6.939  10.760  70.468  1.00  0.00    -0.231 OA 
BRANCH  14  17
HETATM   17  C   UNL     1      -9.022   9.826  69.832  1.00  0.00    -0.229 C  
BRANCH  17  18
HETATM   18  C   UNL     1      -9.371  10.245  68.465  1.00  0.00    -0.155 A  
HETATM   19  N   UNL     1      -9.685   9.300  67.495  1.00  0.00    -0.152 NA 
HETATM   20  C   UNL     1      -9.130  11.513  67.943  1.00  0.00    -0.167 A  
HETATM   21  N   UNL     1      -9.436   9.003  65.207  1.00  0.00    -0.460 NA 
HETATM   22  H2  UNL     1      -9.221   9.428  64.305  1.00  0.00     0.000 HD 
HETATM   23  S   UNL     1      -9.138  11.459  66.228  1.00  0.00    -0.204 SA 
HETATM   24  H1  UNL     1      -9.627   8.002  65.249  1.00  0.00     0.000 HD 
HETATM   25  C   UNL     1      -9.458   9.776  66.299  1.00  0.00    -0.195 A  
ENDBRANCH  17  18
BRANCH  17  26
HETATM   26  N   UNL     1     -10.082   9.822  70.594  1.00  0.00    -0.341 NA 
HETATM   27  H   UNL     1      -9.938   9.704  71.597  1.00  0.00     0.000 HD 
BRANCH  26  28
HETATM   28  O   UNL     1     -11.399   9.968  70.144  1.00  0.00    -0.257 OA 
HETATM   29  C   UNL     1     -12.412  10.359  71.045  1.00  0.00    -0.388 C  
ENDBRANCH  26  28
ENDBRANCH  17  26
ENDBRANCH  14  17
ENDBRANCH  11  13
TORSDOF 5
ENDMDL
MODEL      194
REMARK 921   NORMALIZED FREE ENERGY PREDICTED BY IDOCK:   -4.45 KCAL/MOL
REMARK 922        TOTAL FREE ENERGY PREDICTED BY IDOCK:   -6.51 KCAL/MOL
REMARK 923 INTER-LIGAND FREE ENERGY PREDICTED BY IDOCK:   -5.80 KCAL/MOL
REMARK 924 INTRA-LIGAND FREE ENERGY PREDICTED BY IDOCK:   -0.72 KCAL/MOL
REMARK 927      BINDING AFFINITY PREDICTED BY RF-SCORE:    0.00 PKD
ROOT
HETATM    1  CE  UNL     1      -8.870  14.992  68.754  1.00  0.00    -0.192 C  
HETATM    2  SD  UNL     1      -7.232  14.988  69.397  1.00  0.00    -0.203 SA 
HETATM    3  CG  UNL     1      -6.460  16.418  68.578  1.00  0.00    -0.134 C  
HETATM    4  CB  UNL     1      -7.314  17.227  67.667  1.00  0.00    -0.179 C  
HETATM    5  CA  UNL     1      -8.552  16.949  67.224  1.00  0.00    -0.196 C  
HETATM    6  N   UNL     1      -9.169  15.796  67.618  1.00  0.00    -0.199 N  
HETATM    7  C   UNL     1      -9.122  17.890  66.207  1.00  0.00    -0.176 C  
HETATM    8  C   UNL     1     -10.205  15.036  67.163  1.00  0.00    -0.249 C  
HETATM    9  O   UNL     1     -10.313  17.625  65.697  1.00  0.00    -0.606 OA 
HETATM   10  OXT UNL     1      -8.521  18.905  65.848  1.00  0.00    -0.474 OA 
HETATM   11  CA  UNL     1      -9.664  13.828  67.998  1.00  0.00    -0.232 C  
HETATM   12  O   UNL     1     -11.008  15.245  66.315  1.00  0.00    -0.322 OA 
ENDROOT
BRANCH  11  13
HETATM   13  N   UNL     1      -9.224  12.708  67.082  1.00  0.00    -0.206 N  
HETATM   14  C   UNL     1      -8.690  11.422  67.253  1.00  0.00    -0.148 C  
HETATM   15  H   UNL     1      -9.345  12.946  66.098  1.00  0.00     0.000 HD 
HETATM   16  O   UNL     1      -8.360  10.808  66.238  1.00  0.00    -0.149 OA 
BRANCH  14  17
HETATM   17  C   UNL     1      -8.665  10.690  68.585  1.00  0.00    -0.148 C  
BRANCH  17  18
HETATM   18  C   UNL     1      -9.819   9.905  69.051  1.00  0.00    -0.190 A  
HETATM   19  N   UNL     1     -10.746  10.462  69.925  1.00  0.00    -0.281 NA 
HETATM   20  C   UNL     1      -9.931   8.522  68.936  1.00  0.00    -0.190 A  
HETATM   21  N   UNL     1     -12.108   9.791  71.680  1.00  0.00    -0.398 NA 
HETATM   22  H2  UNL     1     -12.533   9.016  72.188  1.00  0.00     0.000 HD 
HETATM   23  S   UNL     1     -11.087   7.926  70.055  1.00  0.00    -0.097 SA 
HETATM   24  H1  UNL     1     -12.268  10.744  72.007  1.00  0.00     0.000 HD 
HETATM   25  C   UNL     1     -11.357   9.527  70.604  1.00  0.00    -0.301 A  
ENDBRANCH  17  18
BRANCH  17  26
HETATM   26  N   UNL     1      -7.803  10.853  69.552  1.00  0.00    -0.363 NA 
HETATM   27  H   UNL     1      -7.635  11.807  69.875  1.00  0.00     0.000 HD 
BRANCH  26  28
HETATM   28  O   UNL     1      -7.091   9.825  70.180  1.00  0.00    -0.095 OA 
HETATM   29  C   UNL     1      -5.952  10.128  70.955  1.00  0.00    -0.070 C  
ENDBRANCH  26  28
ENDBRANCH  17  26
ENDBRANCH  14  17
ENDBRANCH  11  13
TORSDOF 5
ENDMDL
MODEL      195
REMARK 921   NORMALIZED FREE ENERGY PREDICTED BY IDOCK:   -4.43 KCAL/MOL
REMARK 922        TOTAL FREE ENERGY PREDICTED BY IDOCK:   -6.49 KCAL/MOL
REMARK 923 INTER-LIGAND FREE ENERGY PREDICTED BY IDOCK:   -6.01 KCAL/MOL
REMARK 924 INTRA-LIGAND FREE ENERGY PREDICTED BY IDOCK:   -0.48 KCAL/MOL
REMARK 927      BINDING AFFINITY PREDICTED BY RF-SCORE:    0.00 PKD
ROOT
HETATM    1  CE  UNL     1      -9.389   8.070  69.987  1.00  0.00    -0.156 C  
HETATM    2  SD  UNL     1     -10.736   7.111  70.590  1.00  0.00    -0.241 SA 
HETATM    3  CG  UNL     1     -10.600   5.563  69.643  1.00  0.00    -0.305 C  
HETATM    4  CB  UNL     1      -9.463   5.440  68.692  1.00  0.00    -0.159 C  
HETATM    5  CA  UNL     1      -8.601   6.394  68.301  1.00  0.00    -0.114 C  
HETATM    6  N   UNL     1      -8.720   7.660  68.799  1.00  0.00    -0.129 N  
HETATM    7  C   UNL     1      -7.629   6.013  67.227  1.00  0.00    -0.093 C  
HETATM    8  C   UNL     1      -8.294   8.901  68.429  1.00  0.00    -0.125 C  
HETATM    9  O   UNL     1      -6.799   6.934  66.767  1.00  0.00    -0.060 OA 
HETATM   10  OXT UNL     1      -7.572   4.866  66.776  1.00  0.00    -0.086 OA 
HETATM   11  CA  UNL     1      -9.396   9.534  69.343  1.00  0.00    -0.180 C  
HETATM   12  O   UNL     1      -7.531   9.241  67.586  1.00  0.00    -0.087 OA 
ENDROOT
BRANCH  11  13
HETATM   13  N   UNL     1     -10.407  10.287  68.508  1.00  0.00    -0.169 N  
HETATM   14  C   UNL     1     -11.559  11.045  68.766  1.00  0.00    -0.318 C  
HETATM   15  H   UNL     1     -10.200  10.230  67.510  1.00  0.00     0.000 HD 
HETATM   16  O   UNL     1     -12.200  11.446  67.796  1.00  0.00    -0.537 OA 
BRANCH  14  17
HETATM   17  C   UNL     1     -11.949  11.538  70.151  1.00  0.00    -0.369 C  
BRANCH  17  18
HETATM   18  C   UNL     1     -11.955  12.972  70.480  1.00  0.00    -0.212 A  
HETATM   19  N   UNL     1     -12.800  13.466  71.468  1.00  0.00    -0.357 NA 
HETATM   20  C   UNL     1     -11.399  13.968  69.682  1.00  0.00    -0.214 A  
HETATM   21  N   UNL     1     -14.017  15.390  71.918  1.00  0.00    -0.507 NA 
HETATM   22  H2  UNL     1     -14.183  16.372  71.697  1.00  0.00     0.000 HD 
HETATM   23  S   UNL     1     -12.075  15.494  70.079  1.00  0.00    -0.344 SA 
HETATM   24  H1  UNL     1     -14.594  14.939  72.627  1.00  0.00     0.000 HD 
HETATM   25  C   UNL     1     -13.047  14.734  71.270  1.00  0.00    -0.368 A  
ENDBRANCH  17  18
BRANCH  17  26
HETATM   26  N   UNL     1     -12.063  10.820  71.234  1.00  0.00    -0.306 NA 
HETATM   27  H   UNL     1     -11.205  10.587  71.736  1.00  0.00     0.000 HD 
BRANCH  26  28
HETATM   28  O   UNL     1     -13.268  10.344  71.763  1.00  0.00    -0.420 OA 
HETATM   29  C   UNL     1     -13.805   9.122  71.305  1.00  0.00    -0.152 C  
ENDBRANCH  26  28
ENDBRANCH  17  26
ENDBRANCH  14  17
ENDBRANCH  11  13
TORSDOF 5
ENDMDL
MODEL      196
REMARK 921   NORMALIZED FREE ENERGY PREDICTED BY IDOCK:   -4.43 KCAL/MOL
REMARK 922        TOTAL FREE ENERGY PREDICTED BY IDOCK:   -6.48 KCAL/MOL
REMARK 923 INTER-LIGAND FREE ENERGY PREDICTED BY IDOCK:   -5.60 KCAL/MOL
REMARK 924 INTRA-LIGAND FREE ENERGY PREDICTED BY IDOCK:   -0.88 KCAL/MOL
REMARK 927      BINDING AFFINITY PREDICTED BY RF-SCORE:    0.00 PKD
ROOT
HETATM    1  CE  UNL     1     -10.978  15.287  71.237  1.00  0.00    -0.155 C  
HETATM    2  SD  UNL     1     -12.236  16.082  72.176  1.00  0.00    -0.508 SA 
HETATM    3  CG  UNL     1     -13.531  14.810  72.299  1.00  0.00    -0.409 C  
HETATM    4  CB  UNL     1     -13.251  13.487  71.678  1.00  0.00    -0.449 C  
HETATM    5  CA  UNL     1     -12.227  13.145  70.878  1.00  0.00    -0.241 C  
HETATM    6  N   UNL     1     -11.283  14.076  70.552  1.00  0.00     0.125 N  
HETATM    7  C   UNL     1     -12.271  11.767  70.292  1.00  0.00    -0.299 C  
HETATM    8  C   UNL     1     -10.345  14.218  69.572  1.00  0.00     0.113 C  
HETATM    9  O   UNL     1     -11.316  11.405  69.452  1.00  0.00    -0.253 OA 
HETATM   10  OXT UNL     1     -13.159  10.963  70.584  1.00  0.00    -0.246 OA 
HETATM   11  CA  UNL     1     -10.285  15.752  69.874  1.00  0.00    -0.273 C  
HETATM   12  O   UNL     1      -9.964  13.455  68.746  1.00  0.00    -0.174 OA 
ENDROOT
BRANCH  11  13
HETATM   13  N   UNL     1     -10.780  16.545  68.685  1.00  0.00    -0.314 N  
HETATM   14  C   UNL     1     -10.382  16.708  67.350  1.00  0.00    -0.292 C  
HETATM   15  H   UNL     1     -11.609  17.096  68.909  1.00  0.00     0.000 HD 
HETATM   16  O   UNL     1     -10.996  17.533  66.674  1.00  0.00    -0.040 OA 
BRANCH  14  17
HETATM   17  C   UNL     1      -9.370  15.809  66.656  1.00  0.00    -0.258 C  
BRANCH  17  18
HETATM   18  C   UNL     1      -7.930  16.109  66.687  1.00  0.00    -0.270 A  
HETATM   19  N   UNL     1      -7.125  15.606  67.703  1.00  0.00    -0.150 NA 
HETATM   20  C   UNL     1      -7.318  17.114  65.945  1.00  0.00     0.058 A  
HETATM   21  N   UNL     1      -5.260  16.246  68.926  1.00  0.00    -0.104 NA 
HETATM   22  H2  UNL     1      -4.467  16.881  69.012  1.00  0.00     0.000 HD 
HETATM   23  S   UNL     1      -5.805  17.528  66.641  1.00  0.00    -0.208 SA 
HETATM   24  H1  UNL     1      -5.415  15.548  69.653  1.00  0.00     0.000 HD 
HETATM   25  C   UNL     1      -6.066  16.354  67.864  1.00  0.00    -0.123 A  
ENDBRANCH  17  18
BRANCH  17  26
HETATM   26  N   UNL     1      -9.624  14.873  65.783  1.00  0.00    -0.454 NA 
HETATM   27  H   UNL     1      -8.983  14.780  64.994  1.00  0.00     0.000 HD 
BRANCH  26  28
HETATM   28  O   UNL     1     -10.706  13.986  65.842  1.00  0.00    -0.284 OA 
HETATM   29  C   UNL     1     -11.786  14.131  64.946  1.00  0.00    -0.392 C  
ENDBRANCH  26  28
ENDBRANCH  17  26
ENDBRANCH  14  17
ENDBRANCH  11  13
TORSDOF 5
ENDMDL
MODEL      197
REMARK 921   NORMALIZED FREE ENERGY PREDICTED BY IDOCK:   -4.43 KCAL/MOL
REMARK 922        TOTAL FREE ENERGY PREDICTED BY IDOCK:   -6.48 KCAL/MOL
REMARK 923 INTER-LIGAND FREE ENERGY PREDICTED BY IDOCK:   -5.45 KCAL/MOL
REMARK 924 INTRA-LIGAND FREE ENERGY PREDICTED BY IDOCK:   -1.03 KCAL/MOL
REMARK 927      BINDING AFFINITY PREDICTED BY RF-SCORE:    0.00 PKD
ROOT
HETATM    1  CE  UNL     1     -11.914   8.223  71.288  1.00  0.00    -0.287 C  
HETATM    2  SD  UNL     1     -12.962   6.842  71.586  1.00  0.00    -0.217 SA 
HETATM    3  CG  UNL     1     -12.017   5.852  72.785  1.00  0.00     0.014 C  
HETATM    4  CB  UNL     1     -10.710   6.398  73.242  1.00  0.00    -0.288 C  
HETATM    5  CA  UNL     1     -10.038   7.456  72.759  1.00  0.00    -0.224 C  
HETATM    6  N   UNL     1     -10.558   8.172  71.719  1.00  0.00    -0.235 N  
HETATM    7  C   UNL     1      -8.675   7.697  73.334  1.00  0.00    -0.202 C  
HETATM    8  C   UNL     1     -10.070   9.039  70.787  1.00  0.00    -0.241 C  
HETATM    9  O   UNL     1      -7.950   8.692  72.849  1.00  0.00    -0.381 OA 
HETATM   10  OXT UNL     1      -8.223   7.008  74.251  1.00  0.00    -0.125 OA 
HETATM   11  CA  UNL     1     -11.334   8.774  69.903  1.00  0.00     0.039 C  
HETATM   12  O   UNL     1      -9.007   9.559  70.691  1.00  0.00    -0.241 OA 
ENDROOT
BRANCH  11  13
HETATM   13  N   UNL     1     -10.942   8.098  68.608  1.00  0.00    -0.415 N  
HETATM   14  C   UNL     1     -10.394   8.511  67.385  1.00  0.00    -0.286 C  
HETATM   15  H   UNL     1     -11.121   7.094  68.630  1.00  0.00     0.000 HD 
HETATM   16  O   UNL     1     -10.291   7.665  66.498  1.00  0.00    -0.222 OA 
BRANCH  14  17
HETATM   17  C   UNL     1      -9.765   9.878  67.163  1.00  0.00    -0.178 C  
BRANCH  17  18
HETATM   18  C   UNL     1      -8.338  10.118  67.428  1.00  0.00    -0.118 A  
HETATM   19  N   UNL     1      -7.746  11.324  67.071  1.00  0.00    -0.140 NA 
HETATM   20  C   UNL     1      -7.416   9.124  67.747  1.00  0.00    -0.085 A  
HETATM   21  N   UNL     1      -5.694  12.102  66.317  1.00  0.00    -0.349 NA 
HETATM   22  H2  UNL     1      -4.701  11.912  66.183  1.00  0.00     0.000 HD 
HETATM   23  S   UNL     1      -5.821   9.671  67.430  1.00  0.00    -0.044 SA 
HETATM   24  H1  UNL     1      -6.073  12.995  66.003  1.00  0.00     0.000 HD 
HETATM   25  C   UNL     1      -6.459  11.172  66.901  1.00  0.00    -0.117 A  
ENDBRANCH  17  18
BRANCH  17  26
HETATM   26  N   UNL     1     -10.392  11.007  66.979  1.00  0.00    -0.218 NA 
HETATM   27  H   UNL     1      -9.913  11.728  66.438  1.00  0.00     0.000 HD 
BRANCH  26  28
HETATM   28  O   UNL     1     -11.670  11.308  67.465  1.00  0.00    -0.574 OA 
HETATM   29  C   UNL     1     -11.821  12.208  68.542  1.00  0.00    -0.310 C  
ENDBRANCH  26  28
ENDBRANCH  17  26
ENDBRANCH  14  17
ENDBRANCH  11  13
TORSDOF 5
ENDMDL
MODEL      198
REMARK 921   NORMALIZED FREE ENERGY PREDICTED BY IDOCK:   -4.39 KCAL/MOL
REMARK 922        TOTAL FREE ENERGY PREDICTED BY IDOCK:   -6.43 KCAL/MOL
REMARK 923 INTER-LIGAND FREE ENERGY PREDICTED BY IDOCK:   -5.57 KCAL/MOL
REMARK 924 INTRA-LIGAND FREE ENERGY PREDICTED BY IDOCK:   -0.86 KCAL/MOL
REMARK 927      BINDING AFFINITY PREDICTED BY RF-SCORE:    0.00 PKD
ROOT
HETATM    1  CE  UNL     1     -10.288  13.312  68.140  1.00  0.00    -0.244 C  
HETATM    2  SD  UNL     1      -8.951  14.128  68.940  1.00  0.00     0.106 SA 
HETATM    3  CG  UNL     1      -7.484  13.381  68.165  1.00  0.00    -0.133 C  
HETATM    4  CB  UNL     1      -7.715  12.373  67.095  1.00  0.00    -0.122 C  
HETATM    5  CA  UNL     1      -8.874  11.802  66.728  1.00  0.00    -0.191 C  
HETATM    6  N   UNL     1     -10.030  12.141  67.372  1.00  0.00    -0.198 N  
HETATM    7  C   UNL     1      -8.786  10.718  65.698  1.00  0.00    -0.190 C  
HETATM    8  C   UNL     1     -11.265  11.586  67.522  1.00  0.00    -0.298 C  
HETATM    9  O   UNL     1      -9.893  10.085  65.347  1.00  0.00    -0.281 OA 
HETATM   10  OXT UNL     1      -7.718  10.414  65.160  1.00  0.00    -0.145 OA 
HETATM   11  CA  UNL     1     -11.501  12.488  68.779  1.00  0.00    -0.310 C  
HETATM   12  O   UNL     1     -11.768  10.653  66.988  1.00  0.00    -0.141 OA 
ENDROOT
BRANCH  11  13
HETATM   13  N   UNL     1     -11.625  11.639  70.024  1.00  0.00    -0.454 N  
HETATM   14  C   UNL     1     -11.069  10.434  70.478  1.00  0.00    -0.265 C  
HETATM   15  H   UNL     1     -12.273  12.043  70.701  1.00  0.00     0.000 HD 
HETATM   16  O   UNL     1     -11.487   9.986  71.545  1.00  0.00    -0.332 OA 
BRANCH  14  17
HETATM   17  C   UNL     1      -9.873   9.759  69.825  1.00  0.00    -0.234 C  
BRANCH  17  18
HETATM   18  C   UNL     1      -9.984   8.424  69.216  1.00  0.00    -0.195 A  
HETATM   19  N   UNL     1      -9.458   8.178  67.952  1.00  0.00    -0.144 NA 
HETATM   20  C   UNL     1     -10.844   7.423  69.659  1.00  0.00    -0.210 A  
HETATM   21  N   UNL     1      -9.938   6.886  66.086  1.00  0.00    -0.413 NA 
HETATM   22  H2  UNL     1     -10.468   6.108  65.695  1.00  0.00     0.000 HD 
HETATM   23  S   UNL     1     -11.107   6.272  68.414  1.00  0.00    -0.158 SA 
HETATM   24  H1  UNL     1      -9.322   7.421  65.475  1.00  0.00     0.000 HD 
HETATM   25  C   UNL     1     -10.071   7.173  67.386  1.00  0.00    -0.202 A  
ENDBRANCH  17  18
BRANCH  17  26
HETATM   26  N   UNL     1      -8.621  10.109  69.933  1.00  0.00    -0.364 NA 
HETATM   27  H   UNL     1      -8.256  10.768  69.244  1.00  0.00     0.000 HD 
BRANCH  26  28
HETATM   28  O   UNL     1      -7.739   9.655  70.920  1.00  0.00    -0.314 OA 
HETATM   29  C   UNL     1      -8.028   8.473  71.635  1.00  0.00    -0.142 C  
ENDBRANCH  26  28
ENDBRANCH  17  26
ENDBRANCH  14  17
ENDBRANCH  11  13
TORSDOF 5
ENDMDL
MODEL      199
REMARK 921   NORMALIZED FREE ENERGY PREDICTED BY IDOCK:   -4.38 KCAL/MOL
REMARK 922        TOTAL FREE ENERGY PREDICTED BY IDOCK:   -6.42 KCAL/MOL
REMARK 923 INTER-LIGAND FREE ENERGY PREDICTED BY IDOCK:   -5.61 KCAL/MOL
REMARK 924 INTRA-LIGAND FREE ENERGY PREDICTED BY IDOCK:   -0.81 KCAL/MOL
REMARK 927      BINDING AFFINITY PREDICTED BY RF-SCORE:    0.00 PKD
ROOT
HETATM    1  CE  UNL     1     -10.125  13.834  65.404  1.00  0.00    -0.286 C  
HETATM    2  SD  UNL     1     -11.343  14.919  64.744  1.00  0.00    -0.376 SA 
HETATM    3  CG  UNL     1     -10.816  16.553  65.348  1.00  0.00    -0.206 C  
HETATM    4  CB  UNL     1      -9.565  16.613  66.151  1.00  0.00    -0.323 C  
HETATM    5  CA  UNL     1      -8.846  15.593  66.646  1.00  0.00    -0.292 C  
HETATM    6  N   UNL     1      -9.250  14.307  66.422  1.00  0.00    -0.240 N  
HETATM    7  C   UNL     1      -7.694  15.957  67.532  1.00  0.00    -0.159 C  
HETATM    8  C   UNL     1      -9.010  13.093  66.992  1.00  0.00    -0.228 C  
HETATM    9  O   UNL     1      -6.992  14.986  68.091  1.00  0.00    -0.104 OA 
HETATM   10  OXT UNL     1      -7.377  17.131  67.739  1.00  0.00    -0.163 OA 
HETATM   11  CA  UNL     1     -10.313  12.540  66.324  1.00  0.00    -0.250 C  
HETATM   12  O   UNL     1      -8.222  12.763  67.816  1.00  0.00    -0.150 OA 
ENDROOT
BRANCH  11  13
HETATM   13  N   UNL     1     -11.330  12.165  67.379  1.00  0.00    -0.304 N  
HETATM   14  C   UNL     1     -11.592  11.033  68.165  1.00  0.00    -0.272 C  
HETATM   15  H   UNL     1     -11.988  12.922  67.564  1.00  0.00     0.000 HD 
HETATM   16  O   UNL     1     -12.596  11.060  68.877  1.00  0.00    -0.366 OA 
BRANCH  14  17
HETATM   17  C   UNL     1     -10.624   9.870  68.316  1.00  0.00    -0.229 C  
BRANCH  17  18
HETATM   18  C   UNL     1      -9.906   9.629  69.578  1.00  0.00    -0.206 A  
HETATM   19  N   UNL     1      -8.641  10.169  69.785  1.00  0.00    -0.168 NA 
HETATM   20  C   UNL     1     -10.244   8.645  70.502  1.00  0.00    -0.197 A  
HETATM   21  N   UNL     1      -6.664   9.612  70.864  1.00  0.00    -0.235 NA 
HETATM   22  H2  UNL     1      -6.197   9.010  71.542  1.00  0.00     0.000 HD 
HETATM   23  S   UNL     1      -8.903   8.297  71.515  1.00  0.00    -0.186 SA 
HETATM   24  H1  UNL     1      -6.115  10.306  70.359  1.00  0.00     0.000 HD 
HETATM   25  C   UNL     1      -7.980   9.465  70.665  1.00  0.00    -0.158 A  
ENDBRANCH  17  18
BRANCH  17  26
HETATM   26  N   UNL     1     -10.123   9.139  67.358  1.00  0.00    -0.212 NA 
HETATM   27  H   UNL     1     -10.350   8.144  67.358  1.00  0.00     0.000 HD 
BRANCH  26  28
HETATM   28  O   UNL     1      -9.299   9.612  66.330  1.00  0.00    -0.162 OA 
HETATM   29  C   UNL     1      -8.405   8.733  65.683  1.00  0.00    -0.138 C  
ENDBRANCH  26  28
ENDBRANCH  17  26
ENDBRANCH  14  17
ENDBRANCH  11  13
TORSDOF 5
ENDMDL
MODEL      200
REMARK 921   NORMALIZED FREE ENERGY PREDICTED BY IDOCK:   -4.35 KCAL/MOL
REMARK 922        TOTAL FREE ENERGY PREDICTED BY IDOCK:   -6.38 KCAL/MOL
REMARK 923 INTER-LIGAND FREE ENERGY PREDICTED BY IDOCK:   -5.27 KCAL/MOL
REMARK 924 INTRA-LIGAND FREE ENERGY PREDICTED BY IDOCK:   -1.10 KCAL/MOL
REMARK 927      BINDING AFFINITY PREDICTED BY RF-SCORE:    0.00 PKD
ROOT
HETATM    1  CE  UNL     1     -10.153   5.097  69.886  1.00  0.00    -0.272 C  
HETATM    2  SD  UNL     1     -11.274   6.251  69.174  1.00  0.00    -0.271 SA 
HETATM    3  CG  UNL     1     -10.174   7.493  68.425  1.00  0.00    -0.185 C  
HETATM    4  CB  UNL     1      -8.709   7.258  68.529  1.00  0.00    -0.123 C  
HETATM    5  CA  UNL     1      -8.066   6.330  69.257  1.00  0.00    -0.110 C  
HETATM    6  N   UNL     1      -8.781   5.453  70.021  1.00  0.00    -0.120 N  
HETATM    7  C   UNL     1      -6.570   6.412  69.268  1.00  0.00    -0.044 C  
HETATM    8  C   UNL     1      -8.519   4.643  71.086  1.00  0.00    -0.107 C  
HETATM    9  O   UNL     1      -5.894   5.556  70.017  1.00  0.00    -0.018 OA 
HETATM   10  OXT UNL     1      -5.957   7.240  68.590  1.00  0.00    -0.025 OA 
HETATM   11  CA  UNL     1     -10.052   4.583  71.397  1.00  0.00    -0.160 C  
HETATM   12  O   UNL     1      -7.492   4.346  71.602  1.00  0.00    -0.064 OA 
ENDROOT
BRANCH  11  13
HETATM   13  N   UNL     1     -10.348   5.235  72.729  1.00  0.00    -0.187 N  
HETATM   14  C   UNL     1     -10.230   6.527  73.263  1.00  0.00    -0.224 C  
HETATM   15  H   UNL     1     -10.727   4.573  73.405  1.00  0.00     0.000 HD 
HETATM   16  O   UNL     1     -10.496   6.671  74.456  1.00  0.00    -0.254 OA 
BRANCH  14  17
HETATM   17  C   UNL     1      -9.970   7.766  72.421  1.00  0.00    -0.214 C  
BRANCH  17  18
HETATM   18  C   UNL     1     -11.074   8.534  71.825  1.00  0.00    -0.307 A  
HETATM   19  N   UNL     1     -10.814   9.651  71.038  1.00  0.00    -0.335 NA 
HETATM   20  C   UNL     1     -12.406   8.432  72.215  1.00  0.00    -0.376 A  
HETATM   21  N   UNL     1     -11.767  11.715  70.573  1.00  0.00    -0.491 NA 
HETATM   22  H2  UNL     1     -12.593  12.311  70.630  1.00  0.00     0.000 HD 
HETATM   23  S   UNL     1     -13.276   9.829  71.727  1.00  0.00    -0.447 SA 
HETATM   24  H1  UNL     1     -10.913  12.091  70.164  1.00  0.00     0.000 HD 
HETATM   25  C   UNL     1     -11.839  10.462  71.039  1.00  0.00    -0.361 A  
ENDBRANCH  17  18
BRANCH  17  26
HETATM   26  N   UNL     1      -8.826   8.146  71.920  1.00  0.00    -0.142 NA 
HETATM   27  H   UNL     1      -8.684   8.010  70.918  1.00  0.00     0.000 HD 
BRANCH  26  28
HETATM   28  O   UNL     1      -7.779   8.724  72.646  1.00  0.00    -0.361 OA 
HETATM   29  C   UNL     1      -6.457   8.648  72.159  1.00  0.00    -0.070 C  
ENDBRANCH  26  28
ENDBRANCH  17  26
ENDBRANCH  14  17
ENDBRANCH  11  13
TORSDOF 5
ENDMDL
MODEL      201
REMARK 921   NORMALIZED FREE ENERGY PREDICTED BY IDOCK:   -4.34 KCAL/MOL
REMARK 922        TOTAL FREE ENERGY PREDICTED BY IDOCK:   -6.37 KCAL/MOL
REMARK 923 INTER-LIGAND FREE ENERGY PREDICTED BY IDOCK:   -5.42 KCAL/MOL
REMARK 924 INTRA-LIGAND FREE ENERGY PREDICTED BY IDOCK:   -0.96 KCAL/MOL
REMARK 927      BINDING AFFINITY PREDICTED BY RF-SCORE:    0.00 PKD
ROOT
HETATM    1  CE  UNL     1      -9.054   7.304  68.223  1.00  0.00    -0.134 C  
HETATM    2  SD  UNL     1      -7.881   7.417  69.529  1.00  0.00    -0.123 SA 
HETATM    3  CG  UNL     1      -6.844   5.942  69.287  1.00  0.00    -0.062 C  
HETATM    4  CB  UNL     1      -7.156   5.071  68.121  1.00  0.00    -0.062 C  
HETATM    5  CA  UNL     1      -8.220   5.128  67.304  1.00  0.00    -0.107 C  
HETATM    6  N   UNL     1      -9.178   6.081  67.503  1.00  0.00    -0.112 N  
HETATM    7  C   UNL     1      -8.337   4.035  66.286  1.00  0.00    -0.105 C  
HETATM    8  C   UNL     1     -10.479   6.252  67.137  1.00  0.00    -0.263 C  
HETATM    9  O   UNL     1      -9.399   4.015  65.497  1.00  0.00    -0.140 OA 
HETATM   10  OXT UNL     1      -7.468   3.169  66.155  1.00  0.00    -0.074 OA 
HETATM   11  CA  UNL     1     -10.652   7.292  68.293  1.00  0.00    -0.172 C  
HETATM   12  O   UNL     1     -11.157   5.647  66.374  1.00  0.00    -0.160 OA 
ENDROOT
BRANCH  11  13
HETATM   13  N   UNL     1     -11.633   6.781  69.324  1.00  0.00    -0.623 N  
HETATM   14  C   UNL     1     -11.928   7.074  70.663  1.00  0.00    -0.313 C  
HETATM   15  H   UNL     1     -12.227   6.039  68.953  1.00  0.00     0.000 HD 
HETATM   16  O   UNL     1     -12.763   6.366  71.226  1.00  0.00    -0.068 OA 
BRANCH  14  17
HETATM   17  C   UNL     1     -11.414   8.308  71.388  1.00  0.00    -0.269 C  
BRANCH  17  18
HETATM   18  C   UNL     1     -10.445   8.203  72.489  1.00  0.00    -0.339 A  
HETATM   19  N   UNL     1      -9.251   8.916  72.451  1.00  0.00    -0.317 NA 
HETATM   20  C   UNL     1     -10.461   7.208  73.463  1.00  0.00    -0.380 A  
HETATM   21  N   UNL     1      -7.048   8.663  73.133  1.00  0.00    -0.330 NA 
HETATM   22  H2  UNL     1      -6.382   8.150  73.710  1.00  0.00     0.000 HD 
HETATM   23  S   UNL     1      -8.918   7.075  74.201  1.00  0.00    -0.212 SA 
HETATM   24  H1  UNL     1      -6.706   9.412  72.531  1.00  0.00     0.000 HD 
HETATM   25  C   UNL     1      -8.344   8.333  73.188  1.00  0.00    -0.187 A  
ENDBRANCH  17  18
BRANCH  17  26
HETATM   26  N   UNL     1     -11.913   9.513  71.331  1.00  0.00    -0.358 NA 
HETATM   27  H   UNL     1     -12.342   9.884  72.180  1.00  0.00     0.000 HD 
BRANCH  26  28
HETATM   28  O   UNL     1     -11.905  10.337  70.200  1.00  0.00    -0.264 OA 
HETATM   29  C   UNL     1     -10.683  10.674  69.581  1.00  0.00    -0.244 C  
ENDBRANCH  26  28
ENDBRANCH  17  26
ENDBRANCH  14  17
ENDBRANCH  11  13
TORSDOF 5
ENDMDL
MODEL      202
REMARK 921   NORMALIZED FREE ENERGY PREDICTED BY IDOCK:   -4.32 KCAL/MOL
REMARK 922        TOTAL FREE ENERGY PREDICTED BY IDOCK:   -6.34 KCAL/MOL
REMARK 923 INTER-LIGAND FREE ENERGY PREDICTED BY IDOCK:   -4.89 KCAL/MOL
REMARK 924 INTRA-LIGAND FREE ENERGY PREDICTED BY IDOCK:   -1.45 KCAL/MOL
REMARK 927      BINDING AFFINITY PREDICTED BY RF-SCORE:    0.00 PKD
ROOT
HETATM    1  CE  UNL     1      -6.795   7.771  68.405  1.00  0.00    -0.067 C  
HETATM    2  SD  UNL     1      -6.733   9.418  67.790  1.00  0.00    -0.068 SA 
HETATM    3  CG  UNL     1      -7.062  10.427  69.269  1.00  0.00    -0.090 C  
HETATM    4  CB  UNL     1      -7.249   9.709  70.558  1.00  0.00    -0.143 C  
HETATM    5  CA  UNL     1      -7.378   8.387  70.762  1.00  0.00    -0.060 C  
HETATM    6  N   UNL     1      -7.341   7.531  69.698  1.00  0.00    -0.087 N  
HETATM    7  C   UNL     1      -7.684   7.956  72.163  1.00  0.00    -0.101 C  
HETATM    8  C   UNL     1      -7.743   6.251  69.458  1.00  0.00    -0.099 C  
HETATM    9  O   UNL     1      -7.879   6.669  72.403  1.00  0.00    -0.098 OA 
HETATM   10  OXT UNL     1      -7.743   8.762  73.095  1.00  0.00    -0.385 OA 
HETATM   11  CA  UNL     1      -7.697   6.542  67.921  1.00  0.00    -0.104 C  
HETATM   12  O   UNL     1      -8.144   5.412  70.195  1.00  0.00    -0.086 OA 
ENDROOT
BRANCH  11  13
HETATM   13  N   UNL     1      -9.084   6.455  67.324  1.00  0.00    -0.116 N  
HETATM   14  C   UNL     1     -10.374   6.841  67.719  1.00  0.00    -0.198 C  
HETATM   15  H   UNL     1      -9.081   6.006  66.408  1.00  0.00     0.000 HD 
HETATM   16  O   UNL     1     -11.309   6.516  66.988  1.00  0.00    -0.342 OA 
BRANCH  14  17
HETATM   17  C   UNL     1     -10.653   7.774  68.886  1.00  0.00    -0.150 C  
BRANCH  17  18
HETATM   18  C   UNL     1     -10.549   9.235  68.742  1.00  0.00    -0.193 A  
HETATM   19  N   UNL     1     -10.763  10.070  69.834  1.00  0.00    -0.265 NA 
HETATM   20  C   UNL     1     -10.544   9.909  67.525  1.00  0.00    -0.275 A  
HETATM   21  N   UNL     1     -11.642  12.172  70.273  1.00  0.00    -0.529 NA 
HETATM   22  H2  UNL     1     -11.944  13.071  69.899  1.00  0.00     0.000 HD 
HETATM   23  S   UNL     1     -10.976  11.554  67.756  1.00  0.00    -0.255 SA 
HETATM   24  H1  UNL     1     -11.736  11.996  71.273  1.00  0.00     0.000 HD 
HETATM   25  C   UNL     1     -11.134  11.258  69.437  1.00  0.00    -0.257 A  
ENDBRANCH  17  18
BRANCH  17  26
HETATM   26  N   UNL     1     -10.754   7.445  70.145  1.00  0.00    -0.238 NA 
HETATM   27  H   UNL     1     -10.109   7.890  70.800  1.00  0.00     0.000 HD 
BRANCH  26  28
HETATM   28  O   UNL     1     -11.674   6.530  70.669  1.00  0.00    -0.373 OA 
HETATM   29  C   UNL     1     -11.553   6.094  72.005  1.00  0.00    -0.310 C  
ENDBRANCH  26  28
ENDBRANCH  17  26
ENDBRANCH  14  17
ENDBRANCH  11  13
TORSDOF 5
ENDMDL
MODEL      203
REMARK 921   NORMALIZED FREE ENERGY PREDICTED BY IDOCK:   -4.31 KCAL/MOL
REMARK 922        TOTAL FREE ENERGY PREDICTED BY IDOCK:   -6.33 KCAL/MOL
REMARK 923 INTER-LIGAND FREE ENERGY PREDICTED BY IDOCK:   -5.46 KCAL/MOL
REMARK 924 INTRA-LIGAND FREE ENERGY PREDICTED BY IDOCK:   -0.88 KCAL/MOL
REMARK 927      BINDING AFFINITY PREDICTED BY RF-SCORE:    0.00 PKD
ROOT
HETATM    1  CE  UNL     1     -10.525   7.881  67.251  1.00  0.00    -0.320 C  
HETATM    2  SD  UNL     1     -10.017   9.206  68.291  1.00  0.00    -0.182 SA 
HETATM    3  CG  UNL     1      -8.361   9.621  67.659  1.00  0.00    -0.121 C  
HETATM    4  CB  UNL     1      -7.867   8.853  66.485  1.00  0.00    -0.100 C  
HETATM    5  CA  UNL     1      -8.408   7.763  65.917  1.00  0.00    -0.134 C  
HETATM    6  N   UNL     1      -9.560   7.235  66.427  1.00  0.00    -0.146 N  
HETATM    7  C   UNL     1      -7.617   7.121  64.818  1.00  0.00    -0.105 C  
HETATM    8  C   UNL     1     -10.199   6.033  66.361  1.00  0.00    -0.076 C  
HETATM    9  O   UNL     1      -8.080   6.011  64.269  1.00  0.00    -0.126 OA 
HETATM   10  OXT UNL     1      -6.562   7.608  64.405  1.00  0.00    -0.047 OA 
HETATM   11  CA  UNL     1     -11.006   6.409  67.648  1.00  0.00    -0.349 C  
HETATM   12  O   UNL     1      -9.992   5.079  65.686  1.00  0.00    -0.148 OA 
ENDROOT
BRANCH  11  13
HETATM   13  N   UNL     1     -10.648   5.481  68.787  1.00  0.00    -0.197 N  
HETATM   14  C   UNL     1     -10.576   5.586  70.185  1.00  0.00    -0.297 C  
HETATM   15  H   UNL     1     -10.396   4.548  68.459  1.00  0.00     0.000 HD 
HETATM   16  O   UNL     1     -10.146   4.613  70.803  1.00  0.00    -0.224 OA 
BRANCH  14  17
HETATM   17  C   UNL     1     -11.160   6.748  70.973  1.00  0.00    -0.273 C  
BRANCH  17  18
HETATM   18  C   UNL     1     -10.470   7.300  72.149  1.00  0.00    -0.203 A  
HETATM   19  N   UNL     1      -9.441   8.223  71.997  1.00  0.00    -0.210 NA 
HETATM   20  C   UNL     1     -10.543   6.762  73.431  1.00  0.00    -0.325 A  
HETATM   21  N   UNL     1      -7.448   8.797  73.037  1.00  0.00    -0.362 NA 
HETATM   22  H2  UNL     1      -6.857   8.715  73.864  1.00  0.00     0.000 HD 
HETATM   23  S   UNL     1      -9.215   7.298  74.376  1.00  0.00    -0.033 SA 
HETATM   24  H1  UNL     1      -7.109   9.332  72.238  1.00  0.00     0.000 HD 
HETATM   25  C   UNL     1      -8.644   8.198  73.033  1.00  0.00    -0.219 A  
ENDBRANCH  17  18
BRANCH  17  26
HETATM   26  N   UNL     1     -12.377   7.212  70.897  1.00  0.00    -0.527 NA 
HETATM   27  H   UNL     1     -13.103   6.575  70.566  1.00  0.00     0.000 HD 
BRANCH  26  28
HETATM   28  O   UNL     1     -12.767   8.514  71.232  1.00  0.00    -0.289 OA 
HETATM   29  C   UNL     1     -13.767   8.722  72.204  1.00  0.00    -0.447 C  
ENDBRANCH  26  28
ENDBRANCH  17  26
ENDBRANCH  14  17
ENDBRANCH  11  13
TORSDOF 5
ENDMDL
MODEL      204
REMARK 921   NORMALIZED FREE ENERGY PREDICTED BY IDOCK:   -4.31 KCAL/MOL
REMARK 922        TOTAL FREE ENERGY PREDICTED BY IDOCK:   -6.33 KCAL/MOL
REMARK 923 INTER-LIGAND FREE ENERGY PREDICTED BY IDOCK:   -5.30 KCAL/MOL
REMARK 924 INTRA-LIGAND FREE ENERGY PREDICTED BY IDOCK:   -1.03 KCAL/MOL
REMARK 927      BINDING AFFINITY PREDICTED BY RF-SCORE:    0.00 PKD
ROOT
HETATM    1  CE  UNL     1     -11.351  10.234  70.824  1.00  0.00    -0.337 C  
HETATM    2  SD  UNL     1     -13.105  10.246  70.958  1.00  0.00    -0.307 SA 
HETATM    3  CG  UNL     1     -13.443   8.888  72.122  1.00  0.00    -0.448 C  
HETATM    4  CB  UNL     1     -12.272   8.165  72.686  1.00  0.00    -0.270 C  
HETATM    5  CA  UNL     1     -10.982   8.263  72.324  1.00  0.00    -0.348 C  
HETATM    6  N   UNL     1     -10.623   9.115  71.319  1.00  0.00    -0.302 N  
HETATM    7  C   UNL     1     -10.030   7.313  72.985  1.00  0.00    -0.227 C  
HETATM    8  C   UNL     1      -9.554   9.249  70.484  1.00  0.00    -0.262 C  
HETATM    9  O   UNL     1      -8.760   7.330  72.618  1.00  0.00    -0.119 OA 
HETATM   10  OXT UNL     1     -10.396   6.531  73.867  1.00  0.00    -0.286 OA 
HETATM   11  CA  UNL     1     -10.436  10.109  69.519  1.00  0.00    -0.241 C  
HETATM   12  O   UNL     1      -8.497   8.710  70.484  1.00  0.00    -0.127 OA 
ENDROOT
BRANCH  11  13
HETATM   13  N   UNL     1     -10.619   9.399  68.197  1.00  0.00    -0.300 N  
HETATM   14  C   UNL     1      -9.849   9.217  67.038  1.00  0.00    -0.207 C  
HETATM   15  H   UNL     1     -11.527   8.939  68.131  1.00  0.00     0.000 HD 
HETATM   16  O   UNL     1     -10.379   8.633  66.093  1.00  0.00    -0.123 OA 
BRANCH  14  17
HETATM   17  C   UNL     1      -8.365   9.537  66.955  1.00  0.00    -0.116 C  
BRANCH  17  18
HETATM   18  C   UNL     1      -7.828  10.819  67.438  1.00  0.00    -0.111 A  
HETATM   19  N   UNL     1      -6.943  10.855  68.509  1.00  0.00    -0.069 NA 
HETATM   20  C   UNL     1      -8.354  12.066  67.114  1.00  0.00    -0.181 A  
HETATM   21  N   UNL     1      -6.430  12.240  70.299  1.00  0.00    -0.461 NA 
HETATM   22  H2  UNL     1      -6.526  13.161  70.726  1.00  0.00     0.000 HD 
HETATM   23  S   UNL     1      -7.857  13.237  68.266  1.00  0.00    -0.148 SA 
HETATM   24  H1  UNL     1      -5.913  11.516  70.797  1.00  0.00     0.000 HD 
HETATM   25  C   UNL     1      -6.987  12.019  69.103  1.00  0.00    -0.066 A  
ENDBRANCH  17  18
BRANCH  17  26
HETATM   26  N   UNL     1      -7.464   8.897  66.260  1.00  0.00    -0.090 NA 
HETATM   27  H   UNL     1      -6.793   9.456  65.733  1.00  0.00     0.000 HD 
BRANCH  26  28
HETATM   28  O   UNL     1      -7.345   7.504  66.182  1.00  0.00    -0.078 OA 
HETATM   29  C   UNL     1      -6.947   6.766  67.316  1.00  0.00    -0.074 C  
ENDBRANCH  26  28
ENDBRANCH  17  26
ENDBRANCH  14  17
ENDBRANCH  11  13
TORSDOF 5
ENDMDL
MODEL      205
REMARK 921   NORMALIZED FREE ENERGY PREDICTED BY IDOCK:   -4.31 KCAL/MOL
REMARK 922        TOTAL FREE ENERGY PREDICTED BY IDOCK:   -6.33 KCAL/MOL
REMARK 923 INTER-LIGAND FREE ENERGY PREDICTED BY IDOCK:   -5.43 KCAL/MOL
REMARK 924 INTRA-LIGAND FREE ENERGY PREDICTED BY IDOCK:   -0.90 KCAL/MOL
REMARK 927      BINDING AFFINITY PREDICTED BY RF-SCORE:    0.00 PKD
ROOT
HETATM    1  CE  UNL     1     -10.270   5.327  74.280  1.00  0.00    -0.266 C  
HETATM    2  SD  UNL     1     -10.301   3.570  74.351  1.00  0.00    -0.199 SA 
HETATM    3  CG  UNL     1      -8.538   3.126  74.441  1.00  0.00    -0.076 C  
HETATM    4  CB  UNL     1      -7.554   4.241  74.477  1.00  0.00    -0.080 C  
HETATM    5  CA  UNL     1      -7.776   5.551  74.280  1.00  0.00    -0.095 C  
HETATM    6  N   UNL     1      -9.040   5.991  74.010  1.00  0.00    -0.126 N  
HETATM    7  C   UNL     1      -6.566   6.434  74.250  1.00  0.00    -0.074 C  
HETATM    8  C   UNL     1      -9.589   7.108  73.455  1.00  0.00    -0.208 C  
HETATM    9  O   UNL     1      -6.727   7.723  74.000  1.00  0.00    -0.088 OA 
HETATM   10  OXT UNL     1      -5.433   5.996  74.466  1.00  0.00    -0.043 OA 
HETATM   11  CA  UNL     1     -10.908   6.309  73.190  1.00  0.00    -0.254 C  
HETATM   12  O   UNL     1      -9.100   8.146  73.152  1.00  0.00    -0.248 OA 
ENDROOT
BRANCH  11  13
HETATM   13  N   UNL     1     -11.157   6.175  71.705  1.00  0.00    -0.267 N  
HETATM   14  C   UNL     1     -11.526   7.043  70.666  1.00  0.00    -0.324 C  
HETATM   15  H   UNL     1     -11.024   5.218  71.377  1.00  0.00     0.000 HD 
HETATM   16  O   UNL     1     -11.727   6.544  69.558  1.00  0.00    -0.329 OA 
BRANCH  14  17
HETATM   17  C   UNL     1     -11.515   8.558  70.790  1.00  0.00    -0.253 C  
BRANCH  17  18
HETATM   18  C   UNL     1     -10.751   9.399  69.855  1.00  0.00    -0.234 A  
HETATM   19  N   UNL     1      -9.365   9.470  69.940  1.00  0.00    -0.207 NA 
HETATM   20  C   UNL     1     -11.307  10.391  69.051  1.00  0.00    -0.219 A  
HETATM   21  N   UNL     1      -7.677  11.025  69.599  1.00  0.00    -0.369 NA 
HETATM   22  H2  UNL     1      -7.406  11.924  69.200  1.00  0.00     0.000 HD 
HETATM   23  S   UNL     1     -10.094  11.497  68.552  1.00  0.00    -0.201 SA 
HETATM   24  H1  UNL     1      -6.985  10.486  70.119  1.00  0.00     0.000 HD 
HETATM   25  C   UNL     1      -8.930  10.590  69.425  1.00  0.00    -0.093 A  
ENDBRANCH  17  18
BRANCH  17  26
HETATM   26  N   UNL     1     -11.922   9.263  71.811  1.00  0.00    -0.371 NA 
HETATM   27  H   UNL     1     -11.216   9.562  72.485  1.00  0.00     0.000 HD 
BRANCH  26  28
HETATM   28  O   UNL     1     -13.247   9.640  72.054  1.00  0.00    -0.400 OA 
HETATM   29  C   UNL     1     -14.289   8.702  71.888  1.00  0.00    -0.405 C  
ENDBRANCH  26  28
ENDBRANCH  17  26
ENDBRANCH  14  17
ENDBRANCH  11  13
TORSDOF 5
ENDMDL
MODEL      206
REMARK 921   NORMALIZED FREE ENERGY PREDICTED BY IDOCK:   -4.31 KCAL/MOL
REMARK 922        TOTAL FREE ENERGY PREDICTED BY IDOCK:   -6.33 KCAL/MOL
REMARK 923 INTER-LIGAND FREE ENERGY PREDICTED BY IDOCK:   -6.08 KCAL/MOL
REMARK 924 INTRA-LIGAND FREE ENERGY PREDICTED BY IDOCK:   -0.25 KCAL/MOL
REMARK 927      BINDING AFFINITY PREDICTED BY RF-SCORE:    0.00 PKD
ROOT
HETATM    1  CE  UNL     1      -9.298  13.416  65.916  1.00  0.00     0.079 C  
HETATM    2  SD  UNL     1     -10.115  11.920  66.352  1.00  0.00    -0.220 SA 
HETATM    3  CG  UNL     1     -11.803  12.168  65.720  1.00  0.00    -0.274 C  
HETATM    4  CB  UNL     1     -12.083  13.440  65.001  1.00  0.00    -0.436 C  
HETATM    5  CA  UNL     1     -11.298  14.525  64.896  1.00  0.00    -0.394 C  
HETATM    6  N   UNL     1     -10.072  14.535  65.498  1.00  0.00    -0.352 N  
HETATM    7  C   UNL     1     -11.897  15.717  64.214  1.00  0.00    -0.146 C  
HETATM    8  C   UNL     1      -9.181  15.490  65.888  1.00  0.00    -0.270 C  
HETATM    9  O   UNL     1     -11.184  16.828  64.138  1.00  0.00    -1.155 OA 
HETATM   10  OXT UNL     1     -13.022  15.682  63.710  1.00  0.00    -0.403 OA 
HETATM   11  CA  UNL     1      -8.513  14.451  66.849  1.00  0.00    -0.127 C  
HETATM   12  O   UNL     1      -9.153  16.658  65.679  1.00  0.00    -0.477 OA 
ENDROOT
BRANCH  11  13
HETATM   13  N   UNL     1      -8.687  14.875  68.290  1.00  0.00    -0.160 N  
HETATM   14  C   UNL     1      -8.089  15.818  69.139  1.00  0.00    -0.237 C  
HETATM   15  H   UNL     1      -9.420  14.344  68.761  1.00  0.00     0.000 HD 
HETATM   16  O   UNL     1      -8.442  15.820  70.318  1.00  0.00     0.578 OA 
BRANCH  14  17
HETATM   17  C   UNL     1      -7.179  16.934  68.650  1.00  0.00    -0.215 C  
BRANCH  17  18
HETATM   18  C   UNL     1      -7.650  18.325  68.566  1.00  0.00    -0.300 A  
HETATM   19  N   UNL     1      -8.926  18.612  68.093  1.00  0.00    -0.302 NA 
HETATM   20  C   UNL     1      -6.824  19.443  68.637  1.00  0.00    -0.305 A  
HETATM   21  N   UNL     1     -10.000  20.270  66.875  1.00  0.00    -0.452 NA 
HETATM   22  H2  UNL     1      -9.967  21.218  66.502  1.00  0.00     0.000 HD 
HETATM   23  S   UNL     1      -7.609  20.806  67.951  1.00  0.00     0.051 SA 
HETATM   24  H1  UNL     1     -10.813  19.688  66.675  1.00  0.00     0.000 HD 
HETATM   25  C   UNL     1      -8.976  19.827  67.613  1.00  0.00    -0.329 A  
ENDBRANCH  17  18
BRANCH  17  26
HETATM   26  N   UNL     1      -6.038  16.799  68.033  1.00  0.00    -0.128 NA 
HETATM   27  H   UNL     1      -5.506  15.945  68.210  1.00  0.00     0.000 HD 
BRANCH  26  28
HETATM   28  O   UNL     1      -5.485  17.730  67.146  1.00  0.00    -0.130 OA 
HETATM   29  C   UNL     1      -5.592  17.529  65.754  1.00  0.00     0.028 C  
ENDBRANCH  26  28
ENDBRANCH  17  26
ENDBRANCH  14  17
ENDBRANCH  11  13
TORSDOF 5
ENDMDL
MODEL      207
REMARK 921   NORMALIZED FREE ENERGY PREDICTED BY IDOCK:   -4.30 KCAL/MOL
REMARK 922        TOTAL FREE ENERGY PREDICTED BY IDOCK:   -6.32 KCAL/MOL
REMARK 923 INTER-LIGAND FREE ENERGY PREDICTED BY IDOCK:   -5.47 KCAL/MOL
REMARK 924 INTRA-LIGAND FREE ENERGY PREDICTED BY IDOCK:   -0.86 KCAL/MOL
REMARK 927      BINDING AFFINITY PREDICTED BY RF-SCORE:    0.00 PKD
ROOT
HETATM    1  CE  UNL     1     -10.718  11.356  66.589  1.00  0.00    -0.269 C  
HETATM    2  SD  UNL     1     -11.884  12.643  66.308  1.00  0.00    -0.375 SA 
HETATM    3  CG  UNL     1     -10.878  14.153  66.452  1.00  0.00    -0.304 C  
HETATM    4  CB  UNL     1      -9.422  13.983  66.706  1.00  0.00    -0.292 C  
HETATM    5  CA  UNL     1      -8.760  12.857  67.017  1.00  0.00    -0.195 C  
HETATM    6  N   UNL     1      -9.441  11.679  67.130  1.00  0.00    -0.175 N  
HETATM    7  C   UNL     1      -7.306  13.009  67.346  1.00  0.00    -0.116 C  
HETATM    8  C   UNL     1      -9.215  10.470  67.717  1.00  0.00    -0.145 C  
HETATM    9  O   UNL     1      -6.624  11.937  67.717  1.00  0.00    -0.069 OA 
HETATM   10  OXT UNL     1      -6.729  14.096  67.266  1.00  0.00    -0.250 OA 
HETATM   11  CA  UNL     1     -10.752  10.177  67.669  1.00  0.00    -0.285 C  
HETATM   12  O   UNL     1      -8.236  10.019  68.215  1.00  0.00    -0.103 OA 
ENDROOT
BRANCH  11  13
HETATM   13  N   UNL     1     -11.315  10.079  69.069  1.00  0.00    -0.450 N  
HETATM   14  C   UNL     1     -11.311   9.116  70.089  1.00  0.00    -0.142 C  
HETATM   15  H   UNL     1     -11.824  10.921  69.338  1.00  0.00     0.000 HD 
HETATM   16  O   UNL     1     -11.973   9.358  71.098  1.00  0.00    -0.300 OA 
BRANCH  14  17
HETATM   17  C   UNL     1     -10.405   7.894  70.090  1.00  0.00    -0.215 C  
BRANCH  17  18
HETATM   18  C   UNL     1      -9.274   7.779  71.024  1.00  0.00    -0.151 A  
HETATM   19  N   UNL     1      -9.494   7.701  72.395  1.00  0.00    -0.155 NA 
HETATM   20  C   UNL     1      -7.948   8.041  70.693  1.00  0.00    -0.096 A  
HETATM   21  N   UNL     1      -8.475   8.380  74.365  1.00  0.00    -0.360 NA 
HETATM   22  H2  UNL     1      -7.632   8.733  74.818  1.00  0.00     0.000 HD 
HETATM   23  S   UNL     1      -7.032   8.351  72.111  1.00  0.00    -0.078 SA 
HETATM   24  H1  UNL     1      -9.315   8.240  74.926  1.00  0.00     0.000 HD 
HETATM   25  C   UNL     1      -8.445   8.116  73.054  1.00  0.00    -0.209 A  
ENDBRANCH  17  18
BRANCH  17  26
HETATM   26  N   UNL     1     -10.333   6.973  69.169  1.00  0.00    -0.194 NA 
HETATM   27  H   UNL     1      -9.535   6.337  69.202  1.00  0.00     0.000 HD 
BRANCH  26  28
HETATM   28  O   UNL     1     -11.263   6.786  68.140  1.00  0.00    -0.182 OA 
HETATM   29  C   UNL     1     -10.835   6.328  66.876  1.00  0.00    -0.354 C  
ENDBRANCH  26  28
ENDBRANCH  17  26
ENDBRANCH  14  17
ENDBRANCH  11  13
TORSDOF 5
ENDMDL
MODEL      208
REMARK 921   NORMALIZED FREE ENERGY PREDICTED BY IDOCK:   -4.30 KCAL/MOL
REMARK 922        TOTAL FREE ENERGY PREDICTED BY IDOCK:   -6.32 KCAL/MOL
REMARK 923 INTER-LIGAND FREE ENERGY PREDICTED BY IDOCK:   -5.48 KCAL/MOL
REMARK 924 INTRA-LIGAND FREE ENERGY PREDICTED BY IDOCK:   -0.84 KCAL/MOL
REMARK 927      BINDING AFFINITY PREDICTED BY RF-SCORE:    0.00 PKD
ROOT
HETATM    1  CE  UNL     1     -10.304   5.621  67.234  1.00  0.00    -0.241 C  
HETATM    2  SD  UNL     1      -9.344   5.444  65.770  1.00  0.00    -0.070 SA 
HETATM    3  CG  UNL     1      -8.252   4.040  66.156  1.00  0.00    -0.105 C  
HETATM    4  CB  UNL     1      -8.425   3.384  67.480  1.00  0.00    -0.107 C  
HETATM    5  CA  UNL     1      -9.172   3.793  68.518  1.00  0.00    -0.156 C  
HETATM    6  N   UNL     1      -9.895   4.948  68.420  1.00  0.00    -0.150 N  
HETATM    7  C   UNL     1      -9.053   2.995  69.780  1.00  0.00    -0.131 C  
HETATM    8  C   UNL     1     -10.467   5.822  69.295  1.00  0.00    -0.287 C  
HETATM    9  O   UNL     1      -9.724   3.393  70.848  1.00  0.00    -0.171 OA 
HETATM   10  OXT UNL     1      -8.363   1.974  69.843  1.00  0.00    -0.044 OA 
HETATM   11  CA  UNL     1     -10.502   6.905  68.166  1.00  0.00    -0.204 C  
HETATM   12  O   UNL     1     -10.629   5.752  70.469  1.00  0.00    -0.250 OA 
ENDROOT
BRANCH  11  13
HETATM   13  N   UNL     1      -9.602   8.068  68.521  1.00  0.00    -0.153 N  
HETATM   14  C   UNL     1      -9.652   9.136  69.430  1.00  0.00    -0.165 C  
HETATM   15  H   UNL     1      -8.749   8.079  67.962  1.00  0.00     0.000 HD 
HETATM   16  O   UNL     1      -8.747   9.968  69.374  1.00  0.00    -0.160 OA 
BRANCH  14  17
HETATM   17  C   UNL     1     -10.647   9.220  70.576  1.00  0.00    -0.252 C  
BRANCH  17  18
HETATM   18  C   UNL     1     -10.311   8.730  71.922  1.00  0.00    -0.344 A  
HETATM   19  N   UNL     1      -8.989   8.706  72.355  1.00  0.00    -0.373 NA 
HETATM   20  C   UNL     1     -11.169   7.990  72.730  1.00  0.00    -0.382 A  
HETATM   21  N   UNL     1      -7.622   7.405  73.705  1.00  0.00    -0.100 NA 
HETATM   22  H2  UNL     1      -7.561   6.677  74.417  1.00  0.00     0.000 HD 
HETATM   23  S   UNL     1     -10.276   7.140  73.923  1.00  0.00    -0.234 SA 
HETATM   24  H1  UNL     1      -6.761   7.802  73.329  1.00  0.00     0.000 HD 
HETATM   25  C   UNL     1      -8.829   7.808  73.292  1.00  0.00    -0.221 A  
ENDBRANCH  17  18
BRANCH  17  26
HETATM   26  N   UNL     1     -11.926   9.468  70.486  1.00  0.00    -0.437 NA 
HETATM   27  H   UNL     1     -12.547   8.674  70.327  1.00  0.00     0.000 HD 
BRANCH  26  28
HETATM   28  O   UNL     1     -12.511  10.734  70.590  1.00  0.00    -0.317 OA 
HETATM   29  C   UNL     1     -13.155  11.117  71.786  1.00  0.00    -0.431 C  
ENDBRANCH  26  28
ENDBRANCH  17  26
ENDBRANCH  14  17
ENDBRANCH  11  13
TORSDOF 5
ENDMDL
MODEL      209
REMARK 921   NORMALIZED FREE ENERGY PREDICTED BY IDOCK:   -4.30 KCAL/MOL
REMARK 922        TOTAL FREE ENERGY PREDICTED BY IDOCK:   -6.32 KCAL/MOL
REMARK 923 INTER-LIGAND FREE ENERGY PREDICTED BY IDOCK:   -5.27 KCAL/MOL
REMARK 924 INTRA-LIGAND FREE ENERGY PREDICTED BY IDOCK:   -1.05 KCAL/MOL
REMARK 927      BINDING AFFINITY PREDICTED BY RF-SCORE:    0.00 PKD
ROOT
HETATM    1  CE  UNL     1      -9.480   9.073  71.078  1.00  0.00    -0.274 C  
HETATM    2  SD  UNL     1      -8.276   8.005  70.367  1.00  0.00    -0.121 SA 
HETATM    3  CG  UNL     1      -8.505   8.250  68.578  1.00  0.00    -0.126 C  
HETATM    4  CB  UNL     1      -9.531   9.239  68.150  1.00  0.00    -0.150 C  
HETATM    5  CA  UNL     1     -10.446   9.867  68.908  1.00  0.00    -0.211 C  
HETATM    6  N   UNL     1     -10.502   9.618  70.249  1.00  0.00    -0.262 N  
HETATM    7  C   UNL     1     -11.441  10.719  68.180  1.00  0.00    -0.271 C  
HETATM    8  C   UNL     1     -11.428   9.776  71.236  1.00  0.00    -0.385 C  
HETATM    9  O   UNL     1     -12.398  11.310  68.876  1.00  0.00    -0.485 OA 
HETATM   10  OXT UNL     1     -11.380  10.896  66.961  1.00  0.00    -0.364 OA 
HETATM   11  CA  UNL     1     -10.654   8.733  72.109  1.00  0.00    -0.316 C  
HETATM   12  O   UNL     1     -12.472  10.340  71.238  1.00  0.00    -0.339 OA 
ENDROOT
BRANCH  11  13
HETATM   13  N   UNL     1     -11.500   7.500  72.335  1.00  0.00    -0.300 N  
HETATM   14  C   UNL     1     -11.253   6.130  72.511  1.00  0.00    -0.287 C  
HETATM   15  H   UNL     1     -12.496   7.718  72.367  1.00  0.00     0.000 HD 
HETATM   16  O   UNL     1     -12.230   5.385  72.583  1.00  0.00    -0.115 OA 
BRANCH  14  17
HETATM   17  C   UNL     1      -9.875   5.552  72.793  1.00  0.00    -0.164 C  
BRANCH  17  18
HETATM   18  C   UNL     1      -9.376   4.372  72.071  1.00  0.00    -0.132 A  
HETATM   19  N   UNL     1      -9.189   4.414  70.693  1.00  0.00    -0.120 NA 
HETATM   20  C   UNL     1      -9.345   3.082  72.593  1.00  0.00    -0.101 A  
HETATM   21  N   UNL     1      -9.357   2.990  68.869  1.00  0.00    -0.166 NA 
HETATM   22  H2  UNL     1      -9.436   2.030  68.534  1.00  0.00     0.000 HD 
HETATM   23  S   UNL     1      -9.249   1.931  71.324  1.00  0.00    -0.115 SA 
HETATM   24  H1  UNL     1      -9.360   3.752  68.191  1.00  0.00     0.000 HD 
HETATM   25  C   UNL     1      -9.254   3.212  70.184  1.00  0.00    -0.149 A  
ENDBRANCH  17  18
BRANCH  17  26
HETATM   26  N   UNL     1      -9.107   5.823  73.813  1.00  0.00    -0.127 NA 
HETATM   27  H   UNL     1      -9.130   5.178  74.603  1.00  0.00     0.000 HD 
BRANCH  26  28
HETATM   28  O   UNL     1      -8.253   6.928  73.909  1.00  0.00    -0.120 OA 
HETATM   29  C   UNL     1      -6.859   6.755  73.780  1.00  0.00    -0.072 C  
ENDBRANCH  26  28
ENDBRANCH  17  26
ENDBRANCH  14  17
ENDBRANCH  11  13
TORSDOF 5
ENDMDL
MODEL      210
REMARK 921   NORMALIZED FREE ENERGY PREDICTED BY IDOCK:   -4.29 KCAL/MOL
REMARK 922        TOTAL FREE ENERGY PREDICTED BY IDOCK:   -6.31 KCAL/MOL
REMARK 923 INTER-LIGAND FREE ENERGY PREDICTED BY IDOCK:   -5.24 KCAL/MOL
REMARK 924 INTRA-LIGAND FREE ENERGY PREDICTED BY IDOCK:   -1.07 KCAL/MOL
REMARK 927      BINDING AFFINITY PREDICTED BY RF-SCORE:    0.00 PKD
ROOT
HETATM    1  CE  UNL     1      -8.966  15.342  69.720  1.00  0.00    -0.031 C  
HETATM    2  SD  UNL     1      -7.753  14.265  69.041  1.00  0.00    -0.011 SA 
HETATM    3  CG  UNL     1      -7.679  14.769  67.294  1.00  0.00    -0.184 C  
HETATM    4  CB  UNL     1      -8.544  15.904  66.873  1.00  0.00    -0.274 C  
HETATM    5  CA  UNL     1      -9.515  16.513  67.574  1.00  0.00    -0.224 C  
HETATM    6  N   UNL     1      -9.800  16.092  68.842  1.00  0.00    -0.227 N  
HETATM    7  C   UNL     1     -10.313  17.550  66.845  1.00  0.00    -0.315 C  
HETATM    8  C   UNL     1     -10.855  16.208  69.698  1.00  0.00    -0.338 C  
HETATM    9  O   UNL     1     -11.319  18.134  67.475  1.00  0.00     0.098 OA 
HETATM   10  OXT UNL     1     -10.049  17.881  65.687  1.00  0.00    -0.567 OA 
HETATM   11  CA  UNL     1     -10.311  14.985  70.509  1.00  0.00     0.178 C  
HETATM   12  O   UNL     1     -11.839  16.868  69.633  1.00  0.00     0.664 OA 
ENDROOT
BRANCH  11  13
HETATM   13  N   UNL     1     -11.276  13.824  70.426  1.00  0.00    -0.401 N  
HETATM   14  C   UNL     1     -11.707  12.945  69.421  1.00  0.00    -0.321 C  
HETATM   15  H   UNL     1     -11.724  13.633  71.323  1.00  0.00     0.000 HD 
HETATM   16  O   UNL     1     -12.602  12.152  69.711  1.00  0.00     0.046 OA 
BRANCH  14  17
HETATM   17  C   UNL     1     -11.016  12.803  68.074  1.00  0.00    -0.239 C  
BRANCH  17  18
HETATM   18  C   UNL     1     -11.706  13.138  66.819  1.00  0.00    -0.385 A  
HETATM   19  N   UNL     1     -11.809  12.200  65.797  1.00  0.00    -0.513 NA 
HETATM   20  C   UNL     1     -12.025  14.431  66.415  1.00  0.00    -0.385 A  
HETATM   21  N   UNL     1     -11.839  12.147  63.478  1.00  0.00    -0.601 NA 
HETATM   22  H2  UNL     1     -11.939  12.672  62.608  1.00  0.00     0.000 HD 
HETATM   23  S   UNL     1     -12.286  14.475  64.719  1.00  0.00    -0.313 SA 
HETATM   24  H1  UNL     1     -11.648  11.147  63.432  1.00  0.00     0.000 HD 
HETATM   25  C   UNL     1     -11.964  12.793  64.643  1.00  0.00    -0.396 A  
ENDBRANCH  17  18
BRANCH  17  26
HETATM   26  N   UNL     1      -9.904  12.164  67.829  1.00  0.00    -0.194 NA 
HETATM   27  H   UNL     1      -9.283  12.558  67.121  1.00  0.00     0.000 HD 
BRANCH  26  28
HETATM   28  O   UNL     1      -9.497  10.982  68.458  1.00  0.00    -0.174 OA 
HETATM   29  C   UNL     1      -9.204   9.838  67.687  1.00  0.00    -0.130 C  
ENDBRANCH  26  28
ENDBRANCH  17  26
ENDBRANCH  14  17
ENDBRANCH  11  13
TORSDOF 5
ENDMDL
MODEL      211
REMARK 921   NORMALIZED FREE ENERGY PREDICTED BY IDOCK:   -4.28 KCAL/MOL
REMARK 922        TOTAL FREE ENERGY PREDICTED BY IDOCK:   -6.29 KCAL/MOL
REMARK 923 INTER-LIGAND FREE ENERGY PREDICTED BY IDOCK:   -5.42 KCAL/MOL
REMARK 924 INTRA-LIGAND FREE ENERGY PREDICTED BY IDOCK:   -0.88 KCAL/MOL
REMARK 927      BINDING AFFINITY PREDICTED BY RF-SCORE:    0.00 PKD
ROOT
HETATM    1  CE  UNL     1      -9.747  11.202  68.088  1.00  0.00    -0.181 C  
HETATM    2  SD  UNL     1      -9.335   9.955  66.917  1.00  0.00    -0.156 SA 
HETATM    3  CG  UNL     1     -10.255  10.460  65.430  1.00  0.00    -0.259 C  
HETATM    4  CB  UNL     1     -11.041  11.721  65.509  1.00  0.00    -0.336 C  
HETATM    5  CA  UNL     1     -11.309  12.466  66.594  1.00  0.00    -0.339 C  
HETATM    6  N   UNL     1     -10.832  12.082  67.814  1.00  0.00    -0.207 N  
HETATM    7  C   UNL     1     -12.240  13.623  66.393  1.00  0.00    -0.423 C  
HETATM    8  C   UNL     1     -11.139  12.353  69.114  1.00  0.00    -0.203 C  
HETATM    9  O   UNL     1     -12.581  14.351  67.443  1.00  0.00    -0.018 OA 
HETATM   10  OXT UNL     1     -12.679  13.921  65.280  1.00  0.00    -0.597 OA 
HETATM   11  CA  UNL     1     -10.385  11.051  69.547  1.00  0.00    -0.040 C  
HETATM   12  O   UNL     1     -11.870  13.159  69.588  1.00  0.00    -0.304 OA 
ENDROOT
BRANCH  11  13
HETATM   13  N   UNL     1     -11.351  10.056  70.150  1.00  0.00    -0.274 N  
HETATM   14  C   UNL     1     -11.335   8.680  70.425  1.00  0.00    -0.187 C  
HETATM   15  H   UNL     1     -12.230  10.493  70.426  1.00  0.00     0.000 HD 
HETATM   16  O   UNL     1     -12.373   8.179  70.855  1.00  0.00    -0.200 OA 
BRANCH  14  17
HETATM   17  C   UNL     1     -10.076   7.829  70.390  1.00  0.00    -0.194 C  
BRANCH  17  18
HETATM   18  C   UNL     1      -9.858   6.826  69.336  1.00  0.00    -0.156 A  
HETATM   19  N   UNL     1      -8.691   6.839  68.579  1.00  0.00    -0.125 NA 
HETATM   20  C   UNL     1     -10.853   6.014  68.801  1.00  0.00    -0.322 A  
HETATM   21  N   UNL     1      -8.015   6.356  66.412  1.00  0.00    -0.107 NA 
HETATM   22  H2  UNL     1      -8.239   5.911  65.523  1.00  0.00     0.000 HD 
HETATM   23  S   UNL     1     -10.369   5.413  67.268  1.00  0.00    -0.206 SA 
HETATM   24  H1  UNL     1      -7.134   6.861  66.504  1.00  0.00     0.000 HD 
HETATM   25  C   UNL     1      -8.887   6.262  67.423  1.00  0.00    -0.107 A  
ENDBRANCH  17  18
BRANCH  17  26
HETATM   26  N   UNL     1      -9.205   7.681  71.350  1.00  0.00    -0.136 NA 
HETATM   27  H   UNL     1      -8.508   8.417  71.470  1.00  0.00     0.000 HD 
BRANCH  26  28
HETATM   28  O   UNL     1      -9.150   6.593  72.229  1.00  0.00    -0.138 OA 
HETATM   29  C   UNL     1     -10.236   6.326  73.090  1.00  0.00    -0.202 C  
ENDBRANCH  26  28
ENDBRANCH  17  26
ENDBRANCH  14  17
ENDBRANCH  11  13
TORSDOF 5
ENDMDL
MODEL      212
REMARK 921   NORMALIZED FREE ENERGY PREDICTED BY IDOCK:   -4.23 KCAL/MOL
REMARK 922        TOTAL FREE ENERGY PREDICTED BY IDOCK:   -6.23 KCAL/MOL
REMARK 923 INTER-LIGAND FREE ENERGY PREDICTED BY IDOCK:   -5.57 KCAL/MOL
REMARK 924 INTRA-LIGAND FREE ENERGY PREDICTED BY IDOCK:   -0.67 KCAL/MOL
REMARK 927      BINDING AFFINITY PREDICTED BY RF-SCORE:    0.00 PKD
ROOT
HETATM    1  CE  UNL     1      -9.573  10.040  65.192  1.00  0.00    -0.291 C  
HETATM    2  SD  UNL     1      -8.245   9.648  64.107  1.00  0.00    -0.172 SA 
HETATM    3  CG  UNL     1      -7.818   7.940  64.571  1.00  0.00    -0.134 C  
HETATM    4  CB  UNL     1      -8.637   7.296  65.633  1.00  0.00    -0.123 C  
HETATM    5  CA  UNL     1      -9.557   7.864  66.431  1.00  0.00    -0.181 C  
HETATM    6  N   UNL     1      -9.831   9.196  66.309  1.00  0.00    -0.273 N  
HETATM    7  C   UNL     1     -10.136   6.993  67.504  1.00  0.00    -0.185 C  
HETATM    8  C   UNL     1     -10.403  10.154  67.093  1.00  0.00    -0.238 C  
HETATM    9  O   UNL     1     -11.002   7.523  68.352  1.00  0.00    -0.044 OA 
HETATM   10  OXT UNL     1      -9.840   5.800  67.606  1.00  0.00    -0.114 OA 
HETATM   11  CA  UNL     1      -9.714  11.256  66.221  1.00  0.00    -0.216 C  
HETATM   12  O   UNL     1     -10.990  10.067  68.121  1.00  0.00    -0.255 OA 
ENDROOT
BRANCH  11  13
HETATM   13  N   UNL     1      -8.710  12.031  67.044  1.00  0.00    -0.182 N  
HETATM   14  C   UNL     1      -8.557  13.367  67.446  1.00  0.00    -0.204 C  
HETATM   15  H   UNL     1      -7.958  11.436  67.392  1.00  0.00     0.000 HD 
HETATM   16  O   UNL     1      -7.531  13.657  68.060  1.00  0.00    -0.103 OA 
BRANCH  14  17
HETATM   17  C   UNL     1      -9.653  14.414  67.323  1.00  0.00    -0.227 C  
BRANCH  17  18
HETATM   18  C   UNL     1      -9.337  15.849  67.251  1.00  0.00    -0.211 A  
HETATM   19  N   UNL     1      -9.605  16.686  68.329  1.00  0.00    -0.227 NA 
HETATM   20  C   UNL     1      -9.058  16.537  66.074  1.00  0.00    -0.255 A  
HETATM   21  N   UNL     1     -10.258  18.880  68.710  1.00  0.00    -0.475 NA 
HETATM   22  H2  UNL     1     -10.379  19.818  68.329  1.00  0.00     0.000 HD 
HETATM   23  S   UNL     1      -9.301  18.221  66.300  1.00  0.00    -0.148 SA 
HETATM   24  H1  UNL     1     -10.526  18.701  69.678  1.00  0.00     0.000 HD 
HETATM   25  C   UNL     1      -9.752  17.921  67.926  1.00  0.00    -0.288 A  
ENDBRANCH  17  18
BRANCH  17  26
HETATM   26  N   UNL     1     -10.931  14.236  67.519  1.00  0.00    -0.283 NA 
HETATM   27  H   UNL     1     -11.233  14.000  68.465  1.00  0.00     0.000 HD 
BRANCH  26  28
HETATM   28  O   UNL     1     -11.920  14.342  66.534  1.00  0.00    -0.408 OA 
HETATM   29  C   UNL     1     -11.655  13.906  65.219  1.00  0.00    -0.327 C  
ENDBRANCH  26  28
ENDBRANCH  17  26
ENDBRANCH  14  17
ENDBRANCH  11  13
TORSDOF 5
ENDMDL
MODEL      213
REMARK 921   NORMALIZED FREE ENERGY PREDICTED BY IDOCK:   -4.23 KCAL/MOL
REMARK 922        TOTAL FREE ENERGY PREDICTED BY IDOCK:   -6.23 KCAL/MOL
REMARK 923 INTER-LIGAND FREE ENERGY PREDICTED BY IDOCK:   -6.35 KCAL/MOL
REMARK 924 INTRA-LIGAND FREE ENERGY PREDICTED BY IDOCK:    0.13 KCAL/MOL
REMARK 927      BINDING AFFINITY PREDICTED BY RF-SCORE:    0.00 PKD
ROOT
HETATM    1  CE  UNL     1     -10.758  12.078  67.274  1.00  0.00    -0.232 C  
HETATM    2  SD  UNL     1     -11.456  13.078  68.542  1.00  0.00    -0.328 SA 
HETATM    3  CG  UNL     1     -12.462  14.280  67.618  1.00  0.00     0.189 C  
HETATM    4  CB  UNL     1     -12.506  14.140  66.138  1.00  0.00    -0.426 C  
HETATM    5  CA  UNL     1     -11.761  13.340  65.357  1.00  0.00    -0.343 C  
HETATM    6  N   UNL     1     -10.825  12.522  65.923  1.00  0.00    -0.263 N  
HETATM    7  C   UNL     1     -11.935  13.504  63.878  1.00  0.00    -0.440 C  
HETATM    8  C   UNL     1      -9.716  11.859  65.490  1.00  0.00    -0.215 C  
HETATM    9  O   UNL     1     -11.180  12.780  63.067  1.00  0.00    -0.142 OA 
HETATM   10  OXT UNL     1     -12.768  14.278  63.401  1.00  0.00    -0.733 OA 
HETATM   11  CA  UNL     1      -9.222  11.752  66.972  1.00  0.00    -0.187 C  
HETATM   12  O   UNL     1      -9.295  11.681  64.395  1.00  0.00    -0.088 OA 
ENDROOT
BRANCH  11  13
HETATM   13  N   UNL     1      -7.945  12.540  67.162  1.00  0.00    -0.285 N  
HETATM   14  C   UNL     1      -7.620  13.853  67.535  1.00  0.00    -0.176 C  
HETATM   15  H   UNL     1      -7.115  11.978  66.972  1.00  0.00     0.000 HD 
HETATM   16  O   UNL     1      -6.433  14.174  67.494  1.00  0.00    -0.264 OA 
BRANCH  14  17
HETATM   17  C   UNL     1      -8.617  14.825  68.147  1.00  0.00    -0.159 C  
BRANCH  17  18
HETATM   18  C   UNL     1      -8.824  16.168  67.582  1.00  0.00    -0.186 A  
HETATM   19  N   UNL     1      -8.050  17.241  68.010  1.00  0.00    -0.214 NA 
HETATM   20  C   UNL     1      -9.944  16.552  66.851  1.00  0.00    -0.271 A  
HETATM   21  N   UNL     1      -8.279  19.524  68.359  1.00  0.00    -0.342 NA 
HETATM   22  H2  UNL     1      -8.832  20.365  68.197  1.00  0.00     0.000 HD 
HETATM   23  S   UNL     1     -10.098  18.261  66.856  1.00  0.00    -0.387 SA 
HETATM   24  H1  UNL     1      -7.436  19.588  68.929  1.00  0.00     0.000 HD 
HETATM   25  C   UNL     1      -8.681  18.369  67.816  1.00  0.00    -0.267 A  
ENDBRANCH  17  18
BRANCH  17  26
HETATM   26  N   UNL     1      -9.188  14.728  69.316  1.00  0.00    -0.390 NA 
HETATM   27  H   UNL     1      -9.235  13.800  69.740  1.00  0.00     0.000 HD 
BRANCH  26  28
HETATM   28  O   UNL     1      -9.740  15.793  70.035  1.00  0.00    -0.192 OA 
HETATM   29  C   UNL     1     -10.768  15.555  70.971  1.00  0.00    -0.014 C  
ENDBRANCH  26  28
ENDBRANCH  17  26
ENDBRANCH  14  17
ENDBRANCH  11  13
TORSDOF 5
ENDMDL
MODEL      214
REMARK 921   NORMALIZED FREE ENERGY PREDICTED BY IDOCK:   -4.22 KCAL/MOL
REMARK 922        TOTAL FREE ENERGY PREDICTED BY IDOCK:   -6.22 KCAL/MOL
REMARK 923 INTER-LIGAND FREE ENERGY PREDICTED BY IDOCK:   -5.28 KCAL/MOL
REMARK 924 INTRA-LIGAND FREE ENERGY PREDICTED BY IDOCK:   -0.93 KCAL/MOL
REMARK 927      BINDING AFFINITY PREDICTED BY RF-SCORE:    0.00 PKD
ROOT
HETATM    1  CE  UNL     1      -9.897   6.788  70.032  1.00  0.00    -0.169 C  
HETATM    2  SD  UNL     1      -8.240   7.344  69.832  1.00  0.00    -0.134 SA 
HETATM    3  CG  UNL     1      -7.418   6.754  71.345  1.00  0.00    -0.087 C  
HETATM    4  CB  UNL     1      -8.237   5.968  72.305  1.00  0.00    -0.110 C  
HETATM    5  CA  UNL     1      -9.566   5.769  72.295  1.00  0.00    -0.147 C  
HETATM    6  N   UNL     1     -10.327   6.327  71.308  1.00  0.00    -0.207 N  
HETATM    7  C   UNL     1     -10.138   5.035  73.469  1.00  0.00    -0.166 C  
HETATM    8  C   UNL     1     -11.646   6.626  71.141  1.00  0.00    -0.332 C  
HETATM    9  O   UNL     1     -11.449   4.866  73.534  1.00  0.00    -0.311 OA 
HETATM   10  OXT UNL     1      -9.422   4.573  74.361  1.00  0.00    -0.115 OA 
HETATM   11  CA  UNL     1     -11.258   7.627  70.002  1.00  0.00    -0.134 C  
HETATM   12  O   UNL     1     -12.596   6.344  71.795  1.00  0.00    -0.286 OA 
ENDROOT
BRANCH  11  13
HETATM   13  N   UNL     1     -11.603   9.044  70.402  1.00  0.00    -0.429 N  
HETATM   14  C   UNL     1     -11.350  10.324  69.886  1.00  0.00    -0.290 C  
HETATM   15  H   UNL     1     -12.156   9.077  71.259  1.00  0.00     0.000 HD 
HETATM   16  O   UNL     1     -11.728  11.286  70.553  1.00  0.00    -0.329 OA 
BRANCH  14  17
HETATM   17  C   UNL     1     -10.807  10.576  68.488  1.00  0.00    -0.234 C  
BRANCH  17  18
HETATM   18  C   UNL     1      -9.780  11.600  68.238  1.00  0.00    -0.197 A  
HETATM   19  N   UNL     1      -8.468  11.401  68.654  1.00  0.00    -0.152 NA 
HETATM   20  C   UNL     1     -10.051  12.916  67.875  1.00  0.00    -0.232 A  
HETATM   21  N   UNL     1      -6.684  12.654  69.448  1.00  0.00    -0.274 NA 
HETATM   22  H2  UNL     1      -6.275  13.580  69.576  1.00  0.00     0.000 HD 
HETATM   23  S   UNL     1      -8.700  13.916  68.222  1.00  0.00    -0.179 SA 
HETATM   24  H1  UNL     1      -6.184  11.840  69.803  1.00  0.00     0.000 HD 
HETATM   25  C   UNL     1      -7.861  12.546  68.820  1.00  0.00     0.031 A  
ENDBRANCH  17  18
BRANCH  17  26
HETATM   26  N   UNL     1     -11.314  10.152  67.363  1.00  0.00    -0.436 NA 
HETATM   27  H   UNL     1     -12.322  10.251  67.236  1.00  0.00     0.000 HD 
BRANCH  26  28
HETATM   28  O   UNL     1     -10.586   9.571  66.318  1.00  0.00    -0.117 OA 
HETATM   29  C   UNL     1      -9.996   8.301  66.490  1.00  0.00    -0.250 C  
ENDBRANCH  26  28
ENDBRANCH  17  26
ENDBRANCH  14  17
ENDBRANCH  11  13
TORSDOF 5
ENDMDL
MODEL      215
REMARK 921   NORMALIZED FREE ENERGY PREDICTED BY IDOCK:   -4.22 KCAL/MOL
REMARK 922        TOTAL FREE ENERGY PREDICTED BY IDOCK:   -6.21 KCAL/MOL
REMARK 923 INTER-LIGAND FREE ENERGY PREDICTED BY IDOCK:   -5.38 KCAL/MOL
REMARK 924 INTRA-LIGAND FREE ENERGY PREDICTED BY IDOCK:   -0.83 KCAL/MOL
REMARK 927      BINDING AFFINITY PREDICTED BY RF-SCORE:    0.00 PKD
ROOT
HETATM    1  CE  UNL     1      -8.920   7.471  69.866  1.00  0.00    -0.141 C  
HETATM    2  SD  UNL     1      -9.485   7.042  71.476  1.00  0.00    -0.153 SA 
HETATM    3  CG  UNL     1     -10.037   5.319  71.278  1.00  0.00    -0.213 C  
HETATM    4  CB  UNL     1      -9.864   4.696  69.938  1.00  0.00    -0.296 C  
HETATM    5  CA  UNL     1      -9.506   5.288  68.787  1.00  0.00    -0.128 C  
HETATM    6  N   UNL     1      -9.250   6.629  68.766  1.00  0.00    -0.130 N  
HETATM    7  C   UNL     1      -9.538   4.430  67.559  1.00  0.00    -0.172 C  
HETATM    8  C   UNL     1      -9.194   7.600  67.810  1.00  0.00    -0.136 C  
HETATM    9  O   UNL     1      -9.251   4.982  66.392  1.00  0.00    -0.130 OA 
HETATM   10  OXT UNL     1      -9.807   3.227  67.611  1.00  0.00    -0.052 OA 
HETATM   11  CA  UNL     1      -9.366   8.684  68.925  1.00  0.00    -0.145 C  
HETATM   12  O   UNL     1      -9.219   7.526  66.626  1.00  0.00    -0.148 OA 
ENDROOT
BRANCH  11  13
HETATM   13  N   UNL     1     -10.674   9.422  68.748  1.00  0.00    -0.339 N  
HETATM   14  C   UNL     1     -11.079  10.617  68.133  1.00  0.00    -0.285 C  
HETATM   15  H   UNL     1     -11.455   8.930  69.182  1.00  0.00     0.000 HD 
HETATM   16  O   UNL     1     -12.255  10.953  68.272  1.00  0.00    -0.526 OA 
BRANCH  14  17
HETATM   17  C   UNL     1     -10.204  11.409  67.174  1.00  0.00    -0.202 C  
BRANCH  17  18
HETATM   18  C   UNL     1     -10.063  12.868  67.292  1.00  0.00    -0.231 A  
HETATM   19  N   UNL     1      -9.461  13.432  68.412  1.00  0.00    -0.204 NA 
HETATM   20  C   UNL     1     -10.751  13.793  66.512  1.00  0.00    -0.284 A  
HETATM   21  N   UNL     1      -9.650  15.341  69.717  1.00  0.00    -0.447 NA 
HETATM   22  H2  UNL     1     -10.026  16.285  69.807  1.00  0.00     0.000 HD 
HETATM   23  S   UNL     1     -10.771  15.324  67.287  1.00  0.00    -0.316 SA 
HETATM   24  H1  UNL     1      -9.116  14.946  70.490  1.00  0.00     0.000 HD 
HETATM   25  C   UNL     1      -9.874  14.659  68.587  1.00  0.00    -0.224 A  
ENDBRANCH  17  18
BRANCH  17  26
HETATM   26  N   UNL     1      -9.708  10.991  66.041  1.00  0.00    -0.215 NA 
HETATM   27  H   UNL     1     -10.327  10.466  65.423  1.00  0.00     0.000 HD 
BRANCH  26  28
HETATM   28  O   UNL     1      -8.395  11.207  65.608  1.00  0.00    -0.118 OA 
HETATM   29  C   UNL     1      -7.561  10.109  65.310  1.00  0.00    -0.144 C  
ENDBRANCH  26  28
ENDBRANCH  17  26
ENDBRANCH  14  17
ENDBRANCH  11  13
TORSDOF 5
ENDMDL
MODEL      216
REMARK 921   NORMALIZED FREE ENERGY PREDICTED BY IDOCK:   -4.20 KCAL/MOL
REMARK 922        TOTAL FREE ENERGY PREDICTED BY IDOCK:   -6.19 KCAL/MOL
REMARK 923 INTER-LIGAND FREE ENERGY PREDICTED BY IDOCK:   -5.05 KCAL/MOL
REMARK 924 INTRA-LIGAND FREE ENERGY PREDICTED BY IDOCK:   -1.13 KCAL/MOL
REMARK 927      BINDING AFFINITY PREDICTED BY RF-SCORE:    0.00 PKD
ROOT
HETATM    1  CE  UNL     1     -11.376   6.398  72.516  1.00  0.00    -0.264 C  
HETATM    2  SD  UNL     1     -11.951   7.578  71.344  1.00  0.00    -0.321 SA 
HETATM    3  CG  UNL     1     -11.336   6.926  69.760  1.00  0.00    -0.237 C  
HETATM    4  CB  UNL     1     -10.593   5.638  69.794  1.00  0.00    -0.400 C  
HETATM    5  CA  UNL     1     -10.157   4.959  70.868  1.00  0.00    -0.222 C  
HETATM    6  N   UNL     1     -10.390   5.450  72.121  1.00  0.00    -0.206 N  
HETATM    7  C   UNL     1      -9.318   3.747  70.594  1.00  0.00    -0.155 C  
HETATM    8  C   UNL     1      -9.860   5.257  73.362  1.00  0.00    -0.159 C  
HETATM    9  O   UNL     1      -8.816   3.079  71.619  1.00  0.00    -0.072 OA 
HETATM   10  OXT UNL     1      -9.100   3.351  69.447  1.00  0.00    -0.104 OA 
HETATM   11  CA  UNL     1     -10.477   6.620  73.820  1.00  0.00    -0.333 C  
HETATM   12  O   UNL     1      -9.083   4.452  73.758  1.00  0.00    -0.105 OA 
ENDROOT
BRANCH  11  13
HETATM   13  N   UNL     1      -9.384   7.608  74.161  1.00  0.00    -0.411 N  
HETATM   14  C   UNL     1      -8.122   7.929  73.640  1.00  0.00    -0.196 C  
HETATM   15  H   UNL     1      -9.624   8.182  74.969  1.00  0.00     0.000 HD 
HETATM   16  O   UNL     1      -7.452   8.759  74.254  1.00  0.00    -0.404 OA 
BRANCH  14  17
HETATM   17  C   UNL     1      -7.622   7.450  72.286  1.00  0.00    -0.088 C  
BRANCH  17  18
HETATM   18  C   UNL     1      -7.846   8.237  71.064  1.00  0.00    -0.096 A  
HETATM   19  N   UNL     1      -8.609   9.399  71.101  1.00  0.00    -0.286 NA 
HETATM   20  C   UNL     1      -7.611   7.773  69.773  1.00  0.00    -0.091 A  
HETATM   21  N   UNL     1     -10.080  10.562  69.735  1.00  0.00    -0.419 NA 
HETATM   22  H2  UNL     1     -10.458  10.694  68.797  1.00  0.00     0.000 HD 
HETATM   23  S   UNL     1      -8.492   8.709  68.636  1.00  0.00    -0.131 SA 
HETATM   24  H1  UNL     1     -10.450  11.125  70.501  1.00  0.00     0.000 HD 
HETATM   25  C   UNL     1      -9.114   9.655  69.924  1.00  0.00    -0.225 A  
ENDBRANCH  17  18
BRANCH  17  26
HETATM   26  N   UNL     1      -7.198   6.252  71.988  1.00  0.00    -0.089 NA 
HETATM   27  H   UNL     1      -7.833   5.645  71.468  1.00  0.00     0.000 HD 
BRANCH  26  28
HETATM   28  O   UNL     1      -5.942   5.733  72.324  1.00  0.00    -0.036 OA 
HETATM   29  C   UNL     1      -5.304   4.818  71.462  1.00  0.00    -0.004 C  
ENDBRANCH  26  28
ENDBRANCH  17  26
ENDBRANCH  14  17
ENDBRANCH  11  13
TORSDOF 5
ENDMDL
MODEL      217
REMARK 921   NORMALIZED FREE ENERGY PREDICTED BY IDOCK:   -4.18 KCAL/MOL
REMARK 922        TOTAL FREE ENERGY PREDICTED BY IDOCK:   -6.17 KCAL/MOL
REMARK 923 INTER-LIGAND FREE ENERGY PREDICTED BY IDOCK:   -5.18 KCAL/MOL
REMARK 924 INTRA-LIGAND FREE ENERGY PREDICTED BY IDOCK:   -0.98 KCAL/MOL
REMARK 927      BINDING AFFINITY PREDICTED BY RF-SCORE:    0.00 PKD
ROOT
HETATM    1  CE  UNL     1     -10.897   7.283  71.378  1.00  0.00    -0.230 C  
HETATM    2  SD  UNL     1     -12.206   6.400  72.155  1.00  0.00    -0.121 SA 
HETATM    3  CG  UNL     1     -11.332   5.161  73.162  1.00  0.00    -0.313 C  
HETATM    4  CB  UNL     1      -9.845   5.193  73.145  1.00  0.00    -0.174 C  
HETATM    5  CA  UNL     1      -9.038   5.912  72.347  1.00  0.00    -0.140 C  
HETATM    6  N   UNL     1      -9.580   6.743  71.408  1.00  0.00    -0.168 N  
HETATM    7  C   UNL     1      -7.569   5.644  72.469  1.00  0.00    -0.098 C  
HETATM    8  C   UNL     1      -9.145   7.340  70.263  1.00  0.00    -0.152 C  
HETATM    9  O   UNL     1      -6.739   6.284  71.662  1.00  0.00    -0.060 OA 
HETATM   10  OXT UNL     1      -7.117   4.860  73.307  1.00  0.00    -0.076 OA 
HETATM   11  CA  UNL     1     -10.633   7.542  69.822  1.00  0.00    -0.241 C  
HETATM   12  O   UNL     1      -8.058   7.425  69.795  1.00  0.00    -0.123 OA 
ENDROOT
BRANCH  11  13
HETATM   13  N   UNL     1     -10.931   6.735  68.579  1.00  0.00    -0.442 N  
HETATM   14  C   UNL     1     -10.600   6.826  67.219  1.00  0.00    -0.320 C  
HETATM   15  H   UNL     1     -11.518   5.925  68.779  1.00  0.00     0.000 HD 
HETATM   16  O   UNL     1     -11.115   6.008  66.456  1.00  0.00    -0.209 OA 
BRANCH  14  17
HETATM   17  C   UNL     1      -9.521   7.749  66.674  1.00  0.00    -0.205 C  
BRANCH  17  18
HETATM   18  C   UNL     1      -9.769   9.185  66.476  1.00  0.00    -0.241 A  
HETATM   19  N   UNL     1     -10.380   9.940  67.471  1.00  0.00    -0.220 NA 
HETATM   20  C   UNL     1      -9.719   9.832  65.245  1.00  0.00    -0.300 A  
HETATM   21  N   UNL     1     -11.830  11.744  67.647  1.00  0.00    -0.603 NA 
HETATM   22  H2  UNL     1     -12.280  12.531  67.181  1.00  0.00     0.000 HD 
HETATM   23  S   UNL     1     -10.591  11.309  65.315  1.00  0.00    -0.233 SA 
HETATM   24  H1  UNL     1     -12.053  11.554  68.624  1.00  0.00     0.000 HD 
HETATM   25  C   UNL     1     -10.966  10.990  66.958  1.00  0.00    -0.272 A  
ENDBRANCH  17  18
BRANCH  17  26
HETATM   26  N   UNL     1      -8.405   7.393  66.099  1.00  0.00    -0.132 NA 
HETATM   27  H   UNL     1      -8.473   6.843  65.242  1.00  0.00     0.000 HD 
BRANCH  26  28
HETATM   28  O   UNL     1      -7.122   7.707  66.563  1.00  0.00    -0.071 OA 
HETATM   29  C   UNL     1      -6.157   8.223  65.673  1.00  0.00    -0.045 C  
ENDBRANCH  26  28
ENDBRANCH  17  26
ENDBRANCH  14  17
ENDBRANCH  11  13
TORSDOF 5
ENDMDL
MODEL      218
REMARK 921   NORMALIZED FREE ENERGY PREDICTED BY IDOCK:   -4.16 KCAL/MOL
REMARK 922        TOTAL FREE ENERGY PREDICTED BY IDOCK:   -6.14 KCAL/MOL
REMARK 923 INTER-LIGAND FREE ENERGY PREDICTED BY IDOCK:   -5.64 KCAL/MOL
REMARK 924 INTRA-LIGAND FREE ENERGY PREDICTED BY IDOCK:   -0.50 KCAL/MOL
REMARK 927      BINDING AFFINITY PREDICTED BY RF-SCORE:    0.00 PKD
ROOT
HETATM    1  CE  UNL     1     -10.062  12.778  65.792  1.00  0.00    -0.286 C  
HETATM    2  SD  UNL     1     -11.478  13.185  64.831  1.00  0.00    -0.324 SA 
HETATM    3  CG  UNL     1     -11.478  15.005  64.841  1.00  0.00    -0.399 C  
HETATM    4  CB  UNL     1     -10.363  15.685  65.553  1.00  0.00    -0.421 C  
HETATM    5  CA  UNL     1      -9.428  15.137  66.347  1.00  0.00    -0.296 C  
HETATM    6  N   UNL     1      -9.438  13.790  66.576  1.00  0.00    -0.281 N  
HETATM    7  C   UNL     1      -8.499  16.088  67.036  1.00  0.00    -0.214 C  
HETATM    8  C   UNL     1      -8.914  12.953  67.515  1.00  0.00    -0.193 C  
HETATM    9  O   UNL     1      -7.600  15.601  67.875  1.00  0.00    -0.119 OA 
HETATM   10  OXT UNL     1      -8.541  17.304  66.831  1.00  0.00    -0.221 OA 
HETATM   11  CA  UNL     1      -9.952  11.860  67.097  1.00  0.00    -0.194 C  
HETATM   12  O   UNL     1      -8.133  13.155  68.386  1.00  0.00    -0.145 OA 
ENDROOT
BRANCH  11  13
HETATM   13  N   UNL     1     -10.905  11.572  68.236  1.00  0.00    -0.202 N  
HETATM   14  C   UNL     1     -11.128  10.499  69.112  1.00  0.00    -0.250 C  
HETATM   15  H   UNL     1     -11.542  12.349  68.410  1.00  0.00     0.000 HD 
HETATM   16  O   UNL     1     -12.084  10.588  69.882  1.00  0.00    -0.283 OA 
BRANCH  14  17
HETATM   17  C   UNL     1     -10.164   9.335  69.282  1.00  0.00    -0.206 C  
BRANCH  17  18
HETATM   18  C   UNL     1      -9.363   8.832  68.154  1.00  0.00    -0.140 A  
HETATM   19  N   UNL     1      -9.966   8.126  67.119  1.00  0.00    -0.210 NA 
HETATM   20  C   UNL     1      -7.975   8.731  68.155  1.00  0.00    -0.106 A  
HETATM   21  N   UNL     1      -9.459   6.386  65.670  1.00  0.00    -0.363 NA 
HETATM   22  H2  UNL     1      -8.738   5.791  65.263  1.00  0.00     0.000 HD 
HETATM   23  S   UNL     1      -7.461   7.615  66.957  1.00  0.00    -0.097 SA 
HETATM   24  H1  UNL     1     -10.433   6.228  65.413  1.00  0.00     0.000 HD 
HETATM   25  C   UNL     1      -9.099   7.350  66.526  1.00  0.00    -0.162 A  
ENDBRANCH  17  18
BRANCH  17  26
HETATM   26  N   UNL     1     -10.105   8.508  70.290  1.00  0.00    -0.183 NA 
HETATM   27  H   UNL     1     -10.085   8.911  71.227  1.00  0.00     0.000 HD 
BRANCH  26  28
HETATM   28  O   UNL     1     -10.067   7.113  70.187  1.00  0.00    -0.186 OA 
HETATM   29  C   UNL     1      -9.349   6.355  71.136  1.00  0.00    -0.160 C  
ENDBRANCH  26  28
ENDBRANCH  17  26
ENDBRANCH  14  17
ENDBRANCH  11  13
TORSDOF 5
ENDMDL
MODEL      219
REMARK 921   NORMALIZED FREE ENERGY PREDICTED BY IDOCK:   -4.16 KCAL/MOL
REMARK 922        TOTAL FREE ENERGY PREDICTED BY IDOCK:   -6.14 KCAL/MOL
REMARK 923 INTER-LIGAND FREE ENERGY PREDICTED BY IDOCK:   -5.09 KCAL/MOL
REMARK 924 INTRA-LIGAND FREE ENERGY PREDICTED BY IDOCK:   -1.05 KCAL/MOL
REMARK 927      BINDING AFFINITY PREDICTED BY RF-SCORE:    0.00 PKD
ROOT
HETATM    1  CE  UNL     1     -11.379  14.819  67.558  1.00  0.00    -0.344 C  
HETATM    2  SD  UNL     1     -11.733  14.926  65.838  1.00  0.00    -0.095 SA 
HETATM    3  CG  UNL     1     -10.214  14.292  65.061  1.00  0.00    -0.372 C  
HETATM    4  CB  UNL     1      -9.128  13.824  65.963  1.00  0.00     0.192 C  
HETATM    5  CA  UNL     1      -9.040  13.961  67.297  1.00  0.00    -0.228 C  
HETATM    6  N   UNL     1     -10.037  14.598  67.980  1.00  0.00    -0.225 N  
HETATM    7  C   UNL     1      -7.763  13.502  67.931  1.00  0.00    -0.153 C  
HETATM    8  C   UNL     1     -10.160  15.199  69.197  1.00  0.00    -0.245 C  
HETATM    9  O   UNL     1      -7.605  13.670  69.233  1.00  0.00     0.061 OA 
HETATM   10  OXT UNL     1      -6.868  12.960  67.276  1.00  0.00    -0.150 OA 
HETATM   11  CA  UNL     1     -11.421  15.964  68.674  1.00  0.00    -0.391 C  
HETATM   12  O   UNL     1      -9.426  15.222  70.130  1.00  0.00    -0.055 OA 
ENDROOT
BRANCH  11  13
HETATM   13  N   UNL     1     -11.158  17.452  68.633  1.00  0.00    -0.187 N  
HETATM   14  C   UNL     1     -10.076  18.272  68.280  1.00  0.00    -0.386 C  
HETATM   15  H   UNL     1     -11.967  17.994  68.938  1.00  0.00     0.000 HD 
HETATM   16  O   UNL     1     -10.200  19.482  68.465  1.00  0.00    -0.425 OA 
BRANCH  14  17
HETATM   17  C   UNL     1      -8.852  17.773  67.527  1.00  0.00    -0.243 C  
BRANCH  17  18
HETATM   18  C   UNL     1      -7.522  17.752  68.155  1.00  0.00    -0.237 A  
HETATM   19  N   UNL     1      -6.812  16.561  68.266  1.00  0.00    -0.138 NA 
HETATM   20  C   UNL     1      -7.002  18.778  68.939  1.00  0.00    -0.308 A  
HETATM   21  N   UNL     1      -5.332  15.545  69.736  1.00  0.00    -0.100 NA 
HETATM   22  H2  UNL     1      -4.701  15.654  70.530  1.00  0.00     0.000 HD 
HETATM   23  S   UNL     1      -5.733  18.184  69.929  1.00  0.00    -0.240 SA 
HETATM   24  H1  UNL     1      -5.466  14.618  69.335  1.00  0.00     0.000 HD 
HETATM   25  C   UNL     1      -5.959  16.624  69.254  1.00  0.00    -0.173 A  
ENDBRANCH  17  18
BRANCH  17  26
HETATM   26  N   UNL     1      -8.755  17.564  66.243  1.00  0.00    -0.433 NA 
HETATM   27  H   UNL     1      -9.346  16.835  65.840  1.00  0.00     0.000 HD 
BRANCH  26  28
HETATM   28  O   UNL     1      -7.906  18.258  65.374  1.00  0.00    -0.240 OA 
HETATM   29  C   UNL     1      -7.763  19.656  65.496  1.00  0.00     0.024 C  
ENDBRANCH  26  28
ENDBRANCH  17  26
ENDBRANCH  14  17
ENDBRANCH  11  13
TORSDOF 5
ENDMDL
MODEL      220
REMARK 921   NORMALIZED FREE ENERGY PREDICTED BY IDOCK:   -4.14 KCAL/MOL
REMARK 922        TOTAL FREE ENERGY PREDICTED BY IDOCK:   -6.12 KCAL/MOL
REMARK 923 INTER-LIGAND FREE ENERGY PREDICTED BY IDOCK:   -5.42 KCAL/MOL
REMARK 924 INTRA-LIGAND FREE ENERGY PREDICTED BY IDOCK:   -0.69 KCAL/MOL
REMARK 927      BINDING AFFINITY PREDICTED BY RF-SCORE:    0.00 PKD
ROOT
HETATM    1  CE  UNL     1      -7.871  13.071  67.881  1.00  0.00    -0.149 C  
HETATM    2  SD  UNL     1      -6.865  12.895  69.313  1.00  0.00     0.045 SA 
HETATM    3  CG  UNL     1      -7.061  11.138  69.746  1.00  0.00    -0.003 C  
HETATM    4  CB  UNL     1      -7.912  10.305  68.854  1.00  0.00    -0.113 C  
HETATM    5  CA  UNL     1      -8.706  10.710  67.849  1.00  0.00    -0.127 C  
HETATM    6  N   UNL     1      -8.794  12.039  67.548  1.00  0.00    -0.165 N  
HETATM    7  C   UNL     1      -9.550   9.655  67.201  1.00  0.00    -0.166 C  
HETATM    8  C   UNL     1      -9.675  12.835  66.878  1.00  0.00    -0.234 C  
HETATM    9  O   UNL     1     -10.392  10.015  66.246  1.00  0.00    -0.223 OA 
HETATM   10  OXT UNL     1      -9.469   8.467  67.522  1.00  0.00    -0.144 OA 
HETATM   11  CA  UNL     1      -9.079  14.083  67.609  1.00  0.00    -0.192 C  
HETATM   12  O   UNL     1     -10.612  12.560  66.203  1.00  0.00    -0.247 OA 
ENDROOT
BRANCH  11  13
HETATM   13  N   UNL     1     -10.116  14.714  68.511  1.00  0.00    -0.232 N  
HETATM   14  C   UNL     1     -10.477  16.022  68.867  1.00  0.00    -0.245 C  
HETATM   15  H   UNL     1     -10.697  14.015  68.975  1.00  0.00     0.000 HD 
HETATM   16  O   UNL     1     -11.345  16.154  69.728  1.00  0.00    -0.331 OA 
BRANCH  14  17
HETATM   17  C   UNL     1      -9.989  17.260  68.129  1.00  0.00    -0.303 C  
BRANCH  17  18
HETATM   18  C   UNL     1      -8.590  17.705  68.219  1.00  0.00    -0.268 A  
HETATM   19  N   UNL     1      -7.556  16.776  68.275  1.00  0.00    -0.181 NA 
HETATM   20  C   UNL     1      -8.192  18.994  68.559  1.00  0.00    -0.355 A  
HETATM   21  N   UNL     1      -5.465  16.554  69.257  1.00  0.00    -0.133 NA 
HETATM   22  H2  UNL     1      -4.687  17.012  69.731  1.00  0.00     0.000 HD 
HETATM   23  S   UNL     1      -6.565  18.989  69.104  1.00  0.00    -0.293 SA 
HETATM   24  H1  UNL     1      -5.429  15.546  69.107  1.00  0.00     0.000 HD 
HETATM   25  C   UNL     1      -6.504  17.294  68.852  1.00  0.00    -0.202 A  
ENDBRANCH  17  18
BRANCH  17  26
HETATM   26  N   UNL     1     -10.728  18.183  67.576  1.00  0.00    -0.397 NA 
HETATM   27  H   UNL     1     -11.436  18.630  68.161  1.00  0.00     0.000 HD 
BRANCH  26  28
HETATM   28  O   UNL     1     -10.627  18.608  66.247  1.00  0.00    -0.413 OA 
HETATM   29  C   UNL     1     -10.657  19.985  65.943  1.00  0.00    -0.354 C  
ENDBRANCH  26  28
ENDBRANCH  17  26
ENDBRANCH  14  17
ENDBRANCH  11  13
TORSDOF 5
ENDMDL
MODEL      221
REMARK 921   NORMALIZED FREE ENERGY PREDICTED BY IDOCK:   -4.14 KCAL/MOL
REMARK 922        TOTAL FREE ENERGY PREDICTED BY IDOCK:   -6.11 KCAL/MOL
REMARK 923 INTER-LIGAND FREE ENERGY PREDICTED BY IDOCK:   -6.03 KCAL/MOL
REMARK 924 INTRA-LIGAND FREE ENERGY PREDICTED BY IDOCK:   -0.08 KCAL/MOL
REMARK 927      BINDING AFFINITY PREDICTED BY RF-SCORE:    0.00 PKD
ROOT
HETATM    1  CE  UNL     1      -9.394  13.426  65.756  1.00  0.00     0.172 C  
HETATM    2  SD  UNL     1     -10.208  11.930  66.197  1.00  0.00    -0.234 SA 
HETATM    3  CG  UNL     1     -11.937  12.241  65.719  1.00  0.00    -0.293 C  
HETATM    4  CB  UNL     1     -12.244  13.548  65.079  1.00  0.00    -0.453 C  
HETATM    5  CA  UNL     1     -11.444  14.620  64.954  1.00  0.00    -0.401 C  
HETATM    6  N   UNL     1     -10.173  14.578  65.451  1.00  0.00    -0.366 N  
HETATM    7  C   UNL     1     -12.068  15.852  64.374  1.00  0.00     0.084 C  
HETATM    8  C   UNL     1      -9.229  15.496  65.804  1.00  0.00    -0.181 C  
HETATM    9  O   UNL     1     -11.337  16.951  64.285  1.00  0.00    -1.202 OA 
HETATM   10  OXT UNL     1     -13.232  15.864  63.965  1.00  0.00    -0.077 OA 
HETATM   11  CA  UNL     1      -8.510  14.403  66.662  1.00  0.00     0.071 C  
HETATM   12  O   UNL     1      -9.190  16.671  65.642  1.00  0.00    -0.491 OA 
ENDROOT
BRANCH  11  13
HETATM   13  N   UNL     1      -8.553  14.768  68.129  1.00  0.00    -0.153 N  
HETATM   14  C   UNL     1      -9.524  14.744  69.142  1.00  0.00    -0.113 C  
HETATM   15  H   UNL     1      -7.656  15.118  68.464  1.00  0.00     0.000 HD 
HETATM   16  O   UNL     1      -9.211  15.217  70.234  1.00  0.00     0.214 OA 
BRANCH  14  17
HETATM   17  C   UNL     1     -10.853  14.015  69.018  1.00  0.00    -0.243 C  
BRANCH  17  18
HETATM   18  C   UNL     1     -10.929  12.547  69.060  1.00  0.00    -0.188 A  
HETATM   19  N   UNL     1     -12.143  11.909  69.293  1.00  0.00    -0.255 NA 
HETATM   20  C   UNL     1      -9.830  11.703  69.186  1.00  0.00     0.169 A  
HETATM   21  N   UNL     1     -12.933   9.996  70.343  1.00  0.00    -0.585 NA 
HETATM   22  H2  UNL     1     -12.712   9.087  70.749  1.00  0.00     0.000 HD 
HETATM   23  S   UNL     1     -10.326  10.163  69.759  1.00  0.00    -0.251 SA 
HETATM   24  H1  UNL     1     -13.897  10.327  70.365  1.00  0.00     0.000 HD 
HETATM   25  C   UNL     1     -11.948  10.719  69.797  1.00  0.00    -0.325 A  
ENDBRANCH  17  18
BRANCH  17  26
HETATM   26  N   UNL     1     -11.988  14.521  68.619  1.00  0.00    -0.498 NA 
HETATM   27  H   UNL     1     -12.340  14.224  67.709  1.00  0.00     0.000 HD 
BRANCH  26  28
HETATM   28  O   UNL     1     -12.760  15.438  69.342  1.00  0.00     0.001 OA 
HETATM   29  C   UNL     1     -12.907  15.291  70.737  1.00  0.00    -0.437 C  
ENDBRANCH  26  28
ENDBRANCH  17  26
ENDBRANCH  14  17
ENDBRANCH  11  13
TORSDOF 5
ENDMDL
MODEL      222
REMARK 921   NORMALIZED FREE ENERGY PREDICTED BY IDOCK:   -4.14 KCAL/MOL
REMARK 922        TOTAL FREE ENERGY PREDICTED BY IDOCK:   -6.11 KCAL/MOL
REMARK 923 INTER-LIGAND FREE ENERGY PREDICTED BY IDOCK:   -4.54 KCAL/MOL
REMARK 924 INTRA-LIGAND FREE ENERGY PREDICTED BY IDOCK:   -1.56 KCAL/MOL
REMARK 927      BINDING AFFINITY PREDICTED BY RF-SCORE:    0.00 PKD
ROOT
HETATM    1  CE  UNL     1      -8.425   5.357  68.785  1.00  0.00    -0.096 C  
HETATM    2  SD  UNL     1      -6.972   4.955  69.692  1.00  0.00    -0.055 SA 
HETATM    3  CG  UNL     1      -7.522   5.059  71.424  1.00  0.00    -0.086 C  
HETATM    4  CB  UNL     1      -8.953   5.384  71.669  1.00  0.00    -0.147 C  
HETATM    5  CA  UNL     1      -9.877   5.785  70.780  1.00  0.00    -0.183 C  
HETATM    6  N   UNL     1      -9.534   5.933  69.467  1.00  0.00    -0.137 N  
HETATM    7  C   UNL     1     -11.214   6.167  71.337  1.00  0.00    -0.287 C  
HETATM    8  C   UNL     1     -10.046   6.595  68.391  1.00  0.00    -0.156 C  
HETATM    9  O   UNL     1     -12.138   6.625  70.509  1.00  0.00    -0.390 OA 
HETATM   10  OXT UNL     1     -11.478   6.052  72.536  1.00  0.00    -0.288 OA 
HETATM   11  CA  UNL     1      -8.651   6.498  67.687  1.00  0.00    -0.116 C  
HETATM   12  O   UNL     1     -11.081   7.158  68.245  1.00  0.00    -0.076 OA 
ENDROOT
BRANCH  11  13
HETATM   13  N   UNL     1      -8.057   7.876  67.497  1.00  0.00    -0.122 N  
HETATM   14  C   UNL     1      -8.042   9.073  68.228  1.00  0.00    -0.109 C  
HETATM   15  H   UNL     1      -7.540   7.953  66.621  1.00  0.00     0.000 HD 
HETATM   16  O   UNL     1      -7.513  10.050  67.700  1.00  0.00    -0.089 OA 
BRANCH  14  17
HETATM   17  C   UNL     1      -8.477   9.178  69.682  1.00  0.00    -0.133 C  
BRANCH  17  18
HETATM   18  C   UNL     1      -9.693   9.910  70.068  1.00  0.00    -0.227 A  
HETATM   19  N   UNL     1     -10.412   9.538  71.199  1.00  0.00    -0.315 NA 
HETATM   20  C   UNL     1     -10.389  10.780  69.233  1.00  0.00    -0.205 A  
HETATM   21  N   UNL     1     -12.617   9.475  71.919  1.00  0.00    -0.386 NA 
HETATM   22  H2  UNL     1     -13.578   9.783  71.769  1.00  0.00     0.000 HD 
HETATM   23  S   UNL     1     -11.997  10.984  69.798  1.00  0.00    -0.373 SA 
HETATM   24  H1  UNL     1     -12.416   8.841  72.692  1.00  0.00     0.000 HD 
HETATM   25  C   UNL     1     -11.658   9.917  71.096  1.00  0.00    -0.389 A  
ENDBRANCH  17  18
BRANCH  17  26
HETATM   26  N   UNL     1      -7.760   8.894  70.735  1.00  0.00    -0.101 NA 
HETATM   27  H   UNL     1      -8.187   9.048  71.649  1.00  0.00     0.000 HD 
BRANCH  26  28
HETATM   28  O   UNL     1      -6.453   8.396  70.711  1.00  0.00    -0.036 OA 
HETATM   29  C   UNL     1      -5.632   8.514  71.852  1.00  0.00    -0.044 C  
ENDBRANCH  26  28
ENDBRANCH  17  26
ENDBRANCH  14  17
ENDBRANCH  11  13
TORSDOF 5
ENDMDL
MODEL      223
REMARK 921   NORMALIZED FREE ENERGY PREDICTED BY IDOCK:   -4.13 KCAL/MOL
REMARK 922        TOTAL FREE ENERGY PREDICTED BY IDOCK:   -6.10 KCAL/MOL
REMARK 923 INTER-LIGAND FREE ENERGY PREDICTED BY IDOCK:   -5.41 KCAL/MOL
REMARK 924 INTRA-LIGAND FREE ENERGY PREDICTED BY IDOCK:   -0.69 KCAL/MOL
REMARK 927      BINDING AFFINITY PREDICTED BY RF-SCORE:    0.00 PKD
ROOT
HETATM    1  CE  UNL     1      -9.010  13.862  67.583  1.00  0.00    -0.192 C  
HETATM    2  SD  UNL     1      -8.986  15.454  66.833  1.00  0.00    -0.268 SA 
HETATM    3  CG  UNL     1     -10.448  16.271  67.545  1.00  0.00    -0.302 C  
HETATM    4  CB  UNL     1     -11.241  15.505  68.543  1.00  0.00    -0.334 C  
HETATM    5  CA  UNL     1     -11.127  14.209  68.876  1.00  0.00    -0.263 C  
HETATM    6  N   UNL     1     -10.184  13.432  68.265  1.00  0.00    -0.245 N  
HETATM    7  C   UNL     1     -12.153  13.672  69.827  1.00  0.00    -0.334 C  
HETATM    8  C   UNL     1      -9.983  12.096  68.084  1.00  0.00    -0.201 C  
HETATM    9  O   UNL     1     -12.118  12.388  70.140  1.00  0.00    -0.335 OA 
HETATM   10  OXT UNL     1     -13.012  14.397  70.335  1.00  0.00    -0.320 OA 
HETATM   11  CA  UNL     1      -9.018  12.418  66.895  1.00  0.00    -0.212 C  
HETATM   12  O   UNL     1     -10.535  11.157  68.555  1.00  0.00    -0.175 OA 
ENDROOT
BRANCH  11  13
HETATM   13  N   UNL     1      -9.589  11.900  65.594  1.00  0.00    -0.292 N  
HETATM   14  C   UNL     1      -9.582  10.675  64.911  1.00  0.00    -0.269 C  
HETATM   15  H   UNL     1     -10.108  12.619  65.089  1.00  0.00     0.000 HD 
HETATM   16  O   UNL     1     -10.097  10.649  63.793  1.00  0.00    -0.330 OA 
BRANCH  14  17
HETATM   17  C   UNL     1      -9.142   9.363  65.540  1.00  0.00    -0.218 C  
BRANCH  17  18
HETATM   18  C   UNL     1      -7.730   8.949  65.542  1.00  0.00    -0.088 A  
HETATM   19  N   UNL     1      -7.109   8.548  64.364  1.00  0.00    -0.080 NA 
HETATM   20  C   UNL     1      -7.004   8.628  66.685  1.00  0.00    -0.079 A  
HETATM   21  N   UNL     1      -5.485   7.040  63.677  1.00  0.00    -0.032 NA 
HETATM   22  H2  UNL     1      -4.721   6.420  63.946  1.00  0.00     0.000 HD 
HETATM   23  S   UNL     1      -5.636   7.679  66.272  1.00  0.00    -0.029 SA 
HETATM   24  H1  UNL     1      -5.759   7.091  62.696  1.00  0.00     0.000 HD 
HETATM   25  C   UNL     1      -6.097   7.763  64.623  1.00  0.00    -0.041 A  
ENDBRANCH  17  18
BRANCH  17  26
HETATM   26  N   UNL     1      -9.910   8.370  65.897  1.00  0.00    -0.457 NA 
HETATM   27  H   UNL     1     -10.435   7.894  65.162  1.00  0.00     0.000 HD 
BRANCH  26  28
HETATM   28  O   UNL     1     -10.071   7.906  67.208  1.00  0.00    -0.188 OA 
HETATM   29  C   UNL     1      -9.908   6.534  67.495  1.00  0.00    -0.124 C  
ENDBRANCH  26  28
ENDBRANCH  17  26
ENDBRANCH  14  17
ENDBRANCH  11  13
TORSDOF 5
ENDMDL
MODEL      224
REMARK 921   NORMALIZED FREE ENERGY PREDICTED BY IDOCK:   -4.07 KCAL/MOL
REMARK 922        TOTAL FREE ENERGY PREDICTED BY IDOCK:   -6.03 KCAL/MOL
REMARK 923 INTER-LIGAND FREE ENERGY PREDICTED BY IDOCK:   -5.24 KCAL/MOL
REMARK 924 INTRA-LIGAND FREE ENERGY PREDICTED BY IDOCK:   -0.79 KCAL/MOL
REMARK 927      BINDING AFFINITY PREDICTED BY RF-SCORE:    0.00 PKD
ROOT
HETATM    1  CE  UNL     1      -8.378   7.931  71.295  1.00  0.00    -0.113 C  
HETATM    2  SD  UNL     1      -8.371   8.193  73.035  1.00  0.00    -0.192 SA 
HETATM    3  CG  UNL     1      -8.960   6.605  73.698  1.00  0.00    -0.133 C  
HETATM    4  CB  UNL     1      -9.248   5.521  72.721  1.00  0.00    -0.137 C  
HETATM    5  CA  UNL     1      -9.296   5.602  71.381  1.00  0.00    -0.147 C  
HETATM    6  N   UNL     1      -9.059   6.798  70.766  1.00  0.00    -0.151 N  
HETATM    7  C   UNL     1      -9.739   4.369  70.654  1.00  0.00    -0.213 C  
HETATM    8  C   UNL     1      -9.325   7.340  69.543  1.00  0.00    -0.152 C  
HETATM    9  O   UNL     1      -9.859   4.418  69.337  1.00  0.00    -0.203 OA 
HETATM   10  OXT UNL     1      -9.977   3.313  71.246  1.00  0.00    -0.149 OA 
HETATM   11  CA  UNL     1      -9.112   8.768  70.147  1.00  0.00    -0.167 C  
HETATM   12  O   UNL     1      -9.746   6.846  68.550  1.00  0.00    -0.138 OA 
ENDROOT
BRANCH  11  13
HETATM   13  N   UNL     1     -10.403   9.555  70.112  1.00  0.00    -0.236 N  
HETATM   14  C   UNL     1     -10.995  10.475  69.235  1.00  0.00    -0.244 C  
HETATM   15  H   UNL     1     -10.987   9.372  70.929  1.00  0.00     0.000 HD 
HETATM   16  O   UNL     1     -12.053  10.995  69.590  1.00  0.00    -0.318 OA 
BRANCH  14  17
HETATM   17  C   UNL     1     -10.503  10.724  67.817  1.00  0.00    -0.208 C  
BRANCH  17  18
HETATM   18  C   UNL     1     -11.059  11.808  66.992  1.00  0.00    -0.304 A  
HETATM   19  N   UNL     1     -11.604  11.535  65.742  1.00  0.00    -0.208 NA 
HETATM   20  C   UNL     1     -10.828  13.163  67.209  1.00  0.00    -0.257 A  
HETATM   21  N   UNL     1     -11.786  12.547  63.662  1.00  0.00    -0.486 NA 
HETATM   22  H2  UNL     1     -11.706  13.403  63.114  1.00  0.00     0.000 HD 
HETATM   23  S   UNL     1     -11.142  14.055  65.777  1.00  0.00    -0.311 SA 
HETATM   24  H1  UNL     1     -12.035  11.679  63.188  1.00  0.00     0.000 HD 
HETATM   25  C   UNL     1     -11.561  12.595  64.980  1.00  0.00    -0.345 A  
ENDBRANCH  17  18
BRANCH  17  26
HETATM   26  N   UNL     1      -9.776   9.921  67.089  1.00  0.00    -0.171 NA 
HETATM   27  H   UNL     1     -10.259   9.173  66.591  1.00  0.00     0.000 HD 
BRANCH  26  28
HETATM   28  O   UNL     1      -8.387  10.005  66.938  1.00  0.00    -0.124 OA 
HETATM   29  C   UNL     1      -7.837  10.801  65.911  1.00  0.00    -0.131 C  
ENDBRANCH  26  28
ENDBRANCH  17  26
ENDBRANCH  14  17
ENDBRANCH  11  13
TORSDOF 5
ENDMDL
MODEL      225
REMARK 921   NORMALIZED FREE ENERGY PREDICTED BY IDOCK:   -4.07 KCAL/MOL
REMARK 922        TOTAL FREE ENERGY PREDICTED BY IDOCK:   -6.02 KCAL/MOL
REMARK 923 INTER-LIGAND FREE ENERGY PREDICTED BY IDOCK:   -5.25 KCAL/MOL
REMARK 924 INTRA-LIGAND FREE ENERGY PREDICTED BY IDOCK:   -0.77 KCAL/MOL
REMARK 927      BINDING AFFINITY PREDICTED BY RF-SCORE:    0.00 PKD
ROOT
HETATM    1  CE  UNL     1      -9.628   8.353  70.950  1.00  0.00    -0.175 C  
HETATM    2  SD  UNL     1     -11.031   9.410  71.044  1.00  0.00    -0.367 SA 
HETATM    3  CG  UNL     1     -12.078   8.603  72.295  1.00  0.00    -0.373 C  
HETATM    4  CB  UNL     1     -11.549   7.370  72.936  1.00  0.00    -0.200 C  
HETATM    5  CA  UNL     1     -10.461   6.659  72.597  1.00  0.00    -0.212 C  
HETATM    6  N   UNL     1      -9.692   7.059  71.541  1.00  0.00    -0.166 N  
HETATM    7  C   UNL     1     -10.241   5.380  73.345  1.00  0.00    -0.196 C  
HETATM    8  C   UNL     1      -8.772   6.474  70.723  1.00  0.00    -0.143 C  
HETATM    9  O   UNL     1      -9.216   4.616  73.007  1.00  0.00    -0.119 OA 
HETATM   10  OXT UNL     1     -10.976   5.033  74.273  1.00  0.00    -0.310 OA 
HETATM   11  CA  UNL     1      -8.997   7.617  69.678  1.00  0.00    -0.140 C  
HETATM   12  O   UNL     1      -8.239   5.415  70.785  1.00  0.00    -0.110 OA 
ENDROOT
BRANCH  11  13
HETATM   13  N   UNL     1      -9.598   7.062  68.407  1.00  0.00    -0.136 N  
HETATM   14  C   UNL     1      -9.875   7.560  67.125  1.00  0.00    -0.201 C  
HETATM   15  H   UNL     1      -9.869   6.083  68.506  1.00  0.00     0.000 HD 
HETATM   16  O   UNL     1     -10.471   6.816  66.347  1.00  0.00    -0.075 OA 
BRANCH  14  17
HETATM   17  C   UNL     1      -9.330   8.878  66.598  1.00  0.00    -0.185 C  
BRANCH  17  18
HETATM   18  C   UNL     1     -10.203   9.856  65.929  1.00  0.00    -0.194 A  
HETATM   19  N   UNL     1     -10.136  10.036  64.551  1.00  0.00    -0.122 NA 
HETATM   20  C   UNL     1     -10.907  10.862  66.583  1.00  0.00    -0.197 A  
HETATM   21  N   UNL     1     -10.370  11.750  63.005  1.00  0.00    -0.655 NA 
HETATM   22  H2  UNL     1     -10.694  12.698  62.818  1.00  0.00     0.000 HD 
HETATM   23  S   UNL     1     -11.330  12.105  65.477  1.00  0.00    -0.332 SA 
HETATM   24  H1  UNL     1      -9.911  11.228  62.258  1.00  0.00     0.000 HD 
HETATM   25  C   UNL     1     -10.559  11.228  64.223  1.00  0.00    -0.358 A  
ENDBRANCH  17  18
BRANCH  17  26
HETATM   26  N   UNL     1      -8.075   9.195  66.431  1.00  0.00    -0.106 NA 
HETATM   27  H   UNL     1      -7.506   8.572  65.858  1.00  0.00     0.000 HD 
BRANCH  26  28
HETATM   28  O   UNL     1      -7.449  10.322  66.975  1.00  0.00    -0.091 OA 
HETATM   29  C   UNL     1      -7.361  10.472  68.376  1.00  0.00    -0.086 C  
ENDBRANCH  26  28
ENDBRANCH  17  26
ENDBRANCH  14  17
ENDBRANCH  11  13
TORSDOF 5
ENDMDL
MODEL      226
REMARK 921   NORMALIZED FREE ENERGY PREDICTED BY IDOCK:   -4.05 KCAL/MOL
REMARK 922        TOTAL FREE ENERGY PREDICTED BY IDOCK:   -6.00 KCAL/MOL
REMARK 923 INTER-LIGAND FREE ENERGY PREDICTED BY IDOCK:   -4.88 KCAL/MOL
REMARK 924 INTRA-LIGAND FREE ENERGY PREDICTED BY IDOCK:   -1.12 KCAL/MOL
REMARK 927      BINDING AFFINITY PREDICTED BY RF-SCORE:    0.00 PKD
ROOT
HETATM    1  CE  UNL     1      -7.753   7.281  68.531  1.00  0.00    -0.120 C  
HETATM    2  SD  UNL     1      -6.320   8.267  68.796  1.00  0.00    -0.049 SA 
HETATM    3  CG  UNL     1      -6.812   9.356  70.169  1.00  0.00    -0.071 C  
HETATM    4  CB  UNL     1      -8.172   9.161  70.741  1.00  0.00    -0.226 C  
HETATM    5  CA  UNL     1      -9.169   8.394  70.271  1.00  0.00    -0.152 C  
HETATM    6  N   UNL     1      -8.986   7.670  69.127  1.00  0.00    -0.136 N  
HETATM    7  C   UNL     1     -10.480   8.493  70.989  1.00  0.00    -0.212 C  
HETATM    8  C   UNL     1      -9.794   7.080  68.203  1.00  0.00    -0.139 C  
HETATM    9  O   UNL     1     -11.509   7.802  70.527  1.00  0.00    -0.271 OA 
HETATM   10  OXT UNL     1     -10.619   9.184  72.001  1.00  0.00    -0.333 OA 
HETATM   11  CA  UNL     1      -8.599   7.063  67.192  1.00  0.00    -0.121 C  
HETATM   12  O   UNL     1     -10.967   6.897  68.200  1.00  0.00    -0.207 OA 
ENDROOT
BRANCH  11  13
HETATM   13  N   UNL     1      -8.897   7.952  66.006  1.00  0.00    -0.160 N  
HETATM   14  C   UNL     1      -9.411   9.245  65.823  1.00  0.00    -0.244 C  
HETATM   15  H   UNL     1      -8.668   7.501  65.120  1.00  0.00     0.000 HD 
HETATM   16  O   UNL     1      -9.601   9.619  64.666  1.00  0.00    -0.247 OA 
BRANCH  14  17
HETATM   17  C   UNL     1      -9.571  10.255  66.949  1.00  0.00    -0.173 C  
BRANCH  17  18
HETATM   18  C   UNL     1      -8.421  11.012  67.470  1.00  0.00    -0.127 A  
HETATM   19  N   UNL     1      -8.604  12.004  68.426  1.00  0.00    -0.167 NA 
HETATM   20  C   UNL     1      -7.163  11.043  66.876  1.00  0.00    -0.133 A  
HETATM   21  N   UNL     1      -7.681  14.051  69.012  1.00  0.00    -0.296 NA 
HETATM   22  H2  UNL     1      -6.901  14.701  68.911  1.00  0.00     0.000 HD 
HETATM   23  S   UNL     1      -6.290  12.421  67.409  1.00  0.00    -0.146 SA 
HETATM   24  H1  UNL     1      -8.477  14.319  69.590  1.00  0.00     0.000 HD 
HETATM   25  C   UNL     1      -7.628  12.872  68.380  1.00  0.00    -0.133 A  
ENDBRANCH  17  18
BRANCH  17  26
HETATM   26  N   UNL     1     -10.603  10.393  67.735  1.00  0.00    -0.230 NA 
HETATM   27  H   UNL     1     -10.617   9.841  68.594  1.00  0.00     0.000 HD 
BRANCH  26  28
HETATM   28  O   UNL     1     -11.693  11.238  67.494  1.00  0.00    -0.574 OA 
HETATM   29  C   UNL     1     -12.008  12.261  68.413  1.00  0.00    -0.210 C  
ENDBRANCH  26  28
ENDBRANCH  17  26
ENDBRANCH  14  17
ENDBRANCH  11  13
TORSDOF 5
ENDMDL
MODEL      227
REMARK 921   NORMALIZED FREE ENERGY PREDICTED BY IDOCK:   -4.05 KCAL/MOL
REMARK 922        TOTAL FREE ENERGY PREDICTED BY IDOCK:   -5.99 KCAL/MOL
REMARK 923 INTER-LIGAND FREE ENERGY PREDICTED BY IDOCK:   -5.31 KCAL/MOL
REMARK 924 INTRA-LIGAND FREE ENERGY PREDICTED BY IDOCK:   -0.68 KCAL/MOL
REMARK 927      BINDING AFFINITY PREDICTED BY RF-SCORE:    0.00 PKD
ROOT
HETATM    1  CE  UNL     1     -10.999   5.711  71.032  1.00  0.00    -0.177 C  
HETATM    2  SD  UNL     1     -10.535   5.320  69.381  1.00  0.00    -0.137 SA 
HETATM    3  CG  UNL     1      -9.586   3.778  69.570  1.00  0.00    -0.160 C  
HETATM    4  CB  UNL     1      -9.461   3.216  70.942  1.00  0.00    -0.230 C  
HETATM    5  CA  UNL     1      -9.814   3.784  72.107  1.00  0.00    -0.168 C  
HETATM    6  N   UNL     1     -10.365   5.034  72.112  1.00  0.00    -0.210 N  
HETATM    7  C   UNL     1      -9.451   3.032  73.351  1.00  0.00    -0.092 C  
HETATM    8  C   UNL     1     -10.534   6.025  73.033  1.00  0.00    -0.224 C  
HETATM    9  O   UNL     1      -9.725   3.579  74.524  1.00  0.00    -0.107 OA 
HETATM   10  OXT UNL     1      -8.923   1.919  73.309  1.00  0.00    -0.065 OA 
HETATM   11  CA  UNL     1     -10.739   7.050  71.868  1.00  0.00    -0.217 C  
HETATM   12  O   UNL     1     -10.361   6.033  74.207  1.00  0.00    -0.281 OA 
ENDROOT
BRANCH  11  13
HETATM   13  N   UNL     1      -9.621   8.069  71.857  1.00  0.00    -0.169 N  
HETATM   14  C   UNL     1      -9.227   9.119  71.015  1.00  0.00    -0.252 C  
HETATM   15  H   UNL     1      -9.002   7.968  72.662  1.00  0.00     0.000 HD 
HETATM   16  O   UNL     1      -8.176   9.698  71.288  1.00  0.00    -0.186 OA 
BRANCH  14  17
HETATM   17  C   UNL     1     -10.103   9.686  69.908  1.00  0.00    -0.246 C  
BRANCH  17  18
HETATM   18  C   UNL     1     -11.299  10.487  70.212  1.00  0.00    -0.327 A  
HETATM   19  N   UNL     1     -11.414  11.790  69.742  1.00  0.00    -0.271 NA 
HETATM   20  C   UNL     1     -12.232  10.171  71.196  1.00  0.00    -0.389 A  
HETATM   21  N   UNL     1     -12.324  13.814  70.422  1.00  0.00    -0.351 NA 
HETATM   22  H2  UNL     1     -12.952  14.300  71.061  1.00  0.00     0.000 HD 
HETATM   23  S   UNL     1     -13.128  11.567  71.634  1.00  0.00    -0.254 SA 
HETATM   24  H1  UNL     1     -11.788  14.357  69.747  1.00  0.00     0.000 HD 
HETATM   25  C   UNL     1     -12.227  12.481  70.497  1.00  0.00    -0.297 A  
ENDBRANCH  17  18
BRANCH  17  26
HETATM   26  N   UNL     1     -10.084   9.352  68.647  1.00  0.00    -0.184 NA 
HETATM   27  H   UNL     1     -10.859   9.671  68.065  1.00  0.00     0.000 HD 
BRANCH  26  28
HETATM   28  O   UNL     1      -9.085   8.592  68.028  1.00  0.00    -0.140 OA 
HETATM   29  C   UNL     1      -9.233   8.194  66.683  1.00  0.00    -0.180 C  
ENDBRANCH  26  28
ENDBRANCH  17  26
ENDBRANCH  14  17
ENDBRANCH  11  13
TORSDOF 5
ENDMDL
MODEL      228
REMARK 921   NORMALIZED FREE ENERGY PREDICTED BY IDOCK:   -4.04 KCAL/MOL
REMARK 922        TOTAL FREE ENERGY PREDICTED BY IDOCK:   -5.98 KCAL/MOL
REMARK 923 INTER-LIGAND FREE ENERGY PREDICTED BY IDOCK:   -5.05 KCAL/MOL
REMARK 924 INTRA-LIGAND FREE ENERGY PREDICTED BY IDOCK:   -0.94 KCAL/MOL
REMARK 927      BINDING AFFINITY PREDICTED BY RF-SCORE:    0.00 PKD
ROOT
HETATM    1  CE  UNL     1      -7.872   4.307  65.933  1.00  0.00    -0.094 C  
HETATM    2  SD  UNL     1      -6.558   3.158  66.153  1.00  0.00    -0.037 SA 
HETATM    3  CG  UNL     1      -7.061   1.747  65.119  1.00  0.00    -0.048 C  
HETATM    4  CB  UNL     1      -8.329   1.879  64.353  1.00  0.00    -0.079 C  
HETATM    5  CA  UNL     1      -9.259   2.844  64.447  1.00  0.00    -0.128 C  
HETATM    6  N   UNL     1      -9.087   3.867  65.335  1.00  0.00    -0.135 N  
HETATM    7  C   UNL     1     -10.505   2.650  63.637  1.00  0.00    -0.175 C  
HETATM    8  C   UNL     1      -9.893   4.789  65.934  1.00  0.00    -0.211 C  
HETATM    9  O   UNL     1     -11.475   3.543  63.741  1.00  0.00    -0.088 OA 
HETATM   10  OXT UNL     1     -10.640   1.694  62.869  1.00  0.00    -0.110 OA 
HETATM   11  CA  UNL     1      -8.799   5.008  67.032  1.00  0.00    -0.106 C  
HETATM   12  O   UNL     1     -11.029   5.072  65.739  1.00  0.00    -0.178 OA 
ENDROOT
BRANCH  11  13
HETATM   13  N   UNL     1      -9.309   4.563  68.384  1.00  0.00    -0.134 N  
HETATM   14  C   UNL     1     -10.069   5.142  69.412  1.00  0.00    -0.234 C  
HETATM   15  H   UNL     1      -9.033   3.606  68.603  1.00  0.00     0.000 HD 
HETATM   16  O   UNL     1     -10.218   4.486  70.442  1.00  0.00    -0.210 OA 
BRANCH  14  17
HETATM   17  C   UNL     1     -10.853   6.436  69.253  1.00  0.00    -0.327 C  
BRANCH  17  18
HETATM   18  C   UNL     1     -10.251   7.625  68.630  1.00  0.00    -0.199 A  
HETATM   19  N   UNL     1     -10.638   8.027  67.356  1.00  0.00    -0.285 NA 
HETATM   20  C   UNL     1      -9.088   8.246  69.075  1.00  0.00    -0.147 A  
HETATM   21  N   UNL     1      -9.696   9.020  65.482  1.00  0.00    -0.461 NA 
HETATM   22  H2  UNL     1      -8.912   9.542  65.090  1.00  0.00     0.000 HD 
HETATM   23  S   UNL     1      -8.406   9.198  67.821  1.00  0.00    -0.116 SA 
HETATM   24  H1  UNL     1     -10.460   8.740  64.868  1.00  0.00     0.000 HD 
HETATM   25  C   UNL     1      -9.691   8.726  66.788  1.00  0.00    -0.221 A  
ENDBRANCH  17  18
BRANCH  17  26
HETATM   26  N   UNL     1     -11.980   6.744  69.834  1.00  0.00    -0.659 NA 
HETATM   27  H   UNL     1     -12.841   6.435  69.382  1.00  0.00     0.000 HD 
BRANCH  26  28
HETATM   28  O   UNL     1     -12.101   7.464  71.028  1.00  0.00    -0.312 OA 
HETATM   29  C   UNL     1     -13.371   7.647  71.616  1.00  0.00    -0.350 C  
ENDBRANCH  26  28
ENDBRANCH  17  26
ENDBRANCH  14  17
ENDBRANCH  11  13
TORSDOF 5
ENDMDL
MODEL      229
REMARK 921   NORMALIZED FREE ENERGY PREDICTED BY IDOCK:   -4.04 KCAL/MOL
REMARK 922        TOTAL FREE ENERGY PREDICTED BY IDOCK:   -5.98 KCAL/MOL
REMARK 923 INTER-LIGAND FREE ENERGY PREDICTED BY IDOCK:   -5.02 KCAL/MOL
REMARK 924 INTRA-LIGAND FREE ENERGY PREDICTED BY IDOCK:   -0.97 KCAL/MOL
REMARK 927      BINDING AFFINITY PREDICTED BY RF-SCORE:    0.00 PKD
ROOT
HETATM    1  CE  UNL     1      -8.604   6.210  70.536  1.00  0.00    -0.138 C  
HETATM    2  SD  UNL     1      -7.160   7.074  71.048  1.00  0.00    -0.071 SA 
HETATM    3  CG  UNL     1      -7.830   8.538  71.897  1.00  0.00    -0.111 C  
HETATM    4  CB  UNL     1      -9.309   8.650  72.002  1.00  0.00    -0.362 C  
HETATM    5  CA  UNL     1     -10.244   7.894  71.402  1.00  0.00    -0.190 C  
HETATM    6  N   UNL     1      -9.863   6.874  70.577  1.00  0.00    -0.179 N  
HETATM    7  C   UNL     1     -11.667   8.320  71.591  1.00  0.00    -0.292 C  
HETATM    8  C   UNL     1     -10.450   6.145  69.586  1.00  0.00    -0.252 C  
HETATM    9  O   UNL     1     -12.620   7.642  70.971  1.00  0.00    -0.255 OA 
HETATM   10  OXT UNL     1     -11.973   9.269  72.317  1.00  0.00    -0.299 OA 
HETATM   11  CA  UNL     1      -9.032   5.730  69.072  1.00  0.00    -0.117 C  
HETATM   12  O   UNL     1     -11.580   6.093  69.226  1.00  0.00    -0.329 OA 
ENDROOT
BRANCH  11  13
HETATM   13  N   UNL     1      -8.785   6.294  67.690  1.00  0.00    -0.114 N  
HETATM   14  C   UNL     1      -8.594   7.573  67.146  1.00  0.00    -0.121 C  
HETATM   15  H   UNL     1      -8.747   5.564  66.979  1.00  0.00     0.000 HD 
HETATM   16  O   UNL     1      -8.506   7.658  65.922  1.00  0.00    -0.131 OA 
BRANCH  14  17
HETATM   17  C   UNL     1      -8.316   8.812  67.984  1.00  0.00    -0.119 C  
BRANCH  17  18
HETATM   18  C   UNL     1      -9.242   9.955  67.992  1.00  0.00    -0.124 A  
HETATM   19  N   UNL     1     -10.301  10.001  68.892  1.00  0.00    -0.191 NA 
HETATM   20  C   UNL     1      -9.349  10.891  66.967  1.00  0.00    -0.163 A  
HETATM   21  N   UNL     1     -12.484  10.782  68.976  1.00  0.00    -0.728 NA 
HETATM   22  H2  UNL     1     -13.201  11.373  68.555  1.00  0.00     0.000 HD 
HETATM   23  S   UNL     1     -10.860  11.700  67.057  1.00  0.00    -0.280 SA 
HETATM   24  H1  UNL     1     -12.722  10.224  69.796  1.00  0.00     0.000 HD 
HETATM   25  C   UNL     1     -11.260  10.762  68.436  1.00  0.00    -0.284 A  
ENDBRANCH  17  18
BRANCH  17  26
HETATM   26  N   UNL     1      -7.188   9.132  68.556  1.00  0.00    -0.072 NA 
HETATM   27  H   UNL     1      -6.941   8.638  69.415  1.00  0.00     0.000 HD 
BRANCH  26  28
HETATM   28  O   UNL     1      -6.291  10.098  68.087  1.00  0.00    -0.053 OA 
HETATM   29  C   UNL     1      -5.403   9.785  67.037  1.00  0.00    -0.042 C  
ENDBRANCH  26  28
ENDBRANCH  17  26
ENDBRANCH  14  17
ENDBRANCH  11  13
TORSDOF 5
ENDMDL
MODEL      230
REMARK 921   NORMALIZED FREE ENERGY PREDICTED BY IDOCK:   -4.03 KCAL/MOL
REMARK 922        TOTAL FREE ENERGY PREDICTED BY IDOCK:   -5.97 KCAL/MOL
REMARK 923 INTER-LIGAND FREE ENERGY PREDICTED BY IDOCK:   -5.20 KCAL/MOL
REMARK 924 INTRA-LIGAND FREE ENERGY PREDICTED BY IDOCK:   -0.77 KCAL/MOL
REMARK 927      BINDING AFFINITY PREDICTED BY RF-SCORE:    0.00 PKD
ROOT
HETATM    1  CE  UNL     1     -10.801   5.657  71.102  1.00  0.00    -0.218 C  
HETATM    2  SD  UNL     1     -10.197   5.293  69.491  1.00  0.00    -0.260 SA 
HETATM    3  CG  UNL     1      -9.487   3.628  69.678  1.00  0.00    -0.175 C  
HETATM    4  CB  UNL     1      -9.602   2.982  71.013  1.00  0.00    -0.224 C  
HETATM    5  CA  UNL     1     -10.016   3.530  72.168  1.00  0.00    -0.164 C  
HETATM    6  N   UNL     1     -10.395   4.842  72.197  1.00  0.00    -0.197 N  
HETATM    7  C   UNL     1      -9.906   2.671  73.390  1.00  0.00    -0.099 C  
HETATM    8  C   UNL     1     -10.543   5.796  73.159  1.00  0.00    -0.244 C  
HETATM    9  O   UNL     1     -10.244   3.186  74.560  1.00  0.00    -0.146 OA 
HETATM   10  OXT UNL     1      -9.526   1.499  73.331  1.00  0.00    -0.071 OA 
HETATM   11  CA  UNL     1     -10.470   6.900  72.052  1.00  0.00    -0.205 C  
HETATM   12  O   UNL     1     -10.512   5.718  74.343  1.00  0.00    -0.265 OA 
ENDROOT
BRANCH  11  13
HETATM   13  N   UNL     1      -9.237   7.755  72.237  1.00  0.00    -0.143 N  
HETATM   14  C   UNL     1      -8.578   8.744  71.490  1.00  0.00    -0.186 C  
HETATM   15  H   UNL     1      -8.768   7.566  73.123  1.00  0.00     0.000 HD 
HETATM   16  O   UNL     1      -7.513   9.170  71.934  1.00  0.00    -0.338 OA 
BRANCH  14  17
HETATM   17  C   UNL     1      -9.188   9.430  70.279  1.00  0.00    -0.245 C  
BRANCH  17  18
HETATM   18  C   UNL     1      -8.516   9.418  68.970  1.00  0.00    -0.129 A  
HETATM   19  N   UNL     1      -8.409  10.584  68.220  1.00  0.00    -0.118 NA 
HETATM   20  C   UNL     1      -8.220   8.267  68.246  1.00  0.00    -0.128 A  
HETATM   21  N   UNL     1      -8.401  11.226  65.990  1.00  0.00    -0.317 NA 
HETATM   22  H2  UNL     1      -8.317  10.940  65.015  1.00  0.00     0.000 HD 
HETATM   23  S   UNL     1      -7.976   8.654  66.592  1.00  0.00    -0.097 SA 
HETATM   24  H1  UNL     1      -8.578  12.207  66.204  1.00  0.00     0.000 HD 
HETATM   25  C   UNL     1      -8.274  10.303  66.951  1.00  0.00    -0.123 A  
ENDBRANCH  17  18
BRANCH  17  26
HETATM   26  N   UNL     1     -10.174  10.286  70.278  1.00  0.00    -0.420 NA 
HETATM   27  H   UNL     1      -9.973  11.234  69.959  1.00  0.00     0.000 HD 
BRANCH  26  28
HETATM   28  O   UNL     1     -11.485  10.006  70.679  1.00  0.00    -0.293 OA 
HETATM   29  C   UNL     1     -12.430  11.048  70.778  1.00  0.00    -0.396 C  
ENDBRANCH  26  28
ENDBRANCH  17  26
ENDBRANCH  14  17
ENDBRANCH  11  13
TORSDOF 5
ENDMDL
MODEL      231
REMARK 921   NORMALIZED FREE ENERGY PREDICTED BY IDOCK:   -3.99 KCAL/MOL
REMARK 922        TOTAL FREE ENERGY PREDICTED BY IDOCK:   -5.92 KCAL/MOL
REMARK 923 INTER-LIGAND FREE ENERGY PREDICTED BY IDOCK:   -5.05 KCAL/MOL
REMARK 924 INTRA-LIGAND FREE ENERGY PREDICTED BY IDOCK:   -0.87 KCAL/MOL
REMARK 927      BINDING AFFINITY PREDICTED BY RF-SCORE:    0.00 PKD
ROOT
HETATM    1  CE  UNL     1      -9.213   5.101  70.816  1.00  0.00    -0.145 C  
HETATM    2  SD  UNL     1     -10.369   5.914  71.863  1.00  0.00    -0.216 SA 
HETATM    3  CG  UNL     1     -11.576   6.607  70.691  1.00  0.00    -0.382 C  
HETATM    4  CB  UNL     1     -11.366   6.323  69.246  1.00  0.00    -0.411 C  
HETATM    5  CA  UNL     1     -10.299   5.757  68.658  1.00  0.00    -0.221 C  
HETATM    6  N   UNL     1      -9.234   5.366  69.418  1.00  0.00    -0.114 N  
HETATM    7  C   UNL     1     -10.311   5.713  67.160  1.00  0.00    -0.248 C  
HETATM    8  C   UNL     1      -7.920   5.086  69.190  1.00  0.00    -0.080 C  
HETATM    9  O   UNL     1      -9.256   5.220  66.532  1.00  0.00    -0.130 OA 
HETATM   10  OXT UNL     1     -11.277   6.107  66.503  1.00  0.00    -0.147 OA 
HETATM   11  CA  UNL     1      -7.628   5.294  70.714  1.00  0.00    -0.083 C  
HETATM   12  O   UNL     1      -7.317   4.962  68.176  1.00  0.00    -0.068 OA 
ENDROOT
BRANCH  11  13
HETATM   13  N   UNL     1      -6.721   6.485  70.921  1.00  0.00    -0.053 N  
HETATM   14  C   UNL     1      -6.892   7.874  71.016  1.00  0.00    -0.041 C  
HETATM   15  H   UNL     1      -5.742   6.211  71.015  1.00  0.00     0.000 HD 
HETATM   16  O   UNL     1      -5.876   8.564  71.101  1.00  0.00    -0.033 OA 
BRANCH  14  17
HETATM   17  C   UNL     1      -8.244   8.546  71.199  1.00  0.00    -0.144 C  
BRANCH  17  18
HETATM   18  C   UNL     1      -8.924   9.219  70.081  1.00  0.00    -0.214 A  
HETATM   19  N   UNL     1     -10.086   9.951  70.299  1.00  0.00    -0.266 NA 
HETATM   20  C   UNL     1      -8.682   8.954  68.736  1.00  0.00    -0.137 A  
HETATM   21  N   UNL     1     -12.065  10.447  69.193  1.00  0.00    -0.651 NA 
HETATM   22  H2  UNL     1     -12.577  10.450  68.311  1.00  0.00     0.000 HD 
HETATM   23  S   UNL     1     -10.006   9.482  67.781  1.00  0.00    -0.186 SA 
HETATM   24  H1  UNL     1     -12.534  10.768  70.039  1.00  0.00     0.000 HD 
HETATM   25  C   UNL     1     -10.796  10.022  69.204  1.00  0.00    -0.222 A  
ENDBRANCH  17  18
BRANCH  17  26
HETATM   26  N   UNL     1      -8.827   8.836  72.330  1.00  0.00    -0.400 NA 
HETATM   27  H   UNL     1      -9.209   9.777  72.434  1.00  0.00     0.000 HD 
BRANCH  26  28
HETATM   28  O   UNL     1      -8.971   7.959  73.412  1.00  0.00    -0.224 OA 
HETATM   29  C   UNL     1      -7.956   7.870  74.387  1.00  0.00    -0.234 C  
ENDBRANCH  26  28
ENDBRANCH  17  26
ENDBRANCH  14  17
ENDBRANCH  11  13
TORSDOF 5
ENDMDL
MODEL      232
REMARK 921   NORMALIZED FREE ENERGY PREDICTED BY IDOCK:   -3.99 KCAL/MOL
REMARK 922        TOTAL FREE ENERGY PREDICTED BY IDOCK:   -5.92 KCAL/MOL
REMARK 923 INTER-LIGAND FREE ENERGY PREDICTED BY IDOCK:   -4.83 KCAL/MOL
REMARK 924 INTRA-LIGAND FREE ENERGY PREDICTED BY IDOCK:   -1.09 KCAL/MOL
REMARK 927      BINDING AFFINITY PREDICTED BY RF-SCORE:    0.00 PKD
ROOT
HETATM    1  CE  UNL     1     -10.785   8.033  68.474  1.00  0.00    -0.018 C  
HETATM    2  SD  UNL     1     -10.117   6.649  67.618  1.00  0.00    -0.173 SA 
HETATM    3  CG  UNL     1     -10.069   5.353  68.894  1.00  0.00    -0.195 C  
HETATM    4  CB  UNL     1     -10.597   5.700  70.241  1.00  0.00    -0.370 C  
HETATM    5  CA  UNL     1     -10.956   6.908  70.706  1.00  0.00    -0.259 C  
HETATM    6  N   UNL     1     -10.854   8.004  69.896  1.00  0.00    -0.242 N  
HETATM    7  C   UNL     1     -11.333   6.980  72.154  1.00  0.00    -0.265 C  
HETATM    8  C   UNL     1     -10.798   9.353  70.078  1.00  0.00    -0.241 C  
HETATM    9  O   UNL     1     -11.638   8.158  72.673  1.00  0.00    -0.397 OA 
HETATM   10  OXT UNL     1     -11.382   5.973  72.865  1.00  0.00    -0.256 OA 
HETATM   11  CA  UNL     1     -10.183   9.505  68.647  1.00  0.00    -0.195 C  
HETATM   12  O   UNL     1     -10.970  10.014  71.049  1.00  0.00    -0.322 OA 
ENDROOT
BRANCH  11  13
HETATM   13  N   UNL     1      -8.770  10.036  68.731  1.00  0.00    -0.129 N  
HETATM   14  C   UNL     1      -7.683  10.143  67.850  1.00  0.00    -0.089 C  
HETATM   15  H   UNL     1      -8.554  10.408  69.656  1.00  0.00     0.000 HD 
HETATM   16  O   UNL     1      -6.623  10.565  68.311  1.00  0.00    -0.059 OA 
BRANCH  14  17
HETATM   17  C   UNL     1      -7.794   9.941  66.347  1.00  0.00    -0.107 C  
BRANCH  17  18
HETATM   18  C   UNL     1      -7.350   8.693  65.707  1.00  0.00    -0.081 A  
HETATM   19  N   UNL     1      -7.990   8.218  64.567  1.00  0.00    -0.140 NA 
HETATM   20  C   UNL     1      -6.517   7.752  66.305  1.00  0.00    -0.046 A  
HETATM   21  N   UNL     1      -8.542   6.182  63.601  1.00  0.00    -0.323 NA 
HETATM   22  H2  UNL     1      -8.395   5.172  63.583  1.00  0.00     0.000 HD 
HETATM   23  S   UNL     1      -6.681   6.233  65.523  1.00  0.00    -0.049 SA 
HETATM   24  H1  UNL     1      -9.225   6.593  62.966  1.00  0.00     0.000 HD 
HETATM   25  C   UNL     1      -7.830   6.925  64.456  1.00  0.00    -0.115 A  
ENDBRANCH  17  18
BRANCH  17  26
HETATM   26  N   UNL     1      -8.024  10.859  65.449  1.00  0.00    -0.357 NA 
HETATM   27  H   UNL     1      -7.330  10.978  64.710  1.00  0.00     0.000 HD 
BRANCH  26  28
HETATM   28  O   UNL     1      -9.148  11.693  65.418  1.00  0.00    -0.136 OA 
HETATM   29  C   UNL     1     -10.435  11.137  65.260  1.00  0.00    -0.263 C  
ENDBRANCH  26  28
ENDBRANCH  17  26
ENDBRANCH  14  17
ENDBRANCH  11  13
TORSDOF 5
ENDMDL
MODEL      233
REMARK 921   NORMALIZED FREE ENERGY PREDICTED BY IDOCK:   -3.95 KCAL/MOL
REMARK 922        TOTAL FREE ENERGY PREDICTED BY IDOCK:   -5.86 KCAL/MOL
REMARK 923 INTER-LIGAND FREE ENERGY PREDICTED BY IDOCK:   -5.17 KCAL/MOL
REMARK 924 INTRA-LIGAND FREE ENERGY PREDICTED BY IDOCK:   -0.69 KCAL/MOL
REMARK 927      BINDING AFFINITY PREDICTED BY RF-SCORE:    0.00 PKD
ROOT
HETATM    1  CE  UNL     1      -9.115   8.892  71.296  1.00  0.00    -0.253 C  
HETATM    2  SD  UNL     1      -7.888   8.826  70.036  1.00  0.00    -0.102 SA 
HETATM    3  CG  UNL     1      -8.682   9.677  68.637  1.00  0.00    -0.124 C  
HETATM    4  CB  UNL     1     -10.046  10.229  68.858  1.00  0.00    -0.216 C  
HETATM    5  CA  UNL     1     -10.858  10.040  69.911  1.00  0.00    -0.285 C  
HETATM    6  N   UNL     1     -10.448   9.254  70.950  1.00  0.00    -0.276 N  
HETATM    7  C   UNL     1     -12.235  10.620  69.803  1.00  0.00    -0.247 C  
HETATM    8  C   UNL     1     -11.056   8.585  71.970  1.00  0.00    -0.342 C  
HETATM    9  O   UNL     1     -13.091  10.409  70.789  1.00  0.00    -0.385 OA 
HETATM   10  OXT UNL     1     -12.583  11.297  68.833  1.00  0.00    -0.327 OA 
HETATM   11  CA  UNL     1      -9.776   7.698  72.130  1.00  0.00    -0.173 C  
HETATM   12  O   UNL     1     -12.179   8.606  72.353  1.00  0.00    -0.374 OA 
ENDROOT
BRANCH  11  13
HETATM   13  N   UNL     1     -10.085   6.257  71.795  1.00  0.00    -0.185 N  
HETATM   14  C   UNL     1      -9.648   5.332  70.835  1.00  0.00    -0.175 C  
HETATM   15  H   UNL     1     -10.785   5.858  72.422  1.00  0.00     0.000 HD 
HETATM   16  O   UNL     1     -10.208   4.236  70.811  1.00  0.00    -0.142 OA 
BRANCH  14  17
HETATM   17  C   UNL     1      -8.423   5.542  69.960  1.00  0.00    -0.120 C  
BRANCH  17  18
HETATM   18  C   UNL     1      -8.527   5.595  68.493  1.00  0.00    -0.105 A  
HETATM   19  N   UNL     1      -9.765   5.748  67.879  1.00  0.00    -0.116 NA 
HETATM   20  C   UNL     1      -7.521   5.203  67.616  1.00  0.00    -0.083 A  
HETATM   21  N   UNL     1     -10.847   5.061  65.944  1.00  0.00    -0.714 NA 
HETATM   22  H2  UNL     1     -10.763   4.654  65.012  1.00  0.00     0.000 HD 
HETATM   23  S   UNL     1      -8.180   4.872  66.067  1.00  0.00    -0.113 SA 
HETATM   24  H1  UNL     1     -11.773   5.298  66.298  1.00  0.00     0.000 HD 
HETATM   25  C   UNL     1      -9.737   5.269  66.663  1.00  0.00    -0.164 A  
ENDBRANCH  17  18
BRANCH  17  26
HETATM   26  N   UNL     1      -7.174   5.445  70.326  1.00  0.00    -0.064 NA 
HETATM   27  H   UNL     1      -6.534   4.966  69.691  1.00  0.00     0.000 HD 
BRANCH  26  28
HETATM   28  O   UNL     1      -6.642   5.944  71.520  1.00  0.00    -0.050 OA 
HETATM   29  C   UNL     1      -6.375   5.069  72.594  1.00  0.00    -0.039 C  
ENDBRANCH  26  28
ENDBRANCH  17  26
ENDBRANCH  14  17
ENDBRANCH  11  13
TORSDOF 5
ENDMDL
MODEL      234
REMARK 921   NORMALIZED FREE ENERGY PREDICTED BY IDOCK:   -3.95 KCAL/MOL
REMARK 922        TOTAL FREE ENERGY PREDICTED BY IDOCK:   -5.86 KCAL/MOL
REMARK 923 INTER-LIGAND FREE ENERGY PREDICTED BY IDOCK:   -5.34 KCAL/MOL
REMARK 924 INTRA-LIGAND FREE ENERGY PREDICTED BY IDOCK:   -0.52 KCAL/MOL
REMARK 927      BINDING AFFINITY PREDICTED BY RF-SCORE:    0.00 PKD
ROOT
HETATM    1  CE  UNL     1      -9.544   7.923  69.761  1.00  0.00    -0.167 C  
HETATM    2  SD  UNL     1     -11.086   7.076  69.785  1.00  0.00    -0.214 SA 
HETATM    3  CG  UNL     1     -10.623   5.358  69.406  1.00  0.00    -0.225 C  
HETATM    4  CB  UNL     1      -9.176   5.065  69.221  1.00  0.00    -0.155 C  
HETATM    5  CA  UNL     1      -8.158   5.936  69.127  1.00  0.00    -0.106 C  
HETATM    6  N   UNL     1      -8.404   7.277  69.204  1.00  0.00    -0.131 N  
HETATM    7  C   UNL     1      -6.813   5.356  68.813  1.00  0.00    -0.055 C  
HETATM    8  C   UNL     1      -7.747   8.415  68.842  1.00  0.00    -0.105 C  
HETATM    9  O   UNL     1      -5.790   6.179  68.652  1.00  0.00    -0.014 OA 
HETATM   10  OXT UNL     1      -6.633   4.139  68.717  1.00  0.00    -0.043 OA 
HETATM   11  CA  UNL     1      -9.101   9.197  68.901  1.00  0.00    -0.139 C  
HETATM   12  O   UNL     1      -6.637   8.581  68.455  1.00  0.00    -0.058 OA 
ENDROOT
BRANCH  11  13
HETATM   13  N   UNL     1      -9.485   9.695  67.526  1.00  0.00    -0.133 N  
HETATM   14  C   UNL     1     -10.157  10.816  67.015  1.00  0.00    -0.208 C  
HETATM   15  H   UNL     1      -9.179   9.061  66.788  1.00  0.00     0.000 HD 
HETATM   16  O   UNL     1     -10.369  10.843  65.803  1.00  0.00    -0.247 OA 
BRANCH  14  17
HETATM   17  C   UNL     1     -10.472  12.056  67.836  1.00  0.00    -0.202 C  
BRANCH  17  18
HETATM   18  C   UNL     1     -10.344  13.406  67.266  1.00  0.00    -0.244 A  
HETATM   19  N   UNL     1     -11.280  13.878  66.352  1.00  0.00    -0.310 NA 
HETATM   20  C   UNL     1      -9.189  14.181  67.322  1.00  0.00    -0.219 A  
HETATM   21  N   UNL     1     -11.351  15.255  64.485  1.00  0.00    -0.653 NA 
HETATM   22  H2  UNL     1     -10.879  15.962  63.921  1.00  0.00     0.000 HD 
HETATM   23  S   UNL     1      -9.227  15.392  66.107  1.00  0.00    -0.295 SA 
HETATM   24  H1  UNL     1     -12.262  14.909  64.183  1.00  0.00     0.000 HD 
HETATM   25  C   UNL     1     -10.758  14.810  65.599  1.00  0.00    -0.336 A  
ENDBRANCH  17  18
BRANCH  17  26
HETATM   26  N   UNL     1     -10.626  12.120  69.131  1.00  0.00    -0.427 NA 
HETATM   27  H   UNL     1      -9.796  12.312  69.694  1.00  0.00     0.000 HD 
BRANCH  26  28
HETATM   28  O   UNL     1     -11.838  11.945  69.808  1.00  0.00    -0.309 OA 
HETATM   29  C   UNL     1     -11.960  10.934  70.785  1.00  0.00    -0.346 C  
ENDBRANCH  26  28
ENDBRANCH  17  26
ENDBRANCH  14  17
ENDBRANCH  11  13
TORSDOF 5
ENDMDL
MODEL      235
REMARK 921   NORMALIZED FREE ENERGY PREDICTED BY IDOCK:   -3.90 KCAL/MOL
REMARK 922        TOTAL FREE ENERGY PREDICTED BY IDOCK:   -5.80 KCAL/MOL
REMARK 923 INTER-LIGAND FREE ENERGY PREDICTED BY IDOCK:   -5.14 KCAL/MOL
REMARK 924 INTRA-LIGAND FREE ENERGY PREDICTED BY IDOCK:   -0.66 KCAL/MOL
REMARK 927      BINDING AFFINITY PREDICTED BY RF-SCORE:    0.00 PKD
ROOT
HETATM    1  CE  UNL     1      -8.272  14.111  67.942  1.00  0.00    -0.155 C  
HETATM    2  SD  UNL     1      -6.609  14.633  68.186  1.00  0.00    -0.150 SA 
HETATM    3  CG  UNL     1      -6.568  16.272  67.396  1.00  0.00    -0.179 C  
HETATM    4  CB  UNL     1      -7.838  16.782  66.813  1.00  0.00    -0.281 C  
HETATM    5  CA  UNL     1      -8.994  16.122  66.635  1.00  0.00    -0.255 C  
HETATM    6  N   UNL     1      -9.093  14.813  67.014  1.00  0.00    -0.226 N  
HETATM    7  C   UNL     1     -10.074  16.856  65.901  1.00  0.00    -0.283 C  
HETATM    8  C   UNL     1      -9.916  13.768  66.718  1.00  0.00    -0.270 C  
HETATM    9  O   UNL     1     -11.210  16.227  65.649  1.00  0.00    -0.041 OA 
HETATM   10  OXT UNL     1      -9.938  18.029  65.543  1.00  0.00    -0.458 OA 
HETATM   11  CA  UNL     1      -8.825  12.779  67.249  1.00  0.00    -0.198 C  
HETATM   12  O   UNL     1     -10.934  13.729  66.110  1.00  0.00    -0.291 OA 
ENDROOT
BRANCH  11  13
HETATM   13  N   UNL     1      -8.305  11.912  66.125  1.00  0.00    -0.389 N  
HETATM   14  C   UNL     1      -8.299  10.539  65.836  1.00  0.00    -0.161 C  
HETATM   15  H   UNL     1      -7.846  12.460  65.398  1.00  0.00     0.000 HD 
HETATM   16  O   UNL     1      -7.684  10.175  64.834  1.00  0.00    -0.139 OA 
BRANCH  14  17
HETATM   17  C   UNL     1      -9.146   9.518  66.580  1.00  0.00    -0.151 C  
BRANCH  17  18
HETATM   18  C   UNL     1      -8.720   8.115  66.707  1.00  0.00    -0.135 A  
HETATM   19  N   UNL     1      -9.618   7.080  66.470  1.00  0.00    -0.170 NA 
HETATM   20  C   UNL     1      -7.555   7.700  67.344  1.00  0.00    -0.109 A  
HETATM   21  N   UNL     1     -10.056   4.940  67.253  1.00  0.00    -0.183 NA 
HETATM   22  H2  UNL     1      -9.724   4.137  67.787  1.00  0.00     0.000 HD 
HETATM   23  S   UNL     1      -7.677   6.046  67.785  1.00  0.00    -0.102 SA 
HETATM   24  H1  UNL     1     -10.991   4.912  66.848  1.00  0.00     0.000 HD 
HETATM   25  C   UNL     1      -9.250   5.999  67.105  1.00  0.00    -0.117 A  
ENDBRANCH  17  18
BRANCH  17  26
HETATM   26  N   UNL     1     -10.390   9.653  66.948  1.00  0.00    -0.245 NA 
HETATM   27  H   UNL     1     -11.093   9.730  66.212  1.00  0.00     0.000 HD 
BRANCH  26  28
HETATM   28  O   UNL     1     -10.838   9.702  68.273  1.00  0.00    -0.231 OA 
HETATM   29  C   UNL     1      -9.993  10.203  69.286  1.00  0.00    -0.219 C  
ENDBRANCH  26  28
ENDBRANCH  17  26
ENDBRANCH  14  17
ENDBRANCH  11  13
TORSDOF 5
ENDMDL
MODEL      236
REMARK 921   NORMALIZED FREE ENERGY PREDICTED BY IDOCK:   -3.87 KCAL/MOL
REMARK 922        TOTAL FREE ENERGY PREDICTED BY IDOCK:   -5.77 KCAL/MOL
REMARK 923 INTER-LIGAND FREE ENERGY PREDICTED BY IDOCK:   -4.73 KCAL/MOL
REMARK 924 INTRA-LIGAND FREE ENERGY PREDICTED BY IDOCK:   -1.03 KCAL/MOL
REMARK 927      BINDING AFFINITY PREDICTED BY RF-SCORE:    0.00 PKD
ROOT
HETATM    1  CE  UNL     1      -9.948   5.461  69.961  1.00  0.00    -0.233 C  
HETATM    2  SD  UNL     1      -8.623   4.691  69.098  1.00  0.00    -0.080 SA 
HETATM    3  CG  UNL     1      -8.317   3.181  70.066  1.00  0.00    -0.048 C  
HETATM    4  CB  UNL     1      -9.200   2.929  71.236  1.00  0.00    -0.194 C  
HETATM    5  CA  UNL     1     -10.101   3.757  71.791  1.00  0.00    -0.104 C  
HETATM    6  N   UNL     1     -10.286   5.005  71.267  1.00  0.00    -0.211 N  
HETATM    7  C   UNL     1     -10.759   3.279  73.049  1.00  0.00    -0.125 C  
HETATM    8  C   UNL     1     -10.814   6.182  71.707  1.00  0.00    -0.255 C  
HETATM    9  O   UNL     1     -11.609   4.084  73.665  1.00  0.00    -0.182 OA 
HETATM   10  OXT UNL     1     -10.542   2.157  73.513  1.00  0.00    -0.112 OA 
HETATM   11  CA  UNL     1     -10.037   6.935  70.576  1.00  0.00    -0.187 C  
HETATM   12  O   UNL     1     -11.430   6.439  72.689  1.00  0.00    -0.256 OA 
ENDROOT
BRANCH  11  13
HETATM   13  N   UNL     1      -9.005   7.865  71.172  1.00  0.00    -0.136 N  
HETATM   14  C   UNL     1      -8.150   8.864  70.683  1.00  0.00    -0.144 C  
HETATM   15  H   UNL     1      -8.906   7.735  72.179  1.00  0.00     0.000 HD 
HETATM   16  O   UNL     1      -7.356   9.367  71.477  1.00  0.00    -0.334 OA 
BRANCH  14  17
HETATM   17  C   UNL     1      -8.274   9.472  69.294  1.00  0.00    -0.112 C  
BRANCH  17  18
HETATM   18  C   UNL     1      -9.419  10.320  68.927  1.00  0.00    -0.188 A  
HETATM   19  N   UNL     1     -10.542  10.382  69.745  1.00  0.00    -0.260 NA 
HETATM   20  C   UNL     1      -9.627  10.860  67.662  1.00  0.00    -0.163 A  
HETATM   21  N   UNL     1     -12.840  10.624  69.533  1.00  0.00    -0.560 NA 
HETATM   22  H2  UNL     1     -13.624  10.881  68.934  1.00  0.00     0.000 HD 
HETATM   23  S   UNL     1     -11.278  11.285  67.463  1.00  0.00    -0.280 SA 
HETATM   24  H1  UNL     1     -13.029  10.294  70.479  1.00  0.00     0.000 HD 
HETATM   25  C   UNL     1     -11.595  10.730  69.054  1.00  0.00    -0.299 A  
ENDBRANCH  17  18
BRANCH  17  26
HETATM   26  N   UNL     1      -7.588   9.145  68.233  1.00  0.00    -0.083 NA 
HETATM   27  H   UNL     1      -6.928   9.834  67.869  1.00  0.00     0.000 HD 
BRANCH  26  28
HETATM   28  O   UNL     1      -7.686   7.925  67.553  1.00  0.00    -0.112 OA 
HETATM   29  C   UNL     1      -7.346   7.850  66.186  1.00  0.00    -0.074 C  
ENDBRANCH  26  28
ENDBRANCH  17  26
ENDBRANCH  14  17
ENDBRANCH  11  13
TORSDOF 5
ENDMDL
MODEL      237
REMARK 921   NORMALIZED FREE ENERGY PREDICTED BY IDOCK:   -3.87 KCAL/MOL
REMARK 922        TOTAL FREE ENERGY PREDICTED BY IDOCK:   -5.76 KCAL/MOL
REMARK 923 INTER-LIGAND FREE ENERGY PREDICTED BY IDOCK:   -5.36 KCAL/MOL
REMARK 924 INTRA-LIGAND FREE ENERGY PREDICTED BY IDOCK:   -0.40 KCAL/MOL
REMARK 927      BINDING AFFINITY PREDICTED BY RF-SCORE:    0.00 PKD
ROOT
HETATM    1  CE  UNL     1      -9.586  13.086  65.768  1.00  0.00    -0.059 C  
HETATM    2  SD  UNL     1     -10.548  11.724  66.329  1.00  0.00    -0.262 SA 
HETATM    3  CG  UNL     1     -12.254  12.235  65.952  1.00  0.00    -0.017 C  
HETATM    4  CB  UNL     1     -12.440  13.547  65.276  1.00  0.00    -0.525 C  
HETATM    5  CA  UNL     1     -11.524  14.503  65.050  1.00  0.00    -0.382 C  
HETATM    6  N   UNL     1     -10.235  14.317  65.463  1.00  0.00    -0.340 N  
HETATM    7  C   UNL     1     -12.028  15.783  64.458  1.00  0.00    -0.060 C  
HETATM    8  C   UNL     1      -9.162  15.119  65.712  1.00  0.00    -0.047 C  
HETATM    9  O   UNL     1     -11.174  16.776  64.272  1.00  0.00    -1.163 OA 
HETATM   10  OXT UNL     1     -13.208  15.929  64.128  1.00  0.00     0.032 OA 
HETATM   11  CA  UNL     1      -8.525  13.975  66.568  1.00  0.00     0.308 C  
HETATM   12  O   UNL     1      -8.987  16.273  65.494  1.00  0.00    -0.336 OA 
ENDROOT
BRANCH  11  13
HETATM   13  N   UNL     1      -8.417  14.395  68.017  1.00  0.00    -0.155 N  
HETATM   14  C   UNL     1      -9.237  15.076  68.929  1.00  0.00    -0.206 C  
HETATM   15  H   UNL     1      -7.530  14.114  68.434  1.00  0.00     0.000 HD 
HETATM   16  O   UNL     1      -8.765  15.322  70.038  1.00  0.00    -0.010 OA 
BRANCH  14  17
HETATM   17  C   UNL     1     -10.711  15.360  68.686  1.00  0.00    -0.246 C  
BRANCH  17  18
HETATM   18  C   UNL     1     -11.760  14.462  69.195  1.00  0.00    -0.317 A  
HETATM   19  N   UNL     1     -12.742  14.939  70.056  1.00  0.00    -0.213 NA 
HETATM   20  C   UNL     1     -11.705  13.073  69.135  1.00  0.00    -0.326 A  
HETATM   21  N   UNL     1     -14.003  14.180  71.851  1.00  0.00    -0.449 NA 
HETATM   22  H2  UNL     1     -14.328  13.381  72.394  1.00  0.00     0.000 HD 
HETATM   23  S   UNL     1     -12.775  12.387  70.289  1.00  0.00     0.304 SA 
HETATM   24  H1  UNL     1     -14.275  15.119  72.141  1.00  0.00     0.000 HD 
HETATM   25  C   UNL     1     -13.232  13.966  70.778  1.00  0.00    -0.067 A  
ENDBRANCH  17  18
BRANCH  17  26
HETATM   26  N   UNL     1     -11.214  16.216  67.839  1.00  0.00    -0.294 NA 
HETATM   27  H   UNL     1     -11.931  15.876  67.197  1.00  0.00     0.000 HD 
BRANCH  26  28
HETATM   28  O   UNL     1     -10.849  17.564  67.741  1.00  0.00    -0.368 OA 
HETATM   29  C   UNL     1     -10.340  18.241  68.869  1.00  0.00    -0.166 C  
ENDBRANCH  26  28
ENDBRANCH  17  26
ENDBRANCH  14  17
ENDBRANCH  11  13
TORSDOF 5
ENDMDL
MODEL      238
REMARK 921   NORMALIZED FREE ENERGY PREDICTED BY IDOCK:   -3.87 KCAL/MOL
REMARK 922        TOTAL FREE ENERGY PREDICTED BY IDOCK:   -5.76 KCAL/MOL
REMARK 923 INTER-LIGAND FREE ENERGY PREDICTED BY IDOCK:   -5.68 KCAL/MOL
REMARK 924 INTRA-LIGAND FREE ENERGY PREDICTED BY IDOCK:   -0.08 KCAL/MOL
REMARK 927      BINDING AFFINITY PREDICTED BY RF-SCORE:    0.00 PKD
ROOT
HETATM    1  CE  UNL     1      -9.021   8.624  68.187  1.00  0.00    -0.141 C  
HETATM    2  SD  UNL     1      -7.676   9.597  67.604  1.00  0.00    -0.094 SA 
HETATM    3  CG  UNL     1      -6.712   9.922  69.113  1.00  0.00    -0.054 C  
HETATM    4  CB  UNL     1      -7.200   9.313  70.380  1.00  0.00    -0.097 C  
HETATM    5  CA  UNL     1      -8.366   8.684  70.604  1.00  0.00    -0.143 C  
HETATM    6  N   UNL     1      -9.268   8.546  69.587  1.00  0.00    -0.156 N  
HETATM    7  C   UNL     1      -8.645   8.283  72.020  1.00  0.00    -0.178 C  
HETATM    8  C   UNL     1     -10.604   8.294  69.491  1.00  0.00    -0.213 C  
HETATM    9  O   UNL     1      -9.806   7.714  72.301  1.00  0.00    -0.162 OA 
HETATM   10  OXT UNL     1      -7.820   8.455  72.921  1.00  0.00    -0.257 OA 
HETATM   11  CA  UNL     1     -10.593   8.875  68.038  1.00  0.00    -0.168 C  
HETATM   12  O   UNL     1     -11.393   7.965  70.315  1.00  0.00    -0.247 OA 
ENDROOT
BRANCH  11  13
HETATM   13  N   UNL     1     -11.433  10.130  67.965  1.00  0.00    -0.496 N  
HETATM   14  C   UNL     1     -11.290  11.403  67.392  1.00  0.00    -0.288 C  
HETATM   15  H   UNL     1     -12.323  10.026  68.452  1.00  0.00     0.000 HD 
HETATM   16  O   UNL     1     -12.174  12.228  67.620  1.00  0.00    -0.442 OA 
BRANCH  14  17
HETATM   17  C   UNL     1     -10.213  11.753  66.376  1.00  0.00    -0.215 C  
BRANCH  17  18
HETATM   18  C   UNL     1      -9.560  13.071  66.375  1.00  0.00    -0.257 A  
HETATM   19  N   UNL     1      -8.331  13.251  67.001  1.00  0.00    -0.132 NA 
HETATM   20  C   UNL     1     -10.196  14.267  66.055  1.00  0.00    -0.315 A  
HETATM   21  N   UNL     1      -7.198  14.902  68.173  1.00  0.00    -0.109 NA 
HETATM   22  H2  UNL     1      -7.142  15.888  68.429  1.00  0.00     0.000 HD 
HETATM   23  S   UNL     1      -9.319  15.595  66.696  1.00  0.00    -0.290 SA 
HETATM   24  H1  UNL     1      -6.514  14.252  68.558  1.00  0.00     0.000 HD 
HETATM   25  C   UNL     1      -8.168  14.502  67.343  1.00  0.00    -0.202 A  
ENDBRANCH  17  18
BRANCH  17  26
HETATM   26  N   UNL     1      -9.924  11.098  65.285  1.00  0.00    -0.245 NA 
HETATM   27  H   UNL     1      -9.164  10.418  65.333  1.00  0.00     0.000 HD 
BRANCH  26  28
HETATM   28  O   UNL     1     -10.572  11.254  64.055  1.00  0.00    -0.340 OA 
HETATM   29  C   UNL     1     -11.425  12.357  63.842  1.00  0.00    -0.436 C  
ENDBRANCH  26  28
ENDBRANCH  17  26
ENDBRANCH  14  17
ENDBRANCH  11  13
TORSDOF 5
ENDMDL
MODEL      239
REMARK 921   NORMALIZED FREE ENERGY PREDICTED BY IDOCK:   -3.84 KCAL/MOL
REMARK 922        TOTAL FREE ENERGY PREDICTED BY IDOCK:   -5.73 KCAL/MOL
REMARK 923 INTER-LIGAND FREE ENERGY PREDICTED BY IDOCK:   -4.82 KCAL/MOL
REMARK 924 INTRA-LIGAND FREE ENERGY PREDICTED BY IDOCK:   -0.90 KCAL/MOL
REMARK 927      BINDING AFFINITY PREDICTED BY RF-SCORE:    0.00 PKD
ROOT
HETATM    1  CE  UNL     1      -8.302  10.155  69.243  1.00  0.00    -0.158 C  
HETATM    2  SD  UNL     1      -6.758  10.966  69.478  1.00  0.00    -0.130 SA 
HETATM    3  CG  UNL     1      -6.678  12.123  68.076  1.00  0.00    -0.073 C  
HETATM    4  CB  UNL     1      -7.844  12.160  67.153  1.00  0.00    -0.160 C  
HETATM    5  CA  UNL     1      -8.896  11.326  67.110  1.00  0.00    -0.153 C  
HETATM    6  N   UNL     1      -8.975  10.289  67.996  1.00  0.00    -0.131 N  
HETATM    7  C   UNL     1      -9.862  11.530  65.983  1.00  0.00    -0.225 C  
HETATM    8  C   UNL     1      -9.651   9.107  68.061  1.00  0.00    -0.147 C  
HETATM    9  O   UNL     1     -10.882  10.696  65.864  1.00  0.00    -0.104 OA 
HETATM   10  OXT UNL     1      -9.741  12.458  65.180  1.00  0.00    -0.179 OA 
HETATM   11  CA  UNL     1      -8.617   8.593  69.117  1.00  0.00    -0.129 C  
HETATM   12  O   UNL     1     -10.527   8.676  67.387  1.00  0.00    -0.263 OA 
ENDROOT
BRANCH  11  13
HETATM   13  N   UNL     1      -7.832   7.425  68.564  1.00  0.00    -0.120 N  
HETATM   14  C   UNL     1      -8.081   6.063  68.338  1.00  0.00    -0.107 C  
HETATM   15  H   UNL     1      -6.888   7.695  68.285  1.00  0.00     0.000 HD 
HETATM   16  O   UNL     1      -7.141   5.375  67.941  1.00  0.00    -0.064 OA 
BRANCH  14  17
HETATM   17  C   UNL     1      -9.468   5.442  68.385  1.00  0.00    -0.123 C  
BRANCH  17  18
HETATM   18  C   UNL     1     -10.293   5.498  69.602  1.00  0.00    -0.289 A  
HETATM   19  N   UNL     1     -11.466   6.246  69.626  1.00  0.00    -0.429 NA 
HETATM   20  C   UNL     1      -9.863   5.106  70.866  1.00  0.00    -0.199 A  
HETATM   21  N   UNL     1     -12.690   7.518  71.133  1.00  0.00    -0.516 NA 
HETATM   22  H2  UNL     1     -12.855   7.771  72.107  1.00  0.00     0.000 HD 
HETATM   23  S   UNL     1     -10.845   5.824  72.076  1.00  0.00    -0.255 SA 
HETATM   24  H1  UNL     1     -13.236   7.976  70.403  1.00  0.00     0.000 HD 
HETATM   25  C   UNL     1     -11.763   6.594  70.850  1.00  0.00    -0.375 A  
ENDBRANCH  17  18
BRANCH  17  26
HETATM   26  N   UNL     1      -9.981   4.606  67.523  1.00  0.00    -0.151 NA 
HETATM   27  H   UNL     1     -10.954   4.751  67.251  1.00  0.00     0.000 HD 
BRANCH  26  28
HETATM   28  O   UNL     1      -9.303   3.528  66.943  1.00  0.00    -0.177 OA 
HETATM   29  C   UNL     1      -9.218   2.298  67.629  1.00  0.00    -0.168 C  
ENDBRANCH  26  28
ENDBRANCH  17  26
ENDBRANCH  14  17
ENDBRANCH  11  13
TORSDOF 5
ENDMDL
MODEL      240
REMARK 921   NORMALIZED FREE ENERGY PREDICTED BY IDOCK:   -3.83 KCAL/MOL
REMARK 922        TOTAL FREE ENERGY PREDICTED BY IDOCK:   -5.71 KCAL/MOL
REMARK 923 INTER-LIGAND FREE ENERGY PREDICTED BY IDOCK:   -5.01 KCAL/MOL
REMARK 924 INTRA-LIGAND FREE ENERGY PREDICTED BY IDOCK:   -0.71 KCAL/MOL
REMARK 927      BINDING AFFINITY PREDICTED BY RF-SCORE:    0.00 PKD
ROOT
HETATM    1  CE  UNL     1      -9.533  10.205  69.799  1.00  0.00    -0.167 C  
HETATM    2  SD  UNL     1     -11.183  10.677  70.187  1.00  0.00    -0.276 SA 
HETATM    3  CG  UNL     1     -11.959   9.108  70.684  1.00  0.00    -0.124 C  
HETATM    4  CB  UNL     1     -11.099   7.894  70.697  1.00  0.00    -0.263 C  
HETATM    5  CA  UNL     1      -9.850   7.757  70.224  1.00  0.00    -0.184 C  
HETATM    6  N   UNL     1      -9.223   8.823  69.646  1.00  0.00    -0.148 N  
HETATM    7  C   UNL     1      -9.273   6.374  70.257  1.00  0.00    -0.155 C  
HETATM    8  C   UNL     1      -8.167   8.998  68.801  1.00  0.00    -0.117 C  
HETATM    9  O   UNL     1      -8.068   6.177  69.748  1.00  0.00    -0.114 OA 
HETATM   10  OXT UNL     1      -9.882   5.425  70.758  1.00  0.00    -0.170 OA 
HETATM   11  CA  UNL     1      -8.707  10.424  68.448  1.00  0.00    -0.129 C  
HETATM   12  O   UNL     1      -7.351   8.231  68.409  1.00  0.00    -0.090 OA 
ENDROOT
BRANCH  11  13
HETATM   13  N   UNL     1      -9.112  10.490  66.993  1.00  0.00    -0.143 N  
HETATM   14  C   UNL     1      -9.784  11.414  66.178  1.00  0.00    -0.219 C  
HETATM   15  H   UNL     1      -8.827   9.658  66.476  1.00  0.00     0.000 HD 
HETATM   16  O   UNL     1     -10.019  11.077  65.017  1.00  0.00    -0.245 OA 
BRANCH  14  17
HETATM   17  C   UNL     1     -10.072  12.849  66.591  1.00  0.00    -0.245 C  
BRANCH  17  18
HETATM   18  C   UNL     1      -8.989  13.768  66.976  1.00  0.00    -0.238 A  
HETATM   19  N   UNL     1      -8.098  13.425  67.987  1.00  0.00    -0.147 NA 
HETATM   20  C   UNL     1      -8.934  15.113  66.624  1.00  0.00    -0.287 A  
HETATM   21  N   UNL     1      -6.890  14.469  69.671  1.00  0.00    -0.195 NA 
HETATM   22  H2  UNL     1      -6.537  15.344  70.058  1.00  0.00     0.000 HD 
HETATM   23  S   UNL     1      -7.884  15.961  67.684  1.00  0.00    -0.157 SA 
HETATM   24  H1  UNL     1      -6.709  13.599  70.171  1.00  0.00     0.000 HD 
HETATM   25  C   UNL     1      -7.579  14.497  68.524  1.00  0.00    -0.123 A  
ENDBRANCH  17  18
BRANCH  17  26
HETATM   26  N   UNL     1     -11.234  13.356  66.900  1.00  0.00    -0.300 NA 
HETATM   27  H   UNL     1     -11.272  13.990  67.699  1.00  0.00     0.000 HD 
BRANCH  26  28
HETATM   28  O   UNL     1     -12.432  13.101  66.223  1.00  0.00    -0.386 OA 
HETATM   29  C   UNL     1     -12.890  13.999  65.237  1.00  0.00    -0.384 C  
ENDBRANCH  26  28
ENDBRANCH  17  26
ENDBRANCH  14  17
ENDBRANCH  11  13
TORSDOF 5
ENDMDL
MODEL      241
REMARK 921   NORMALIZED FREE ENERGY PREDICTED BY IDOCK:   -3.83 KCAL/MOL
REMARK 922        TOTAL FREE ENERGY PREDICTED BY IDOCK:   -5.71 KCAL/MOL
REMARK 923 INTER-LIGAND FREE ENERGY PREDICTED BY IDOCK:   -4.83 KCAL/MOL
REMARK 924 INTRA-LIGAND FREE ENERGY PREDICTED BY IDOCK:   -0.88 KCAL/MOL
REMARK 927      BINDING AFFINITY PREDICTED BY RF-SCORE:    0.00 PKD
ROOT
HETATM    1  CE  UNL     1      -9.344   9.724  68.969  1.00  0.00    -0.161 C  
HETATM    2  SD  UNL     1     -10.978  10.171  69.445  1.00  0.00    -0.250 SA 
HETATM    3  CG  UNL     1     -11.076  11.932  68.994  1.00  0.00    -0.246 C  
HETATM    4  CB  UNL     1      -9.884  12.537  68.342  1.00  0.00    -0.202 C  
HETATM    5  CA  UNL     1      -8.661  12.004  68.188  1.00  0.00    -0.173 C  
HETATM    6  N   UNL     1      -8.404  10.749  68.662  1.00  0.00    -0.134 N  
HETATM    7  C   UNL     1      -7.612  12.900  67.603  1.00  0.00    -0.156 C  
HETATM    8  C   UNL     1      -7.290  10.034  68.986  1.00  0.00    -0.083 C  
HETATM    9  O   UNL     1      -6.377  12.439  67.487  1.00  0.00    -0.116 OA 
HETATM   10  OXT UNL     1      -7.872  14.042  67.216  1.00  0.00    -0.179 OA 
HETATM   11  CA  UNL     1      -8.176   9.072  69.846  1.00  0.00    -0.124 C  
HETATM   12  O   UNL     1      -6.140  10.265  68.808  1.00  0.00    -0.047 OA 
ENDROOT
BRANCH  11  13
HETATM   13  N   UNL     1      -7.806   9.176  71.308  1.00  0.00    -0.085 N  
HETATM   14  C   UNL     1      -8.041   8.412  72.461  1.00  0.00    -0.116 C  
HETATM   15  H   UNL     1      -7.247  10.007  71.505  1.00  0.00     0.000 HD 
HETATM   16  O   UNL     1      -7.643   8.869  73.532  1.00  0.00    -0.378 OA 
BRANCH  14  17
HETATM   17  C   UNL     1      -8.589   6.994  72.434  1.00  0.00    -0.120 C  
BRANCH  17  18
HETATM   18  C   UNL     1      -9.946   6.705  71.945  1.00  0.00    -0.177 A  
HETATM   19  N   UNL     1     -10.150   6.286  70.634  1.00  0.00    -0.186 NA 
HETATM   20  C   UNL     1     -11.116   7.098  72.587  1.00  0.00    -0.292 A  
HETATM   21  N   UNL     1     -11.742   6.511  68.962  1.00  0.00    -0.516 NA 
HETATM   22  H2  UNL     1     -12.694   6.780  68.714  1.00  0.00     0.000 HD 
HETATM   23  S   UNL     1     -12.429   7.094  71.481  1.00  0.00    -0.393 SA 
HETATM   24  H1  UNL     1     -11.108   6.201  68.225  1.00  0.00     0.000 HD 
HETATM   25  C   UNL     1     -11.363   6.575  70.243  1.00  0.00    -0.395 A  
ENDBRANCH  17  18
BRANCH  17  26
HETATM   26  N   UNL     1      -8.088   5.950  73.037  1.00  0.00    -0.117 NA 
HETATM   27  H   UNL     1      -7.111   5.999  73.326  1.00  0.00     0.000 HD 
BRANCH  26  28
HETATM   28  O   UNL     1      -8.785   4.770  73.318  1.00  0.00    -0.105 OA 
HETATM   29  C   UNL     1      -8.184   3.518  73.067  1.00  0.00    -0.078 C  
ENDBRANCH  26  28
ENDBRANCH  17  26
ENDBRANCH  14  17
ENDBRANCH  11  13
TORSDOF 5
ENDMDL
MODEL      242
REMARK 921   NORMALIZED FREE ENERGY PREDICTED BY IDOCK:   -3.83 KCAL/MOL
REMARK 922        TOTAL FREE ENERGY PREDICTED BY IDOCK:   -5.71 KCAL/MOL
REMARK 923 INTER-LIGAND FREE ENERGY PREDICTED BY IDOCK:   -5.13 KCAL/MOL
REMARK 924 INTRA-LIGAND FREE ENERGY PREDICTED BY IDOCK:   -0.58 KCAL/MOL
REMARK 927      BINDING AFFINITY PREDICTED BY RF-SCORE:    0.00 PKD
ROOT
HETATM    1  CE  UNL     1     -11.091  10.068  67.743  1.00  0.00    -0.180 C  
HETATM    2  SD  UNL     1     -11.302  10.797  69.330  1.00  0.00    -0.310 SA 
HETATM    3  CG  UNL     1     -11.675  12.535  68.945  1.00  0.00    -0.322 C  
HETATM    4  CB  UNL     1     -11.758  12.914  67.508  1.00  0.00    -0.422 C  
HETATM    5  CA  UNL     1     -11.425  12.178  66.435  1.00  0.00    -0.370 C  
HETATM    6  N   UNL     1     -10.944  10.911  66.605  1.00  0.00    -0.199 N  
HETATM    7  C   UNL     1     -11.493  12.869  65.107  1.00  0.00    -0.313 C  
HETATM    8  C   UNL     1     -10.227  10.028  65.854  1.00  0.00    -0.205 C  
HETATM    9  O   UNL     1     -11.118  12.204  64.027  1.00  0.00    -0.323 OA 
HETATM   10  OXT UNL     1     -11.902  14.027  64.995  1.00  0.00    -0.344 OA 
HETATM   11  CA  UNL     1      -9.846   9.253  67.159  1.00  0.00    -0.195 C  
HETATM   12  O   UNL     1      -9.912  10.057  64.710  1.00  0.00    -0.321 OA 
ENDROOT
BRANCH  11  13
HETATM   13  N   UNL     1      -8.356   9.333  67.406  1.00  0.00    -0.121 N  
HETATM   14  C   UNL     1      -7.482   8.916  68.421  1.00  0.00    -0.086 C  
HETATM   15  H   UNL     1      -7.866   9.806  66.647  1.00  0.00     0.000 HD 
HETATM   16  O   UNL     1      -6.300   9.244  68.319  1.00  0.00    -0.053 OA 
BRANCH  14  17
HETATM   17  C   UNL     1      -7.875   7.948  69.526  1.00  0.00    -0.110 C  
BRANCH  17  18
HETATM   18  C   UNL     1      -8.378   8.427  70.822  1.00  0.00    -0.130 A  
HETATM   19  N   UNL     1      -7.496   8.734  71.853  1.00  0.00    -0.291 NA 
HETATM   20  C   UNL     1      -9.702   8.326  71.241  1.00  0.00    -0.176 A  
HETATM   21  N   UNL     1      -7.419   8.628  74.170  1.00  0.00    -0.408 NA 
HETATM   22  H2  UNL     1      -7.936   8.514  75.041  1.00  0.00     0.000 HD 
HETATM   23  S   UNL     1      -9.794   8.453  72.950  1.00  0.00    -0.044 SA 
HETATM   24  H1  UNL     1      -6.406   8.735  74.207  1.00  0.00     0.000 HD 
HETATM   25  C   UNL     1      -8.091   8.633  73.012  1.00  0.00     0.104 A  
ENDBRANCH  17  18
BRANCH  17  26
HETATM   26  N   UNL     1      -7.596   6.674  69.585  1.00  0.00    -0.096 NA 
HETATM   27  H   UNL     1      -6.630   6.396  69.404  1.00  0.00     0.000 HD 
BRANCH  26  28
HETATM   28  O   UNL     1      -8.514   5.660  69.879  1.00  0.00    -0.117 OA 
HETATM   29  C   UNL     1      -8.856   4.711  68.892  1.00  0.00    -0.099 C  
ENDBRANCH  26  28
ENDBRANCH  17  26
ENDBRANCH  14  17
ENDBRANCH  11  13
TORSDOF 5
ENDMDL
MODEL      243
REMARK 921   NORMALIZED FREE ENERGY PREDICTED BY IDOCK:   -3.82 KCAL/MOL
REMARK 922        TOTAL FREE ENERGY PREDICTED BY IDOCK:   -5.70 KCAL/MOL
REMARK 923 INTER-LIGAND FREE ENERGY PREDICTED BY IDOCK:   -5.56 KCAL/MOL
REMARK 924 INTRA-LIGAND FREE ENERGY PREDICTED BY IDOCK:   -0.14 KCAL/MOL
REMARK 927      BINDING AFFINITY PREDICTED BY RF-SCORE:    0.00 PKD
ROOT
HETATM    1  CE  UNL     1      -8.152   8.009  68.122  1.00  0.00    -0.129 C  
HETATM    2  SD  UNL     1      -9.415   8.905  67.288  1.00  0.00    -0.162 SA 
HETATM    3  CG  UNL     1      -9.181  10.608  67.886  1.00  0.00    -0.148 C  
HETATM    4  CB  UNL     1      -8.052  10.854  68.824  1.00  0.00    -0.145 C  
HETATM    5  CA  UNL     1      -7.268   9.950  69.435  1.00  0.00    -0.083 C  
HETATM    6  N   UNL     1      -7.472   8.617  69.215  1.00  0.00    -0.080 N  
HETATM    7  C   UNL     1      -6.287  10.485  70.432  1.00  0.00    -0.126 C  
HETATM    8  C   UNL     1      -7.144   7.459  69.853  1.00  0.00    -0.065 C  
HETATM    9  O   UNL     1      -5.534   9.629  71.103  1.00  0.00    -0.051 OA 
HETATM   10  OXT UNL     1      -6.153  11.695  70.630  1.00  0.00    -0.313 OA 
HETATM   11  CA  UNL     1      -8.275   6.721  69.062  1.00  0.00    -0.117 C  
HETATM   12  O   UNL     1      -6.421   7.256  70.772  1.00  0.00    -0.042 OA 
ENDROOT
BRANCH  11  13
HETATM   13  N   UNL     1      -9.352   6.236  70.007  1.00  0.00    -0.155 N  
HETATM   14  C   UNL     1     -10.031   6.767  71.114  1.00  0.00    -0.181 C  
HETATM   15  H   UNL     1      -9.659   5.289  69.785  1.00  0.00     0.000 HD 
HETATM   16  O   UNL     1     -10.809   6.022  71.709  1.00  0.00    -0.241 OA 
BRANCH  14  17
HETATM   17  C   UNL     1      -9.994   8.237  71.499  1.00  0.00    -0.199 C  
BRANCH  17  18
HETATM   18  C   UNL     1     -11.128   9.132  71.221  1.00  0.00    -0.335 A  
HETATM   19  N   UNL     1     -10.965  10.247  70.405  1.00  0.00    -0.308 NA 
HETATM   20  C   UNL     1     -12.317   9.147  71.943  1.00  0.00    -0.385 A  
HETATM   21  N   UNL     1     -11.784  12.410  70.227  1.00  0.00    -0.546 NA 
HETATM   22  H2  UNL     1     -12.499  13.082  70.504  1.00  0.00     0.000 HD 
HETATM   23  S   UNL     1     -13.132  10.640  71.714  1.00  0.00    -0.412 SA 
HETATM   24  H1  UNL     1     -11.030  12.716  69.613  1.00  0.00     0.000 HD 
HETATM   25  C   UNL     1     -11.863  11.154  70.681  1.00  0.00    -0.302 A  
ENDBRANCH  17  18
BRANCH  17  26
HETATM   26  N   UNL     1      -8.944   8.926  71.855  1.00  0.00    -0.369 NA 
HETATM   27  H   UNL     1      -8.639   9.673  71.231  1.00  0.00     0.000 HD 
BRANCH  26  28
HETATM   28  O   UNL     1      -8.205   8.723  73.026  1.00  0.00    -0.418 OA 
HETATM   29  C   UNL     1      -8.725   7.911  74.056  1.00  0.00    -0.246 C  
ENDBRANCH  26  28
ENDBRANCH  17  26
ENDBRANCH  14  17
ENDBRANCH  11  13
TORSDOF 5
ENDMDL
MODEL      244
REMARK 921   NORMALIZED FREE ENERGY PREDICTED BY IDOCK:   -3.81 KCAL/MOL
REMARK 922        TOTAL FREE ENERGY PREDICTED BY IDOCK:   -5.68 KCAL/MOL
REMARK 923 INTER-LIGAND FREE ENERGY PREDICTED BY IDOCK:   -4.84 KCAL/MOL
REMARK 924 INTRA-LIGAND FREE ENERGY PREDICTED BY IDOCK:   -0.84 KCAL/MOL
REMARK 927      BINDING AFFINITY PREDICTED BY RF-SCORE:    0.00 PKD
ROOT
HETATM    1  CE  UNL     1     -10.929   6.099  71.070  1.00  0.00    -0.293 C  
HETATM    2  SD  UNL     1     -10.092   6.318  69.538  1.00  0.00    -0.188 SA 
HETATM    3  CG  UNL     1      -9.290   4.707  69.268  1.00  0.00    -0.142 C  
HETATM    4  CB  UNL     1      -9.531   3.645  70.281  1.00  0.00    -0.257 C  
HETATM    5  CA  UNL     1     -10.133   3.759  71.477  1.00  0.00    -0.056 C  
HETATM    6  N   UNL     1     -10.611   4.973  71.882  1.00  0.00    -0.190 N  
HETATM    7  C   UNL     1     -10.121   2.540  72.348  1.00  0.00    -0.162 C  
HETATM    8  C   UNL     1     -10.955   5.542  73.071  1.00  0.00    -0.290 C  
HETATM    9  O   UNL     1     -10.649   2.621  73.558  1.00  0.00    -0.130 OA 
HETATM   10  OXT UNL     1      -9.649   1.468  71.962  1.00  0.00    -0.085 OA 
HETATM   11  CA  UNL     1     -10.821   6.957  72.416  1.00  0.00    -0.235 C  
HETATM   12  O   UNL     1     -11.075   5.068  74.153  1.00  0.00    -0.275 OA 
ENDROOT
BRANCH  11  13
HETATM   13  N   UNL     1      -9.690   7.731  73.055  1.00  0.00    -0.241 N  
HETATM   14  C   UNL     1      -8.657   8.562  72.597  1.00  0.00    -0.115 C  
HETATM   15  H   UNL     1      -9.675   7.622  74.069  1.00  0.00     0.000 HD 
HETATM   16  O   UNL     1      -7.841   8.960  73.429  1.00  0.00    -0.378 OA 
BRANCH  14  17
HETATM   17  C   UNL     1      -8.596   9.133  71.189  1.00  0.00    -0.130 C  
BRANCH  17  18
HETATM   18  C   UNL     1      -9.721   9.893  70.621  1.00  0.00     0.080 A  
HETATM   19  N   UNL     1     -10.991   9.797  71.178  1.00  0.00    -0.352 NA 
HETATM   20  C   UNL     1      -9.713  10.493  69.365  1.00  0.00    -0.164 A  
HETATM   21  N   UNL     1     -13.205   9.837  70.484  1.00  0.00    -0.582 NA 
HETATM   22  H2  UNL     1     -13.868  10.059  69.740  1.00  0.00     0.000 HD 
HETATM   23  S   UNL     1     -11.320  10.774  68.832  1.00  0.00    -0.295 SA 
HETATM   24  H1  UNL     1     -13.554   9.430  71.351  1.00  0.00     0.000 HD 
HETATM   25  C   UNL     1     -11.905  10.089  70.291  1.00  0.00    -0.216 A  
ENDBRANCH  17  18
BRANCH  17  26
HETATM   26  N   UNL     1      -7.730   8.834  70.260  1.00  0.00    -0.077 NA 
HETATM   27  H   UNL     1      -8.093   8.454  69.385  1.00  0.00     0.000 HD 
BRANCH  26  28
HETATM   28  O   UNL     1      -6.344   8.992  70.368  1.00  0.00    -0.038 OA 
HETATM   29  C   UNL     1      -5.555   7.951  70.902  1.00  0.00    -0.030 C  
ENDBRANCH  26  28
ENDBRANCH  17  26
ENDBRANCH  14  17
ENDBRANCH  11  13
TORSDOF 5
ENDMDL
MODEL      245
REMARK 921   NORMALIZED FREE ENERGY PREDICTED BY IDOCK:   -3.78 KCAL/MOL
REMARK 922        TOTAL FREE ENERGY PREDICTED BY IDOCK:   -5.64 KCAL/MOL
REMARK 923 INTER-LIGAND FREE ENERGY PREDICTED BY IDOCK:   -4.57 KCAL/MOL
REMARK 924 INTRA-LIGAND FREE ENERGY PREDICTED BY IDOCK:   -1.07 KCAL/MOL
REMARK 927      BINDING AFFINITY PREDICTED BY RF-SCORE:    0.00 PKD
ROOT
HETATM    1  CE  UNL     1      -8.346   6.486  67.998  1.00  0.00    -0.116 C  
HETATM    2  SD  UNL     1      -9.965   5.998  67.510  1.00  0.00    -0.154 SA 
HETATM    3  CG  UNL     1     -10.890   7.565  67.510  1.00  0.00    -0.162 C  
HETATM    4  CB  UNL     1     -10.137   8.803  67.845  1.00  0.00    -0.257 C  
HETATM    5  CA  UNL     1      -8.885   8.910  68.321  1.00  0.00    -0.134 C  
HETATM    6  N   UNL     1      -8.148   7.784  68.549  1.00  0.00    -0.122 N  
HETATM    7  C   UNL     1      -8.429  10.289  68.691  1.00  0.00    -0.127 C  
HETATM    8  C   UNL     1      -7.048   7.467  69.290  1.00  0.00    -0.075 C  
HETATM    9  O   UNL     1      -7.226  10.438  69.219  1.00  0.00    -0.077 OA 
HETATM   10  OXT UNL     1      -9.136  11.282  68.502  1.00  0.00    -0.168 OA 
HETATM   11  CA  UNL     1      -7.451   5.957  69.213  1.00  0.00    -0.084 C  
HETATM   12  O   UNL     1      -6.284   8.157  69.881  1.00  0.00    -0.032 OA 
ENDROOT
BRANCH  11  13
HETATM   13  N   UNL     1      -7.791   5.429  70.588  1.00  0.00    -0.088 N  
HETATM   14  C   UNL     1      -8.242   5.985  71.795  1.00  0.00    -0.118 C  
HETATM   15  H   UNL     1      -7.661   4.419  70.655  1.00  0.00     0.000 HD 
HETATM   16  O   UNL     1      -8.327   5.234  72.766  1.00  0.00    -0.112 OA 
BRANCH  14  17
HETATM   17  C   UNL     1      -8.791   7.397  71.918  1.00  0.00    -0.114 C  
BRANCH  17  18
HETATM   18  C   UNL     1     -10.151   7.733  71.469  1.00  0.00    -0.178 A  
HETATM   19  N   UNL     1     -10.570   9.058  71.414  1.00  0.00    -0.295 NA 
HETATM   20  C   UNL     1     -11.196   6.820  71.367  1.00  0.00    -0.268 A  
HETATM   21  N   UNL     1     -12.514  10.286  71.729  1.00  0.00    -0.382 NA 
HETATM   22  H2  UNL     1     -13.529  10.275  71.823  1.00  0.00     0.000 HD 
HETATM   23  S   UNL     1     -12.704   7.640  71.372  1.00  0.00    -0.299 SA 
HETATM   24  H1  UNL     1     -12.019  11.174  71.809  1.00  0.00     0.000 HD 
HETATM   25  C   UNL     1     -11.871   9.133  71.506  1.00  0.00    -0.358 A  
ENDBRANCH  17  18
BRANCH  17  26
HETATM   26  N   UNL     1      -8.110   8.483  72.165  1.00  0.00    -0.270 NA 
HETATM   27  H   UNL     1      -8.123   9.217  71.456  1.00  0.00     0.000 HD 
BRANCH  26  28
HETATM   28  O   UNL     1      -7.363   8.720  73.325  1.00  0.00    -0.359 OA 
HETATM   29  C   UNL     1      -7.691   8.053  74.524  1.00  0.00    -0.227 C  
ENDBRANCH  26  28
ENDBRANCH  17  26
ENDBRANCH  14  17
ENDBRANCH  11  13
TORSDOF 5
ENDMDL
MODEL      246
REMARK 921   NORMALIZED FREE ENERGY PREDICTED BY IDOCK:   -3.75 KCAL/MOL
REMARK 922        TOTAL FREE ENERGY PREDICTED BY IDOCK:   -5.61 KCAL/MOL
REMARK 923 INTER-LIGAND FREE ENERGY PREDICTED BY IDOCK:   -5.00 KCAL/MOL
REMARK 924 INTRA-LIGAND FREE ENERGY PREDICTED BY IDOCK:   -0.61 KCAL/MOL
REMARK 927      BINDING AFFINITY PREDICTED BY RF-SCORE:    0.00 PKD
ROOT
HETATM    1  CE  UNL     1      -7.712  16.540  67.744  1.00  0.00    -0.152 C  
HETATM    2  SD  UNL     1      -6.237  16.773  66.814  1.00  0.00    -0.083 SA 
HETATM    3  CG  UNL     1      -6.344  18.514  66.295  1.00  0.00    -0.193 C  
HETATM    4  CB  UNL     1      -7.519  19.296  66.764  1.00  0.00    -0.240 C  
HETATM    5  CA  UNL     1      -8.620  18.847  67.389  1.00  0.00    -0.274 C  
HETATM    6  N   UNL     1      -8.746  17.515  67.664  1.00  0.00    -0.221 N  
HETATM    7  C   UNL     1      -9.706  19.850  67.629  1.00  0.00    -0.385 C  
HETATM    8  C   UNL     1      -9.775  16.669  67.956  1.00  0.00    -0.241 C  
HETATM    9  O   UNL     1     -10.834  19.443  68.188  1.00  0.00    -0.264 OA 
HETATM   10  OXT UNL     1      -9.571  21.041  67.336  1.00  0.00    -0.395 OA 
HETATM   11  CA  UNL     1      -8.873  15.458  67.547  1.00  0.00    -0.180 C  
HETATM   12  O   UNL     1     -10.914  16.889  68.205  1.00  0.00    -0.365 OA 
ENDROOT
BRANCH  11  13
HETATM   13  N   UNL     1      -9.439  14.765  66.328  1.00  0.00    -0.313 N  
HETATM   14  C   UNL     1      -9.522  13.440  65.873  1.00  0.00    -0.023 C  
HETATM   15  H   UNL     1      -9.865  15.423  65.675  1.00  0.00     0.000 HD 
HETATM   16  O   UNL     1      -9.992  13.257  64.750  1.00  0.00    -0.243 OA 
BRANCH  14  17
HETATM   17  C   UNL     1      -9.235  12.230  66.747  1.00  0.00    -0.210 C  
BRANCH  17  18
HETATM   18  C   UNL     1      -7.898  11.993  67.315  1.00  0.00    -0.170 A  
HETATM   19  N   UNL     1      -7.278  12.966  68.091  1.00  0.00    -0.101 NA 
HETATM   20  C   UNL     1      -7.035  10.981  66.905  1.00  0.00    -0.125 A  
HETATM   21  N   UNL     1      -5.137  13.754  68.514  1.00  0.00    -0.085 NA 
HETATM   22  H2  UNL     1      -4.133  13.594  68.435  1.00  0.00     0.000 HD 
HETATM   23  S   UNL     1      -5.423  11.356  67.360  1.00  0.00    -0.070 SA 
HETATM   24  H1  UNL     1      -5.468  14.623  68.932  1.00  0.00     0.000 HD 
HETATM   25  C   UNL     1      -5.980  12.817  68.064  1.00  0.00    -0.101 A  
ENDBRANCH  17  18
BRANCH  17  26
HETATM   26  N   UNL     1      -9.987  11.173  66.892  1.00  0.00    -0.193 NA 
HETATM   27  H   UNL     1      -9.971  10.479  66.143  1.00  0.00     0.000 HD 
BRANCH  26  28
HETATM   28  O   UNL     1     -10.814  10.915  67.991  1.00  0.00    -0.207 OA 
HETATM   29  C   UNL     1     -11.956  11.711  68.216  1.00  0.00    -0.166 C  
ENDBRANCH  26  28
ENDBRANCH  17  26
ENDBRANCH  14  17
ENDBRANCH  11  13
TORSDOF 5
ENDMDL
MODEL      247
REMARK 921   NORMALIZED FREE ENERGY PREDICTED BY IDOCK:   -3.65 KCAL/MOL
REMARK 922        TOTAL FREE ENERGY PREDICTED BY IDOCK:   -5.48 KCAL/MOL
REMARK 923 INTER-LIGAND FREE ENERGY PREDICTED BY IDOCK:   -5.02 KCAL/MOL
REMARK 924 INTRA-LIGAND FREE ENERGY PREDICTED BY IDOCK:   -0.46 KCAL/MOL
REMARK 927      BINDING AFFINITY PREDICTED BY RF-SCORE:    0.00 PKD
ROOT
HETATM    1  CE  UNL     1      -8.894  15.904  69.099  1.00  0.00    -0.253 C  
HETATM    2  SD  UNL     1      -7.870  14.477  69.191  1.00  0.00    -0.016 SA 
HETATM    3  CG  UNL     1      -7.870  13.853  67.481  1.00  0.00    -0.181 C  
HETATM    4  CB  UNL     1      -8.626  14.638  66.468  1.00  0.00    -0.023 C  
HETATM    5  CA  UNL     1      -9.462  15.669  66.671  1.00  0.00    -0.259 C  
HETATM    6  N   UNL     1      -9.698  16.110  67.942  1.00  0.00    -0.224 N  
HETATM    7  C   UNL     1     -10.187  16.186  65.466  1.00  0.00    -0.331 C  
HETATM    8  C   UNL     1     -10.664  16.848  68.559  1.00  0.00    -0.359 C  
HETATM    9  O   UNL     1     -11.066  17.161  65.625  1.00  0.00    -0.019 OA 
HETATM   10  OXT UNL     1      -9.974  15.740  64.336  1.00  0.00     0.378 OA 
HETATM   11  CA  UNL     1     -10.207  16.265  69.937  1.00  0.00    -0.092 C  
HETATM   12  O   UNL     1     -11.566  17.476  68.111  1.00  0.00     0.405 OA 
ENDROOT
BRANCH  11  13
HETATM   13  N   UNL     1     -11.305  15.421  70.545  1.00  0.00    -0.297 N  
HETATM   14  C   UNL     1     -11.851  14.153  70.297  1.00  0.00    -0.303 C  
HETATM   15  H   UNL     1     -11.761  15.890  71.328  1.00  0.00     0.000 HD 
HETATM   16  O   UNL     1     -12.830  13.820  70.964  1.00  0.00    -0.326 OA 
BRANCH  14  17
HETATM   17  C   UNL     1     -11.199  13.117  69.394  1.00  0.00    -0.146 C  
BRANCH  17  18
HETATM   18  C   UNL     1     -11.313  13.196  67.930  1.00  0.00    -0.286 A  
HETATM   19  N   UNL     1     -12.177  14.111  67.337  1.00  0.00    -0.330 NA 
HETATM   20  C   UNL     1     -10.850  12.224  67.048  1.00  0.00    -0.250 A  
HETATM   21  N   UNL     1     -13.534  14.262  65.460  1.00  0.00    -0.568 NA 
HETATM   22  H2  UNL     1     -13.781  13.881  64.547  1.00  0.00     0.000 HD 
HETATM   23  S   UNL     1     -11.638  12.374  65.531  1.00  0.00    -0.391 SA 
HETATM   24  H1  UNL     1     -14.063  15.054  65.825  1.00  0.00     0.000 HD 
HETATM   25  C   UNL     1     -12.527  13.706  66.144  1.00  0.00    -0.395 A  
ENDBRANCH  17  18
BRANCH  17  26
HETATM   26  N   UNL     1     -10.715  11.959  69.753  1.00  0.00    -0.323 NA 
HETATM   27  H   UNL     1      -9.802  11.696  69.381  1.00  0.00     0.000 HD 
BRANCH  26  28
HETATM   28  O   UNL     1     -11.349  11.051  70.609  1.00  0.00    -0.193 OA 
HETATM   29  C   UNL     1     -12.636  10.566  70.295  1.00  0.00    -0.235 C  
ENDBRANCH  26  28
ENDBRANCH  17  26
ENDBRANCH  14  17
ENDBRANCH  11  13
TORSDOF 5
ENDMDL
MODEL      248
REMARK 921   NORMALIZED FREE ENERGY PREDICTED BY IDOCK:   -3.63 KCAL/MOL
REMARK 922        TOTAL FREE ENERGY PREDICTED BY IDOCK:   -5.46 KCAL/MOL
REMARK 923 INTER-LIGAND FREE ENERGY PREDICTED BY IDOCK:   -3.92 KCAL/MOL
REMARK 924 INTRA-LIGAND FREE ENERGY PREDICTED BY IDOCK:   -1.54 KCAL/MOL
REMARK 927      BINDING AFFINITY PREDICTED BY RF-SCORE:    0.00 PKD
ROOT
HETATM    1  CE  UNL     1      -7.716   8.673  68.181  1.00  0.00    -0.102 C  
HETATM    2  SD  UNL     1      -6.070   8.069  68.035  1.00  0.00    -0.047 SA 
HETATM    3  CG  UNL     1      -6.305   6.296  67.702  1.00  0.00    -0.033 C  
HETATM    4  CB  UNL     1      -7.704   5.801  67.591  1.00  0.00    -0.097 C  
HETATM    5  CA  UNL     1      -8.842   6.457  67.874  1.00  0.00    -0.113 C  
HETATM    6  N   UNL     1      -8.787   7.746  68.322  1.00  0.00    -0.130 N  
HETATM    7  C   UNL     1     -10.108   5.661  67.790  1.00  0.00    -0.171 C  
HETATM    8  C   UNL     1      -9.626   8.585  68.993  1.00  0.00    -0.167 C  
HETATM    9  O   UNL     1     -11.248   6.247  68.117  1.00  0.00    -0.327 OA 
HETATM   10  OXT UNL     1     -10.116   4.487  67.412  1.00  0.00    -0.151 OA 
HETATM   11  CA  UNL     1      -8.398   9.472  69.386  1.00  0.00    -0.140 C  
HETATM   12  O   UNL     1     -10.773   8.473  69.278  1.00  0.00    -0.213 OA 
ENDROOT
BRANCH  11  13
HETATM   13  N   UNL     1      -8.190   9.453  70.884  1.00  0.00    -0.131 N  
HETATM   14  C   UNL     1      -8.015   8.461  71.861  1.00  0.00    -0.136 C  
HETATM   15  H   UNL     1      -8.171  10.392  71.282  1.00  0.00     0.000 HD 
HETATM   16  O   UNL     1      -7.960   8.828  73.035  1.00  0.00    -0.393 OA 
BRANCH  14  17
HETATM   17  C   UNL     1      -7.715   7.006  71.540  1.00  0.00    -0.090 C  
BRANCH  17  18
HETATM   18  C   UNL     1      -8.776   5.986  71.540  1.00  0.00    -0.132 A  
HETATM   19  N   UNL     1     -10.037   6.278  72.048  1.00  0.00    -0.182 NA 
HETATM   20  C   UNL     1      -8.561   4.624  71.347  1.00  0.00    -0.111 A  
HETATM   21  N   UNL     1     -11.750   5.202  73.184  1.00  0.00    -0.514 NA 
HETATM   22  H2  UNL     1     -12.157   4.316  73.483  1.00  0.00     0.000 HD 
HETATM   23  S   UNL     1      -9.884   3.722  71.963  1.00  0.00    -0.168 SA 
HETATM   24  H1  UNL     1     -12.200   6.073  73.465  1.00  0.00     0.000 HD 
HETATM   25  C   UNL     1     -10.641   5.186  72.436  1.00  0.00    -0.221 A  
ENDBRANCH  17  18
BRANCH  17  26
HETATM   26  N   UNL     1      -6.539   6.442  71.486  1.00  0.00    -0.053 NA 
HETATM   27  H   UNL     1      -6.289   5.958  70.623  1.00  0.00     0.000 HD 
BRANCH  26  28
HETATM   28  O   UNL     1      -5.594   6.449  72.518  1.00  0.00    -0.035 OA 
HETATM   29  C   UNL     1      -5.939   5.956  73.794  1.00  0.00    -0.061 C  
ENDBRANCH  26  28
ENDBRANCH  17  26
ENDBRANCH  14  17
ENDBRANCH  11  13
TORSDOF 5
ENDMDL
MODEL      249
REMARK 921   NORMALIZED FREE ENERGY PREDICTED BY IDOCK:   -3.58 KCAL/MOL
REMARK 922        TOTAL FREE ENERGY PREDICTED BY IDOCK:   -5.39 KCAL/MOL
REMARK 923 INTER-LIGAND FREE ENERGY PREDICTED BY IDOCK:   -4.43 KCAL/MOL
REMARK 924 INTRA-LIGAND FREE ENERGY PREDICTED BY IDOCK:   -0.96 KCAL/MOL
REMARK 927      BINDING AFFINITY PREDICTED BY RF-SCORE:    0.00 PKD
ROOT
HETATM    1  CE  UNL     1     -11.251   8.132  71.282  1.00  0.00    -0.260 C  
HETATM    2  SD  UNL     1     -12.009   6.545  71.263  1.00  0.00    -0.242 SA 
HETATM    3  CG  UNL     1     -10.677   5.441  71.829  1.00  0.00    -0.204 C  
HETATM    4  CB  UNL     1      -9.378   6.068  72.192  1.00  0.00    -0.155 C  
HETATM    5  CA  UNL     1      -8.986   7.338  72.000  1.00  0.00    -0.128 C  
HETATM    6  N   UNL     1      -9.835   8.226  71.402  1.00  0.00    -0.173 N  
HETATM    7  C   UNL     1      -7.566   7.658  72.353  1.00  0.00    -0.083 C  
HETATM    8  C   UNL     1      -9.708   9.424  70.765  1.00  0.00    -0.264 C  
HETATM    9  O   UNL     1      -7.116   8.881  72.126  1.00  0.00    -0.290 OA 
HETATM   10  OXT UNL     1      -6.816   6.821  72.861  1.00  0.00    -0.070 OA 
HETATM   11  CA  UNL     1     -11.108   9.202  70.102  1.00  0.00    -0.222 C  
HETATM   12  O   UNL     1      -8.778  10.153  70.660  1.00  0.00     0.156 OA 
ENDROOT
BRANCH  11  13
HETATM   13  N   UNL     1     -10.968   9.067  68.602  1.00  0.00    -0.448 N  
HETATM   14  C   UNL     1     -10.907   9.952  67.515  1.00  0.00    -0.243 C  
HETATM   15  H   UNL     1     -10.902   8.092  68.309  1.00  0.00     0.000 HD 
HETATM   16  O   UNL     1     -10.879   9.460  66.388  1.00  0.00     0.030 OA 
BRANCH  14  17
HETATM   17  C   UNL     1     -10.695  11.450  67.660  1.00  0.00    -0.216 C  
BRANCH  17  18
HETATM   18  C   UNL     1      -9.357  12.018  67.887  1.00  0.00    -0.190 A  
HETATM   19  N   UNL     1      -9.201  13.190  68.619  1.00  0.00    -0.047 NA 
HETATM   20  C   UNL     1      -8.215  11.654  67.179  1.00  0.00    -0.165 A  
HETATM   21  N   UNL     1      -7.818  15.053  68.651  1.00  0.00    -0.130 NA 
HETATM   22  H2  UNL     1      -6.948  15.481  68.335  1.00  0.00     0.000 HD 
HETATM   23  S   UNL     1      -7.020  12.878  67.310  1.00  0.00     0.040 SA 
HETATM   24  H1  UNL     1      -8.454  15.597  69.232  1.00  0.00     0.000 HD 
HETATM   25  C   UNL     1      -8.090  13.794  68.288  1.00  0.00    -0.150 A  
ENDBRANCH  17  18
BRANCH  17  26
HETATM   26  N   UNL     1     -11.615  12.355  67.859  1.00  0.00    -0.336 NA 
HETATM   27  H   UNL     1     -11.906  12.525  68.822  1.00  0.00     0.000 HD 
BRANCH  26  28
HETATM   28  O   UNL     1     -12.234  13.110  66.856  1.00  0.00    -0.342 OA 
HETATM   29  C   UNL     1     -12.390  12.570  65.562  1.00  0.00    -0.295 C  
ENDBRANCH  26  28
ENDBRANCH  17  26
ENDBRANCH  14  17
ENDBRANCH  11  13
TORSDOF 5
ENDMDL
MODEL      250
REMARK 921   NORMALIZED FREE ENERGY PREDICTED BY IDOCK:   -3.57 KCAL/MOL
REMARK 922        TOTAL FREE ENERGY PREDICTED BY IDOCK:   -5.37 KCAL/MOL
REMARK 923 INTER-LIGAND FREE ENERGY PREDICTED BY IDOCK:   -5.79 KCAL/MOL
REMARK 924 INTRA-LIGAND FREE ENERGY PREDICTED BY IDOCK:    0.41 KCAL/MOL
REMARK 927      BINDING AFFINITY PREDICTED BY RF-SCORE:    0.00 PKD
ROOT
HETATM    1  CE  UNL     1     -10.932  15.881  70.358  1.00  0.00    -0.350 C  
HETATM    2  SD  UNL     1     -12.587  15.336  70.596  1.00  0.00    -0.427 SA 
HETATM    3  CG  UNL     1     -12.652  13.779  69.656  1.00  0.00     0.029 C  
HETATM    4  CB  UNL     1     -11.398  13.329  68.993  1.00  0.00    -0.334 C  
HETATM    5  CA  UNL     1     -10.247  14.005  68.847  1.00  0.00    -0.152 C  
HETATM    6  N   UNL     1     -10.137  15.272  69.346  1.00  0.00    -0.252 N  
HETATM    7  C   UNL     1      -9.188  13.346  68.018  1.00  0.00    -0.209 C  
HETATM    8  C   UNL     1      -9.322  16.342  69.129  1.00  0.00    -0.236 C  
HETATM    9  O   UNL     1      -8.059  13.998  67.796  1.00  0.00    -0.139 OA 
HETATM   10  OXT UNL     1      -9.334  12.212  67.553  1.00  0.00    -0.173 OA 
HETATM   11  CA  UNL     1     -10.397  17.273  69.781  1.00  0.00     0.167 C  
HETATM   12  O   UNL     1      -8.321  16.440  68.499  1.00  0.00    -0.183 OA 
ENDROOT
BRANCH  11  13
HETATM   13  N   UNL     1     -10.947  18.243  68.759  1.00  0.00     0.022 N  
HETATM   14  C   UNL     1     -10.507  18.769  67.535  1.00  0.00    -0.435 C  
HETATM   15  H   UNL     1     -11.863  18.604  69.025  1.00  0.00     0.000 HD 
HETATM   16  O   UNL     1     -11.207  19.633  67.007  1.00  0.00    -0.319 OA 
BRANCH  14  17
HETATM   17  C   UNL     1      -9.329  18.210  66.752  1.00  0.00    -0.286 C  
BRANCH  17  18
HETATM   18  C   UNL     1      -8.069  18.959  66.624  1.00  0.00    -0.280 A  
HETATM   19  N   UNL     1      -7.302  19.249  67.748  1.00  0.00    -0.249 NA 
HETATM   20  C   UNL     1      -7.693  19.685  65.498  1.00  0.00     0.024 A  
HETATM   21  N   UNL     1      -5.916  20.942  68.521  1.00  0.00    -0.348 NA 
HETATM   22  H2  UNL     1      -5.375  21.777  68.298  1.00  0.00     0.000 HD 
HETATM   23  S   UNL     1      -6.494  20.841  65.910  1.00  0.00    -0.180 SA 
HETATM   24  H1  UNL     1      -5.953  20.620  69.488  1.00  0.00     0.000 HD 
HETATM   25  C   UNL     1      -6.556  20.301  67.536  1.00  0.00    -0.234 A  
ENDBRANCH  17  18
BRANCH  17  26
HETATM   26  N   UNL     1      -9.347  17.200  65.926  1.00  0.00    -0.527 NA 
HETATM   27  H   UNL     1      -8.617  17.163  65.214  1.00  0.00     0.000 HD 
BRANCH  26  28
HETATM   28  O   UNL     1     -10.287  16.164  65.939  1.00  0.00    -0.330 OA 
HETATM   29  C   UNL     1     -11.068  15.906  64.793  1.00  0.00    -0.384 C  
ENDBRANCH  26  28
ENDBRANCH  17  26
ENDBRANCH  14  17
ENDBRANCH  11  13
TORSDOF 5
ENDMDL
MODEL      251
REMARK 921   NORMALIZED FREE ENERGY PREDICTED BY IDOCK:   -3.55 KCAL/MOL
REMARK 922        TOTAL FREE ENERGY PREDICTED BY IDOCK:   -5.35 KCAL/MOL
REMARK 923 INTER-LIGAND FREE ENERGY PREDICTED BY IDOCK:   -5.13 KCAL/MOL
REMARK 924 INTRA-LIGAND FREE ENERGY PREDICTED BY IDOCK:   -0.22 KCAL/MOL
REMARK 927      BINDING AFFINITY PREDICTED BY RF-SCORE:    0.00 PKD
ROOT
HETATM    1  CE  UNL     1     -10.081  18.434  67.211  1.00  0.00    -0.352 C  
HETATM    2  SD  UNL     1     -10.142  19.429  68.660  1.00  0.00    -0.383 SA 
HETATM    3  CG  UNL     1      -8.405  19.916  68.905  1.00  0.00    -0.009 C  
HETATM    4  CB  UNL     1      -7.416  19.448  67.897  1.00  0.00    -0.305 C  
HETATM    5  CA  UNL     1      -7.598  18.562  66.904  1.00  0.00    -0.221 C  
HETATM    6  N   UNL     1      -8.820  17.975  66.735  1.00  0.00    -0.256 N  
HETATM    7  C   UNL     1      -6.381  18.184  66.117  1.00  0.00    -0.225 C  
HETATM    8  C   UNL     1      -9.291  16.858  66.112  1.00  0.00    -0.236 C  
HETATM    9  O   UNL     1      -6.498  17.271  65.167  1.00  0.00     0.630 OA 
HETATM   10  OXT UNL     1      -5.284  18.712  66.319  1.00  0.00    -0.138 OA 
HETATM   11  CA  UNL     1     -10.584  16.932  66.990  1.00  0.00    -0.230 C  
HETATM   12  O   UNL     1      -8.758  16.098  65.372  1.00  0.00     0.067 OA 
ENDROOT
BRANCH  11  13
HETATM   13  N   UNL     1     -10.672  15.731  67.905  1.00  0.00    -0.293 N  
HETATM   14  C   UNL     1     -10.462  14.351  67.774  1.00  0.00    -0.245 C  
HETATM   15  H   UNL     1     -10.952  15.989  68.852  1.00  0.00     0.000 HD 
HETATM   16  O   UNL     1     -10.725  13.644  68.746  1.00  0.00    -0.247 OA 
BRANCH  14  17
HETATM   17  C   UNL     1      -9.771  13.714  66.578  1.00  0.00    -0.292 C  
BRANCH  17  18
HETATM   18  C   UNL     1     -10.541  13.088  65.491  1.00  0.00    -0.282 A  
HETATM   19  N   UNL     1     -10.752  13.765  64.294  1.00  0.00    -0.305 NA 
HETATM   20  C   UNL     1     -11.356  11.970  65.643  1.00  0.00    -0.329 A  
HETATM   21  N   UNL     1     -12.394  13.955  62.666  1.00  0.00    -0.376 NA 
HETATM   22  H2  UNL     1     -13.249  13.574  62.262  1.00  0.00     0.000 HD 
HETATM   23  S   UNL     1     -12.490  11.884  64.358  1.00  0.00     0.014 SA 
HETATM   24  H1  UNL     1     -11.998  14.808  62.272  1.00  0.00     0.000 HD 
HETATM   25  C   UNL     1     -11.825  13.319  63.697  1.00  0.00    -0.458 A  
ENDBRANCH  17  18
BRANCH  17  26
HETATM   26  N   UNL     1      -8.506  13.412  66.474  1.00  0.00    -0.395 NA 
HETATM   27  H   UNL     1      -8.118  13.332  65.534  1.00  0.00     0.000 HD 
BRANCH  26  28
HETATM   28  O   UNL     1      -7.639  13.191  67.550  1.00  0.00    -0.148 OA 
HETATM   29  C   UNL     1      -7.217  14.274  68.350  1.00  0.00    -0.113 C  
ENDBRANCH  26  28
ENDBRANCH  17  26
ENDBRANCH  14  17
ENDBRANCH  11  13
TORSDOF 5
ENDMDL
MODEL      252
REMARK 921   NORMALIZED FREE ENERGY PREDICTED BY IDOCK:   -3.54 KCAL/MOL
REMARK 922        TOTAL FREE ENERGY PREDICTED BY IDOCK:   -5.34 KCAL/MOL
REMARK 923 INTER-LIGAND FREE ENERGY PREDICTED BY IDOCK:   -4.47 KCAL/MOL
REMARK 924 INTRA-LIGAND FREE ENERGY PREDICTED BY IDOCK:   -0.86 KCAL/MOL
REMARK 927      BINDING AFFINITY PREDICTED BY RF-SCORE:    0.00 PKD
ROOT
HETATM    1  CE  UNL     1     -10.985   9.175  68.543  1.00  0.00     0.052 C  
HETATM    2  SD  UNL     1     -11.614   9.785  70.068  1.00  0.00    -0.068 SA 
HETATM    3  CG  UNL     1     -11.948  11.538  69.711  1.00  0.00    -0.346 C  
HETATM    4  CB  UNL     1     -11.684  12.015  68.327  1.00  0.00    -0.396 C  
HETATM    5  CA  UNL     1     -11.064  11.364  67.328  1.00  0.00    -0.303 C  
HETATM    6  N   UNL     1     -10.591  10.100  67.534  1.00  0.00    -0.253 N  
HETATM    7  C   UNL     1     -10.825  12.145  66.072  1.00  0.00    -0.282 C  
HETATM    8  C   UNL     1      -9.675   9.288  66.934  1.00  0.00    -0.190 C  
HETATM    9  O   UNL     1     -10.166  11.566  65.082  1.00  0.00    -0.248 OA 
HETATM   10  OXT UNL     1     -11.238  13.299  65.933  1.00  0.00    -0.287 OA 
HETATM   11  CA  UNL     1      -9.602   8.431  68.242  1.00  0.00    -0.144 C  
HETATM   12  O   UNL     1      -9.086   9.405  65.911  1.00  0.00    -0.166 OA 
ENDROOT
BRANCH  11  13
HETATM   13  N   UNL     1      -8.226   8.527  68.861  1.00  0.00    -0.116 N  
HETATM   14  C   UNL     1      -7.528   7.846  69.870  1.00  0.00    -0.080 C  
HETATM   15  H   UNL     1      -7.666   9.269  68.441  1.00  0.00     0.000 HD 
HETATM   16  O   UNL     1      -6.415   8.273  70.174  1.00  0.00    -0.035 OA 
BRANCH  14  17
HETATM   17  C   UNL     1      -7.990   6.527  70.470  1.00  0.00    -0.112 C  
BRANCH  17  18
HETATM   18  C   UNL     1      -9.100   6.469  71.433  1.00  0.00    -0.148 A  
HETATM   19  N   UNL     1     -10.371   6.080  71.024  1.00  0.00    -0.208 NA 
HETATM   20  C   UNL     1      -9.084   7.061  72.692  1.00  0.00    -0.134 A  
HETATM   21  N   UNL     1     -12.585   6.557  71.525  1.00  0.00    -0.222 NA 
HETATM   22  H2  UNL     1     -13.245   6.982  72.177  1.00  0.00     0.000 HD 
HETATM   23  S   UNL     1     -10.686   7.271  73.270  1.00  0.00    -0.355 SA 
HETATM   24  H1  UNL     1     -12.940   6.139  70.666  1.00  0.00     0.000 HD 
HETATM   25  C   UNL     1     -11.281   6.567  71.825  1.00  0.00    -0.269 A  
ENDBRANCH  17  18
BRANCH  17  26
HETATM   26  N   UNL     1      -7.356   5.387  70.434  1.00  0.00    -0.068 NA 
HETATM   27  H   UNL     1      -6.628   5.276  69.726  1.00  0.00     0.000 HD 
BRANCH  26  28
HETATM   28  O   UNL     1      -7.594   4.304  71.287  1.00  0.00    -0.057 OA 
HETATM   29  C   UNL     1      -7.632   2.992  70.769  1.00  0.00    -0.040 C  
ENDBRANCH  26  28
ENDBRANCH  17  26
ENDBRANCH  14  17
ENDBRANCH  11  13
TORSDOF 5
ENDMDL
MODEL      253
REMARK 921   NORMALIZED FREE ENERGY PREDICTED BY IDOCK:   -3.49 KCAL/MOL
REMARK 922        TOTAL FREE ENERGY PREDICTED BY IDOCK:   -5.28 KCAL/MOL
REMARK 923 INTER-LIGAND FREE ENERGY PREDICTED BY IDOCK:   -4.56 KCAL/MOL
REMARK 924 INTRA-LIGAND FREE ENERGY PREDICTED BY IDOCK:   -0.72 KCAL/MOL
REMARK 927      BINDING AFFINITY PREDICTED BY RF-SCORE:    0.00 PKD
ROOT
HETATM    1  CE  UNL     1      -9.092   9.131  68.689  1.00  0.00    -0.136 C  
HETATM    2  SD  UNL     1      -8.719   8.189  67.251  1.00  0.00    -0.124 SA 
HETATM    3  CG  UNL     1      -9.734   8.978  65.962  1.00  0.00    -0.269 C  
HETATM    4  CB  UNL     1     -10.544  10.162  66.359  1.00  0.00    -0.155 C  
HETATM    5  CA  UNL     1     -10.766  10.639  67.595  1.00  0.00    -0.267 C  
HETATM    6  N   UNL     1     -10.211  10.012  68.674  1.00  0.00    -0.172 N  
HETATM    7  C   UNL     1     -11.733  11.778  67.705  1.00  0.00    -0.250 C  
HETATM    8  C   UNL     1     -10.449   9.977  70.015  1.00  0.00    -0.287 C  
HETATM    9  O   UNL     1     -12.030  12.244  68.907  1.00  0.00    -0.308 OA 
HETATM   10  OXT UNL     1     -12.243  12.299  66.710  1.00  0.00    -0.558 OA 
HETATM   11  CA  UNL     1      -9.641   8.640  70.108  1.00  0.00    -0.172 C  
HETATM   12  O   UNL     1     -11.169  10.633  70.693  1.00  0.00    -0.289 OA 
ENDROOT
BRANCH  11  13
HETATM   13  N   UNL     1     -10.547   7.503  70.524  1.00  0.00    -0.221 N  
HETATM   14  C   UNL     1     -10.394   6.305  71.238  1.00  0.00    -0.212 C  
HETATM   15  H   UNL     1     -11.507   7.640  70.206  1.00  0.00     0.000 HD 
HETATM   16  O   UNL     1     -11.370   5.559  71.306  1.00  0.00    -0.097 OA 
BRANCH  14  17
HETATM   17  C   UNL     1      -9.164   5.972  72.069  1.00  0.00    -0.146 C  
BRANCH  17  18
HETATM   18  C   UNL     1      -8.089   5.119  71.539  1.00  0.00    -0.115 A  
HETATM   19  N   UNL     1      -8.230   4.487  70.309  1.00  0.00    -0.070 NA 
HETATM   20  C   UNL     1      -7.028   4.627  72.294  1.00  0.00    -0.061 A  
HETATM   21  N   UNL     1      -7.597   2.502  69.287  1.00  0.00    -0.044 NA 
HETATM   22  H2  UNL     1      -6.997   1.678  69.311  1.00  0.00     0.000 HD 
HETATM   23  S   UNL     1      -6.330   3.265  71.518  1.00  0.00    -0.015 SA 
HETATM   24  H1  UNL     1      -8.276   2.597  68.532  1.00  0.00     0.000 HD 
HETATM   25  C   UNL     1      -7.471   3.425  70.248  1.00  0.00    -0.041 A  
ENDBRANCH  17  18
BRANCH  17  26
HETATM   26  N   UNL     1      -9.016   6.151  73.353  1.00  0.00    -0.126 NA 
HETATM   27  H   UNL     1      -8.180   6.647  73.665  1.00  0.00     0.000 HD 
BRANCH  26  28
HETATM   28  O   UNL     1      -9.911   5.716  74.337  1.00  0.00    -0.176 OA 
HETATM   29  C   UNL     1     -10.364   4.380  74.337  1.00  0.00    -0.253 C  
ENDBRANCH  26  28
ENDBRANCH  17  26
ENDBRANCH  14  17
ENDBRANCH  11  13
TORSDOF 5
ENDMDL
MODEL      254
REMARK 921   NORMALIZED FREE ENERGY PREDICTED BY IDOCK:   -3.47 KCAL/MOL
REMARK 922        TOTAL FREE ENERGY PREDICTED BY IDOCK:   -5.25 KCAL/MOL
REMARK 923 INTER-LIGAND FREE ENERGY PREDICTED BY IDOCK:   -4.68 KCAL/MOL
REMARK 924 INTRA-LIGAND FREE ENERGY PREDICTED BY IDOCK:   -0.57 KCAL/MOL
REMARK 927      BINDING AFFINITY PREDICTED BY RF-SCORE:    0.00 PKD
ROOT
HETATM    1  CE  UNL     1     -10.744   7.887  71.674  1.00  0.00    -0.223 C  
HETATM    2  SD  UNL     1     -11.895   6.679  72.233  1.00  0.00    -0.208 SA 
HETATM    3  CG  UNL     1     -10.834   5.425  73.018  1.00  0.00    -0.276 C  
HETATM    4  CB  UNL     1      -9.371   5.693  73.052  1.00  0.00    -0.142 C  
HETATM    5  CA  UNL     1      -8.690   6.667  72.426  1.00  0.00    -0.128 C  
HETATM    6  N   UNL     1      -9.357   7.565  71.642  1.00  0.00    -0.145 N  
HETATM    7  C   UNL     1      -7.197   6.616  72.541  1.00  0.00    -0.084 C  
HETATM    8  C   UNL     1      -9.024   8.428  70.642  1.00  0.00    -0.152 C  
HETATM    9  O   UNL     1      -6.480   7.519  71.893  1.00  0.00    -0.042 OA 
HETATM   10  OXT UNL     1      -6.625   5.769  73.232  1.00  0.00    -0.069 OA 
HETATM   11  CA  UNL     1     -10.526   8.473  70.202  1.00  0.00    -0.220 C  
HETATM   12  O   UNL     1      -7.964   8.769  70.232  1.00  0.00    -0.089 OA 
ENDROOT
BRANCH  11  13
HETATM   13  N   UNL     1     -10.690   7.878  68.822  1.00  0.00    -0.394 N  
HETATM   14  C   UNL     1     -10.656   8.366  67.507  1.00  0.00    -0.215 C  
HETATM   15  H   UNL     1     -10.871   6.875  68.855  1.00  0.00     0.000 HD 
HETATM   16  O   UNL     1     -10.931   7.576  66.604  1.00  0.00    -0.079 OA 
BRANCH  14  17
HETATM   17  C   UNL     1     -10.132   9.743  67.133  1.00  0.00    -0.211 C  
BRANCH  17  18
HETATM   18  C   UNL     1     -10.358  10.313  65.795  1.00  0.00    -0.165 A  
HETATM   19  N   UNL     1      -9.834   9.693  64.666  1.00  0.00    -0.010 NA 
HETATM   20  C   UNL     1     -10.809  11.607  65.555  1.00  0.00    -0.279 A  
HETATM   21  N   UNL     1      -8.974  10.287  62.594  1.00  0.00    -0.230 NA 
HETATM   22  H2  UNL     1      -8.865  11.013  61.886  1.00  0.00     0.000 HD 
HETATM   23  S   UNL     1     -10.415  12.085  63.955  1.00  0.00    -0.445 SA 
HETATM   24  H1  UNL     1      -8.539   9.378  62.440  1.00  0.00     0.000 HD 
HETATM   25  C   UNL     1      -9.683  10.556  63.696  1.00  0.00    -0.318 A  
ENDBRANCH  17  18
BRANCH  17  26
HETATM   26  N   UNL     1      -9.252  10.450  67.788  1.00  0.00    -0.141 NA 
HETATM   27  H   UNL     1      -8.271  10.339  67.526  1.00  0.00     0.000 HD 
BRANCH  26  28
HETATM   28  O   UNL     1      -9.545  11.347  68.821  1.00  0.00    -0.190 OA 
HETATM   29  C   UNL     1     -10.847  11.874  68.949  1.00  0.00    -0.221 C  
ENDBRANCH  26  28
ENDBRANCH  17  26
ENDBRANCH  14  17
ENDBRANCH  11  13
TORSDOF 5
ENDMDL
MODEL      255
REMARK 921   NORMALIZED FREE ENERGY PREDICTED BY IDOCK:   -3.46 KCAL/MOL
REMARK 922        TOTAL FREE ENERGY PREDICTED BY IDOCK:   -5.24 KCAL/MOL
REMARK 923 INTER-LIGAND FREE ENERGY PREDICTED BY IDOCK:   -4.33 KCAL/MOL
REMARK 924 INTRA-LIGAND FREE ENERGY PREDICTED BY IDOCK:   -0.91 KCAL/MOL
REMARK 927      BINDING AFFINITY PREDICTED BY RF-SCORE:    0.00 PKD
ROOT
HETATM    1  CE  UNL     1     -10.686  11.820  65.966  1.00  0.00    -0.279 C  
HETATM    2  SD  UNL     1     -12.282  12.527  65.748  1.00  0.00    -0.126 SA 
HETATM    3  CG  UNL     1     -12.145  14.134  66.590  1.00  0.00    -0.451 C  
HETATM    4  CB  UNL     1     -10.826  14.485  67.182  1.00  0.00    -0.296 C  
HETATM    5  CA  UNL     1      -9.748  13.698  67.333  1.00  0.00    -0.228 C  
HETATM    6  N   UNL     1      -9.792  12.400  66.912  1.00  0.00    -0.211 N  
HETATM    7  C   UNL     1      -8.593  14.287  68.085  1.00  0.00    -0.172 C  
HETATM    8  C   UNL     1      -9.087  11.262  67.170  1.00  0.00    -0.157 C  
HETATM    9  O   UNL     1      -7.532  13.530  68.311  1.00  0.00    -0.101 OA 
HETATM   10  OXT UNL     1      -8.601  15.455  68.481  1.00  0.00    -0.158 OA 
HETATM   11  CA  UNL     1     -10.279  10.415  66.613  1.00  0.00    -0.234 C  
HETATM   12  O   UNL     1      -8.078  11.093  67.772  1.00  0.00    -0.113 OA 
ENDROOT
BRANCH  11  13
HETATM   13  N   UNL     1     -10.888   9.573  67.711  1.00  0.00    -0.457 N  
HETATM   14  C   UNL     1     -10.453   8.517  68.526  1.00  0.00    -0.167 C  
HETATM   15  H   UNL     1     -11.854   9.837  67.907  1.00  0.00     0.000 HD 
HETATM   16  O   UNL     1     -11.283   8.003  69.275  1.00  0.00     0.053 OA 
BRANCH  14  17
HETATM   17  C   UNL     1      -8.996   8.104  68.662  1.00  0.00    -0.137 C  
BRANCH  17  18
HETATM   18  C   UNL     1      -8.348   7.998  69.979  1.00  0.00    -0.123 A  
HETATM   19  N   UNL     1      -7.763   6.804  70.384  1.00  0.00    -0.098 NA 
HETATM   20  C   UNL     1      -8.518   8.909  71.017  1.00  0.00    -0.198 A  
HETATM   21  N   UNL     1      -7.436   5.599  72.340  1.00  0.00    -0.095 NA 
HETATM   22  H2  UNL     1      -7.447   5.599  73.360  1.00  0.00     0.000 HD 
HETATM   23  S   UNL     1      -8.093   8.187  72.515  1.00  0.00    -0.150 SA 
HETATM   24  H1  UNL     1      -7.211   4.734  71.848  1.00  0.00     0.000 HD 
HETATM   25  C   UNL     1      -7.716   6.733  71.688  1.00  0.00    -0.096 A  
ENDBRANCH  17  18
BRANCH  17  26
HETATM   26  N   UNL     1      -8.106   8.049  67.709  1.00  0.00    -0.126 NA 
HETATM   27  H   UNL     1      -7.132   8.215  67.965  1.00  0.00     0.000 HD 
BRANCH  26  28
HETATM   28  O   UNL     1      -8.381   7.780  66.363  1.00  0.00    -0.119 OA 
HETATM   29  C   UNL     1      -7.508   8.247  65.358  1.00  0.00    -0.085 C  
ENDBRANCH  26  28
ENDBRANCH  17  26
ENDBRANCH  14  17
ENDBRANCH  11  13
TORSDOF 5
ENDMDL
MODEL      256
REMARK 921   NORMALIZED FREE ENERGY PREDICTED BY IDOCK:   -3.44 KCAL/MOL
REMARK 922        TOTAL FREE ENERGY PREDICTED BY IDOCK:   -5.21 KCAL/MOL
REMARK 923 INTER-LIGAND FREE ENERGY PREDICTED BY IDOCK:   -4.65 KCAL/MOL
REMARK 924 INTRA-LIGAND FREE ENERGY PREDICTED BY IDOCK:   -0.56 KCAL/MOL
REMARK 927      BINDING AFFINITY PREDICTED BY RF-SCORE:    0.00 PKD
ROOT
HETATM    1  CE  UNL     1      -7.781   6.233  65.892  1.00  0.00    -0.093 C  
HETATM    2  SD  UNL     1      -6.181   5.526  65.707  1.00  0.00    -0.035 SA 
HETATM    3  CG  UNL     1      -6.511   3.975  64.814  1.00  0.00    -0.042 C  
HETATM    4  CB  UNL     1      -7.921   3.693  64.432  1.00  0.00    -0.086 C  
HETATM    5  CA  UNL     1      -9.030   4.352  64.806  1.00  0.00    -0.149 C  
HETATM    6  N   UNL     1      -8.930   5.429  65.640  1.00  0.00    -0.159 N  
HETATM    7  C   UNL     1     -10.335   3.762  64.367  1.00  0.00    -0.227 C  
HETATM    8  C   UNL     1      -9.774   6.110  66.465  1.00  0.00    -0.145 C  
HETATM    9  O   UNL     1     -11.457   4.342  64.760  1.00  0.00    -0.229 OA 
HETATM   10  OXT UNL     1     -10.389   2.767  63.640  1.00  0.00    -0.169 OA 
HETATM   11  CA  UNL     1      -8.537   6.696  67.223  1.00  0.00    -0.119 C  
HETATM   12  O   UNL     1     -10.952   6.042  66.599  1.00  0.00    -0.293 OA 
ENDROOT
BRANCH  11  13
HETATM   13  N   UNL     1      -8.506   6.199  68.650  1.00  0.00    -0.114 N  
HETATM   14  C   UNL     1      -8.316   6.780  69.913  1.00  0.00    -0.135 C  
HETATM   15  H   UNL     1      -8.662   5.192  68.710  1.00  0.00     0.000 HD 
HETATM   16  O   UNL     1      -8.268   6.022  70.882  1.00  0.00    -0.121 OA 
BRANCH  14  17
HETATM   17  C   UNL     1      -8.347   8.279  70.163  1.00  0.00    -0.124 C  
BRANCH  17  18
HETATM   18  C   UNL     1      -9.525   8.934  70.753  1.00  0.00    -0.228 A  
HETATM   19  N   UNL     1     -10.143   8.397  71.877  1.00  0.00    -0.239 NA 
HETATM   20  C   UNL     1     -10.289   9.907  70.116  1.00  0.00    -0.282 A  
HETATM   21  N   UNL     1     -12.277   8.207  72.768  1.00  0.00    -0.611 NA 
HETATM   22  H2  UNL     1     -13.247   8.521  72.746  1.00  0.00     0.000 HD 
HETATM   23  S   UNL     1     -11.842  10.011  70.840  1.00  0.00    -0.396 SA 
HETATM   24  H1  UNL     1     -12.011   7.471  73.421  1.00  0.00     0.000 HD 
HETATM   25  C   UNL     1     -11.393   8.773  71.938  1.00  0.00    -0.361 A  
ENDBRANCH  17  18
BRANCH  17  26
HETATM   26  N   UNL     1      -7.519   9.169  69.688  1.00  0.00    -0.074 NA 
HETATM   27  H   UNL     1      -7.596   9.400  68.696  1.00  0.00     0.000 HD 
BRANCH  26  28
HETATM   28  O   UNL     1      -6.535   9.832  70.429  1.00  0.00    -0.075 OA 
HETATM   29  C   UNL     1      -6.257  11.192  70.175  1.00  0.00    -0.147 C  
ENDBRANCH  26  28
ENDBRANCH  17  26
ENDBRANCH  14  17
ENDBRANCH  11  13
TORSDOF 5
ENDMDL
MODEL      257
REMARK 921   NORMALIZED FREE ENERGY PREDICTED BY IDOCK:   -3.42 KCAL/MOL
REMARK 922        TOTAL FREE ENERGY PREDICTED BY IDOCK:   -5.18 KCAL/MOL
REMARK 923 INTER-LIGAND FREE ENERGY PREDICTED BY IDOCK:   -4.39 KCAL/MOL
REMARK 924 INTRA-LIGAND FREE ENERGY PREDICTED BY IDOCK:   -0.79 KCAL/MOL
REMARK 927      BINDING AFFINITY PREDICTED BY RF-SCORE:    0.00 PKD
ROOT
HETATM    1  CE  UNL     1      -8.581   6.417  72.369  1.00  0.00    -0.120 C  
HETATM    2  SD  UNL     1      -9.928   6.979  73.350  1.00  0.00    -0.295 SA 
HETATM    3  CG  UNL     1     -10.468   5.472  74.217  1.00  0.00    -0.247 C  
HETATM    4  CB  UNL     1      -9.696   4.226  73.965  1.00  0.00    -0.148 C  
HETATM    5  CA  UNL     1      -8.743   4.011  73.043  1.00  0.00    -0.099 C  
HETATM    6  N   UNL     1      -8.382   5.018  72.194  1.00  0.00    -0.122 N  
HETATM    7  C   UNL     1      -8.227   2.609  72.933  1.00  0.00    -0.070 C  
HETATM    8  C   UNL     1      -7.751   5.104  70.989  1.00  0.00    -0.095 C  
HETATM    9  O   UNL     1      -7.331   2.335  72.000  1.00  0.00    -0.037 OA 
HETATM   10  OXT UNL     1      -8.601   1.714  73.696  1.00  0.00    -0.053 OA 
HETATM   11  CA  UNL     1      -8.362   6.531  70.788  1.00  0.00    -0.130 C  
HETATM   12  O   UNL     1      -7.174   4.283  70.355  1.00  0.00    -0.040 OA 
ENDROOT
BRANCH  11  13
HETATM   13  N   UNL     1      -9.316   6.537  69.615  1.00  0.00    -0.143 N  
HETATM   14  C   UNL     1      -9.941   7.520  68.834  1.00  0.00    -0.168 C  
HETATM   15  H   UNL     1      -9.566   5.594  69.318  1.00  0.00     0.000 HD 
HETATM   16  O   UNL     1     -10.751   7.140  67.989  1.00  0.00    -0.207 OA 
BRANCH  14  17
HETATM   17  C   UNL     1      -9.545   8.989  68.853  1.00  0.00    -0.156 C  
BRANCH  17  18
HETATM   18  C   UNL     1     -10.360   9.994  69.553  1.00  0.00    -0.235 A  
HETATM   19  N   UNL     1     -11.015   9.671  70.737  1.00  0.00    -0.301 NA 
HETATM   20  C   UNL     1     -10.796  11.189  68.989  1.00  0.00    -0.231 A  
HETATM   21  N   UNL     1     -12.987  10.207  71.838  1.00  0.00    -0.441 NA 
HETATM   22  H2  UNL     1     -13.784  10.838  71.912  1.00  0.00     0.000 HD 
HETATM   23  S   UNL     1     -12.139  11.802  69.864  1.00  0.00    -0.256 SA 
HETATM   24  H1  UNL     1     -12.931   9.405  72.466  1.00  0.00     0.000 HD 
HETATM   25  C   UNL     1     -12.045  10.455  70.920  1.00  0.00    -0.374 A  
ENDBRANCH  17  18
BRANCH  17  26
HETATM   26  N   UNL     1      -8.655   9.569  68.094  1.00  0.00    -0.120 NA 
HETATM   27  H   UNL     1      -7.961  10.160  68.553  1.00  0.00     0.000 HD 
BRANCH  26  28
HETATM   28  O   UNL     1      -8.577   9.444  66.703  1.00  0.00    -0.128 OA 
HETATM   29  C   UNL     1      -9.218  10.388  65.873  1.00  0.00    -0.170 C  
ENDBRANCH  26  28
ENDBRANCH  17  26
ENDBRANCH  14  17
ENDBRANCH  11  13
TORSDOF 5
ENDMDL
MODEL      258
REMARK 921   NORMALIZED FREE ENERGY PREDICTED BY IDOCK:   -3.36 KCAL/MOL
REMARK 922        TOTAL FREE ENERGY PREDICTED BY IDOCK:   -5.10 KCAL/MOL
REMARK 923 INTER-LIGAND FREE ENERGY PREDICTED BY IDOCK:   -4.41 KCAL/MOL
REMARK 924 INTRA-LIGAND FREE ENERGY PREDICTED BY IDOCK:   -0.69 KCAL/MOL
REMARK 927      BINDING AFFINITY PREDICTED BY RF-SCORE:    0.00 PKD
ROOT
HETATM    1  CE  UNL     1      -9.940   5.474  68.346  1.00  0.00    -0.159 C  
HETATM    2  SD  UNL     1     -10.732   6.485  67.144  1.00  0.00    -0.402 SA 
HETATM    3  CG  UNL     1      -9.450   7.704  66.715  1.00  0.00    -0.191 C  
HETATM    4  CB  UNL     1      -8.126   7.564  67.377  1.00  0.00    -0.116 C  
HETATM    5  CA  UNL     1      -7.786   6.751  68.391  1.00  0.00    -0.114 C  
HETATM    6  N   UNL     1      -8.722   5.918  68.935  1.00  0.00    -0.116 N  
HETATM    7  C   UNL     1      -6.403   6.917  68.944  1.00  0.00    -0.028 C  
HETATM    8  C   UNL     1      -8.864   5.236  70.106  1.00  0.00    -0.125 C  
HETATM    9  O   UNL     1      -6.043   6.181  69.982  1.00  0.00    -0.024 OA 
HETATM   10  OXT UNL     1      -5.594   7.705  68.449  1.00  0.00    -0.026 OA 
HETATM   11  CA  UNL     1     -10.401   5.122  69.836  1.00  0.00    -0.277 C  
HETATM   12  O   UNL     1      -8.098   5.051  70.994  1.00  0.00    -0.096 OA 
ENDROOT
BRANCH  11  13
HETATM   13  N   UNL     1     -11.180   5.888  70.881  1.00  0.00    -0.255 N  
HETATM   14  C   UNL     1     -10.931   6.990  71.712  1.00  0.00    -0.234 C  
HETATM   15  H   UNL     1     -12.119   5.511  71.014  1.00  0.00     0.000 HD 
HETATM   16  O   UNL     1     -11.802   7.290  72.529  1.00  0.00    -0.247 OA 
BRANCH  14  17
HETATM   17  C   UNL     1      -9.745   7.925  71.539  1.00  0.00    -0.161 C  
BRANCH  17  18
HETATM   18  C   UNL     1      -9.860   9.177  70.774  1.00  0.00    -0.270 A  
HETATM   19  N   UNL     1     -11.047   9.503  70.128  1.00  0.00    -0.247 NA 
HETATM   20  C   UNL     1      -8.780   9.957  70.371  1.00  0.00     0.086 A  
HETATM   21  N   UNL     1     -11.739  10.588  68.197  1.00  0.00    -0.760 NA 
HETATM   22  H2  UNL     1     -11.491  11.206  67.424  1.00  0.00     0.000 HD 
HETATM   23  S   UNL     1      -9.238  10.975  69.067  1.00  0.00     0.007 SA 
HETATM   24  H1  UNL     1     -12.680  10.197  68.235  1.00  0.00     0.000 HD 
HETATM   25  C   UNL     1     -10.820  10.316  69.131  1.00  0.00    -0.233 A  
ENDBRANCH  17  18
BRANCH  17  26
HETATM   26  N   UNL     1      -8.492   7.655  71.787  1.00  0.00    -0.106 NA 
HETATM   27  H   UNL     1      -7.830   7.747  71.016  1.00  0.00     0.000 HD 
BRANCH  26  28
HETATM   28  O   UNL     1      -7.985   7.249  73.027  1.00  0.00    -0.095 OA 
HETATM   29  C   UNL     1      -8.564   7.734  74.219  1.00  0.00    -0.215 C  
ENDBRANCH  26  28
ENDBRANCH  17  26
ENDBRANCH  14  17
ENDBRANCH  11  13
TORSDOF 5
ENDMDL
MODEL      259
REMARK 921   NORMALIZED FREE ENERGY PREDICTED BY IDOCK:   -3.35 KCAL/MOL
REMARK 922        TOTAL FREE ENERGY PREDICTED BY IDOCK:   -5.09 KCAL/MOL
REMARK 923 INTER-LIGAND FREE ENERGY PREDICTED BY IDOCK:   -4.37 KCAL/MOL
REMARK 924 INTRA-LIGAND FREE ENERGY PREDICTED BY IDOCK:   -0.72 KCAL/MOL
REMARK 927      BINDING AFFINITY PREDICTED BY RF-SCORE:    0.00 PKD
ROOT
HETATM    1  CE  UNL     1     -11.085   9.767  67.631  1.00  0.00    -0.049 C  
HETATM    2  SD  UNL     1     -11.007   9.851  69.387  1.00  0.00    -0.209 SA 
HETATM    3  CG  UNL     1     -11.440  11.582  69.741  1.00  0.00    -0.286 C  
HETATM    4  CB  UNL     1     -11.778  12.453  68.583  1.00  0.00    -0.372 C  
HETATM    5  CA  UNL     1     -11.644  12.183  67.274  1.00  0.00    -0.334 C  
HETATM    6  N   UNL     1     -11.142  10.975  66.879  1.00  0.00    -0.260 N  
HETATM    7  C   UNL     1     -11.946  13.304  66.328  1.00  0.00    -0.417 C  
HETATM    8  C   UNL     1     -10.572  10.475  65.746  1.00  0.00    -0.066 C  
HETATM    9  O   UNL     1     -11.772  13.105  65.032  1.00  0.00    -0.314 OA 
HETATM   10  OXT UNL     1     -12.366  14.395  66.723  1.00  0.00    -0.392 OA 
HETATM   11  CA  UNL     1      -9.965   9.304  66.588  1.00  0.00    -0.264 C  
HETATM   12  O   UNL     1     -10.467  10.941  64.659  1.00  0.00    -0.337 OA 
ENDROOT
BRANCH  11  13
HETATM   13  N   UNL     1      -8.455   9.384  66.594  1.00  0.00    -0.125 N  
HETATM   14  C   UNL     1      -7.410   8.610  67.120  1.00  0.00    -0.088 C  
HETATM   15  H   UNL     1      -8.112  10.204  66.093  1.00  0.00     0.000 HD 
HETATM   16  O   UNL     1      -6.267   9.047  66.998  1.00  0.00    -0.057 OA 
BRANCH  14  17
HETATM   17  C   UNL     1      -7.596   7.201  67.661  1.00  0.00    -0.110 C  
BRANCH  17  18
HETATM   18  C   UNL     1      -7.555   6.922  69.105  1.00  0.00    -0.097 A  
HETATM   19  N   UNL     1      -6.520   7.416  69.891  1.00  0.00    -0.034 NA 
HETATM   20  C   UNL     1      -8.310   5.940  69.740  1.00  0.00    -0.124 A  
HETATM   21  N   UNL     1      -5.289   6.780  71.752  1.00  0.00    -0.027 NA 
HETATM   22  H2  UNL     1      -5.207   6.155  72.554  1.00  0.00     0.000 HD 
HETATM   23  S   UNL     1      -7.605   5.536  71.252  1.00  0.00    -0.101 SA 
HETATM   24  H1  UNL     1      -4.550   7.461  71.578  1.00  0.00     0.000 HD 
HETATM   25  C   UNL     1      -6.362   6.681  70.959  1.00  0.00    -0.041 A  
ENDBRANCH  17  18
BRANCH  17  26
HETATM   26  N   UNL     1      -7.552   6.089  66.979  1.00  0.00    -0.094 NA 
HETATM   27  H   UNL     1      -7.094   5.288  67.415  1.00  0.00     0.000 HD 
BRANCH  26  28
HETATM   28  O   UNL     1      -8.084   5.907  65.697  1.00  0.00    -0.111 OA 
HETATM   29  C   UNL     1      -7.223   5.701  64.599  1.00  0.00    -0.062 C  
ENDBRANCH  26  28
ENDBRANCH  17  26
ENDBRANCH  14  17
ENDBRANCH  11  13
TORSDOF 5
ENDMDL
MODEL      260
REMARK 921   NORMALIZED FREE ENERGY PREDICTED BY IDOCK:   -3.34 KCAL/MOL
REMARK 922        TOTAL FREE ENERGY PREDICTED BY IDOCK:   -5.08 KCAL/MOL
REMARK 923 INTER-LIGAND FREE ENERGY PREDICTED BY IDOCK:   -5.13 KCAL/MOL
REMARK 924 INTRA-LIGAND FREE ENERGY PREDICTED BY IDOCK:    0.05 KCAL/MOL
REMARK 927      BINDING AFFINITY PREDICTED BY RF-SCORE:    0.00 PKD
ROOT
HETATM    1  CE  UNL     1     -10.685   5.815  69.522  1.00  0.00    -0.338 C  
HETATM    2  SD  UNL     1      -9.631   6.377  68.230  1.00  0.00    -0.123 SA 
HETATM    3  CG  UNL     1      -7.963   6.041  68.877  1.00  0.00    -0.100 C  
HETATM    4  CB  UNL     1      -7.867   5.385  70.209  1.00  0.00    -0.084 C  
HETATM    5  CA  UNL     1      -8.851   5.154  71.094  1.00  0.00    -0.134 C  
HETATM    6  N   UNL     1     -10.128   5.539  70.803  1.00  0.00    -0.200 N  
HETATM    7  C   UNL     1      -8.436   4.589  72.418  1.00  0.00    -0.110 C  
HETATM    8  C   UNL     1     -11.265   5.777  71.516  1.00  0.00    -0.175 C  
HETATM    9  O   UNL     1      -9.361   4.399  73.344  1.00  0.00    -0.115 OA 
HETATM   10  OXT UNL     1      -7.265   4.283  72.659  1.00  0.00    -0.066 OA 
HETATM   11  CA  UNL     1     -11.827   6.605  70.313  1.00  0.00    -0.316 C  
HETATM   12  O   UNL     1     -11.524   5.571  72.656  1.00  0.00    -0.296 OA 
ENDROOT
BRANCH  11  13
HETATM   13  N   UNL     1     -11.994   8.057  70.703  1.00  0.00    -0.482 N  
HETATM   14  C   UNL     1     -11.368   9.266  70.365  1.00  0.00    -0.242 C  
HETATM   15  H   UNL     1     -12.747   8.190  71.378  1.00  0.00     0.000 HD 
HETATM   16  O   UNL     1     -11.726  10.276  70.971  1.00  0.00    -0.349 OA 
BRANCH  14  17
HETATM   17  C   UNL     1     -10.417   9.423  69.189  1.00  0.00    -0.217 C  
BRANCH  17  18
HETATM   18  C   UNL     1      -8.966   9.561  69.388  1.00  0.00    -0.172 A  
HETATM   19  N   UNL     1      -8.336   8.928  70.454  1.00  0.00    -0.131 NA 
HETATM   20  C   UNL     1      -8.173  10.526  68.773  1.00  0.00    -0.134 A  
HETATM   21  N   UNL     1      -6.562   9.305  71.902  1.00  0.00    -0.297 NA 
HETATM   22  H2  UNL     1      -5.721   9.844  72.107  1.00  0.00     0.000 HD 
HETATM   23  S   UNL     1      -6.713  10.740  69.648  1.00  0.00    -0.134 SA 
HETATM   24  H1  UNL     1      -6.869   8.596  72.568  1.00  0.00     0.000 HD 
HETATM   25  C   UNL     1      -7.229   9.548  70.768  1.00  0.00    -0.091 A  
ENDBRANCH  17  18
BRANCH  17  26
HETATM   26  N   UNL     1     -10.738   9.704  67.955  1.00  0.00    -0.336 NA 
HETATM   27  H   UNL     1     -11.552  10.303  67.807  1.00  0.00     0.000 HD 
BRANCH  26  28
HETATM   28  O   UNL     1     -10.056   9.251  66.821  1.00  0.00    -0.225 OA 
HETATM   29  C   UNL     1      -9.840  10.123  65.733  1.00  0.00    -0.266 C  
ENDBRANCH  26  28
ENDBRANCH  17  26
ENDBRANCH  14  17
ENDBRANCH  11  13
TORSDOF 5
ENDMDL
MODEL      261
REMARK 921   NORMALIZED FREE ENERGY PREDICTED BY IDOCK:   -3.30 KCAL/MOL
REMARK 922        TOTAL FREE ENERGY PREDICTED BY IDOCK:   -5.03 KCAL/MOL
REMARK 923 INTER-LIGAND FREE ENERGY PREDICTED BY IDOCK:   -5.03 KCAL/MOL
REMARK 924 INTRA-LIGAND FREE ENERGY PREDICTED BY IDOCK:    0.00 KCAL/MOL
REMARK 927      BINDING AFFINITY PREDICTED BY RF-SCORE:    0.00 PKD
ROOT
HETATM    1  CE  UNL     1      -8.432  15.090  68.607  1.00  0.00    -0.168 C  
HETATM    2  SD  UNL     1      -7.599  14.636  67.125  1.00  0.00     0.082 SA 
HETATM    3  CG  UNL     1      -7.670  16.155  66.126  1.00  0.00     0.314 C  
HETATM    4  CB  UNL     1      -8.314  17.347  66.739  1.00  0.00    -0.276 C  
HETATM    5  CA  UNL     1      -9.014  17.416  67.884  1.00  0.00    -0.251 C  
HETATM    6  N   UNL     1      -9.197  16.290  68.635  1.00  0.00    -0.217 N  
HETATM    7  C   UNL     1      -9.660  18.733  68.191  1.00  0.00    -0.332 C  
HETATM    8  C   UNL     1     -10.064  15.894  69.609  1.00  0.00    -0.271 C  
HETATM    9  O   UNL     1     -10.408  18.833  69.277  1.00  0.00    -0.138 OA 
HETATM   10  OXT UNL     1      -9.500  19.721  67.472  1.00  0.00    -0.315 OA 
HETATM   11  CA  UNL     1      -9.693  14.403  69.312  1.00  0.00     0.086 C  
HETATM   12  O   UNL     1     -10.877  16.506  70.221  1.00  0.00    -0.294 OA 
ENDROOT
BRANCH  11  13
HETATM   13  N   UNL     1     -10.893  13.656  68.774  1.00  0.00    -0.253 N  
HETATM   14  C   UNL     1     -11.167  12.332  68.401  1.00  0.00    -0.266 C  
HETATM   15  H   UNL     1     -11.702  14.265  68.653  1.00  0.00     0.000 HD 
HETATM   16  O   UNL     1     -12.270  12.102  67.906  1.00  0.00    -0.438 OA 
BRANCH  14  17
HETATM   17  C   UNL     1     -10.260  11.158  68.734  1.00  0.00    -0.206 C  
BRANCH  17  18
HETATM   18  C   UNL     1      -9.526  10.434  67.684  1.00  0.00    -0.148 A  
HETATM   19  N   UNL     1      -8.895  11.128  66.658  1.00  0.00    -0.161 NA 
HETATM   20  C   UNL     1      -9.641   9.070  67.438  1.00  0.00    -0.152 A  
HETATM   21  N   UNL     1      -8.420  10.852  64.403  1.00  0.00    -0.372 NA 
HETATM   22  H2  UNL     1      -8.363  10.213  63.610  1.00  0.00     0.000 HD 
HETATM   23  S   UNL     1      -9.107   8.707  65.848  1.00  0.00    -0.190 SA 
HETATM   24  H1  UNL     1      -8.214  11.840  64.257  1.00  0.00     0.000 HD 
HETATM   25  C   UNL     1      -8.761  10.368  65.603  1.00  0.00    -0.171 A  
ENDBRANCH  17  18
BRANCH  17  26
HETATM   26  N   UNL     1     -10.212  10.502  69.861  1.00  0.00    -0.438 NA 
HETATM   27  H   UNL     1     -10.071  11.045  70.714  1.00  0.00     0.000 HD 
BRANCH  26  28
HETATM   28  O   UNL     1     -10.338   9.115  69.994  1.00  0.00    -0.188 OA 
HETATM   29  C   UNL     1     -11.364   8.573  70.797  1.00  0.00    -0.266 C  
ENDBRANCH  26  28
ENDBRANCH  17  26
ENDBRANCH  14  17
ENDBRANCH  11  13
TORSDOF 5
ENDMDL
MODEL      262
REMARK 921   NORMALIZED FREE ENERGY PREDICTED BY IDOCK:   -3.28 KCAL/MOL
REMARK 922        TOTAL FREE ENERGY PREDICTED BY IDOCK:   -5.00 KCAL/MOL
REMARK 923 INTER-LIGAND FREE ENERGY PREDICTED BY IDOCK:   -5.70 KCAL/MOL
REMARK 924 INTRA-LIGAND FREE ENERGY PREDICTED BY IDOCK:    0.70 KCAL/MOL
REMARK 927      BINDING AFFINITY PREDICTED BY RF-SCORE:    0.00 PKD
ROOT
HETATM    1  CE  UNL     1      -8.609   9.442  64.805  1.00  0.00    -0.180 C  
HETATM    2  SD  UNL     1      -7.764   9.534  63.264  1.00  0.00    -0.134 SA 
HETATM    3  CG  UNL     1      -6.158  10.263  63.713  1.00  0.00    -0.127 C  
HETATM    4  CB  UNL     1      -5.917  10.552  65.152  1.00  0.00    -0.113 C  
HETATM    5  CA  UNL     1      -6.796  10.506  66.167  1.00  0.00    -0.131 C  
HETATM    6  N   UNL     1      -8.093  10.156  65.924  1.00  0.00    -0.130 N  
HETATM    7  C   UNL     1      -6.299  10.975  67.500  1.00  0.00    -0.062 C  
HETATM    8  C   UNL     1      -9.285  10.307  66.569  1.00  0.00    -0.153 C  
HETATM    9  O   UNL     1      -7.144  11.005  68.517  1.00  0.00    -0.069 OA 
HETATM   10  OXT UNL     1      -5.126  11.317  67.675  1.00  0.00    -0.040 OA 
HETATM   11  CA  UNL     1     -10.031  10.046  65.219  1.00  0.00    -0.298 C  
HETATM   12  O   UNL     1      -9.531  10.691  67.665  1.00  0.00    -0.152 OA 
ENDROOT
BRANCH  11  13
HETATM   13  N   UNL     1     -10.790  11.281  64.787  1.00  0.00    -0.281 N  
HETATM   14  C   UNL     1     -11.596  12.238  65.421  1.00  0.00    -0.363 C  
HETATM   15  H   UNL     1     -10.692  11.462  63.788  1.00  0.00     0.000 HD 
HETATM   16  O   UNL     1     -12.137  13.083  64.708  1.00  0.00    -0.369 OA 
BRANCH  14  17
HETATM   17  C   UNL     1     -11.689  12.393  66.931  1.00  0.00    -0.362 C  
BRANCH  17  18
HETATM   18  C   UNL     1     -11.106  13.555  67.620  1.00  0.00    -0.269 A  
HETATM   19  N   UNL     1     -11.732  14.795  67.568  1.00  0.00    -0.370 NA 
HETATM   20  C   UNL     1      -9.798  13.617  68.094  1.00  0.00    -0.236 A  
HETATM   21  N   UNL     1     -11.150  17.041  67.519  1.00  0.00    -0.103 NA 
HETATM   22  H2  UNL     1     -10.423  17.742  67.660  1.00  0.00     0.000 HD 
HETATM   23  S   UNL     1      -9.322  15.252  68.306  1.00  0.00    -0.198 SA 
HETATM   24  H1  UNL     1     -12.069  17.340  67.196  1.00  0.00     0.000 HD 
HETATM   25  C   UNL     1     -10.868  15.756  67.763  1.00  0.00    -0.316 A  
ENDBRANCH  17  18
BRANCH  17  26
HETATM   26  N   UNL     1     -12.029  11.474  67.793  1.00  0.00    -0.637 NA 
HETATM   27  H   UNL     1     -12.275  10.554  67.425  1.00  0.00     0.000 HD 
BRANCH  26  28
HETATM   28  O   UNL     1     -12.083  11.648  69.180  1.00  0.00    -0.317 OA 
HETATM   29  C   UNL     1     -11.940  10.537  70.037  1.00  0.00    -0.288 C  
ENDBRANCH  26  28
ENDBRANCH  17  26
ENDBRANCH  14  17
ENDBRANCH  11  13
TORSDOF 5
ENDMDL
MODEL      263
REMARK 921   NORMALIZED FREE ENERGY PREDICTED BY IDOCK:   -3.22 KCAL/MOL
REMARK 922        TOTAL FREE ENERGY PREDICTED BY IDOCK:   -4.92 KCAL/MOL
REMARK 923 INTER-LIGAND FREE ENERGY PREDICTED BY IDOCK:   -3.97 KCAL/MOL
REMARK 924 INTRA-LIGAND FREE ENERGY PREDICTED BY IDOCK:   -0.95 KCAL/MOL
REMARK 927      BINDING AFFINITY PREDICTED BY RF-SCORE:    0.00 PKD
ROOT
HETATM    1  CE  UNL     1     -10.109   4.942  70.383  1.00  0.00    -0.245 C  
HETATM    2  SD  UNL     1      -8.620   4.717  69.472  1.00  0.00    -0.082 SA 
HETATM    3  CG  UNL     1      -7.777   3.381  70.377  1.00  0.00    -0.043 C  
HETATM    4  CB  UNL     1      -8.484   2.797  71.548  1.00  0.00    -0.090 C  
HETATM    5  CA  UNL     1      -9.603   3.237  72.147  1.00  0.00    -0.139 C  
HETATM    6  N   UNL     1     -10.229   4.355  71.675  1.00  0.00    -0.157 N  
HETATM    7  C   UNL     1     -10.018   2.518  73.394  1.00  0.00    -0.102 C  
HETATM    8  C   UNL     1     -11.126   5.256  72.167  1.00  0.00    -0.119 C  
HETATM    9  O   UNL     1     -11.080   2.952  74.052  1.00  0.00    -0.188 OA 
HETATM   10  OXT UNL     1      -9.408   1.530  73.811  1.00  0.00    -0.067 OA 
HETATM   11  CA  UNL     1     -10.694   6.270  71.056  1.00  0.00    -0.259 C  
HETATM   12  O   UNL     1     -11.766   5.248  73.166  1.00  0.00    -0.268 OA 
ENDROOT
BRANCH  11  13
HETATM   13  N   UNL     1     -10.040   7.485  71.674  1.00  0.00    -0.180 N  
HETATM   14  C   UNL     1      -9.062   8.410  71.279  1.00  0.00    -0.178 C  
HETATM   15  H   UNL     1     -10.398   7.680  72.609  1.00  0.00     0.000 HD 
HETATM   16  O   UNL     1      -8.706   9.246  72.109  1.00  0.00    -0.199 OA 
BRANCH  14  17
HETATM   17  C   UNL     1      -8.560   8.546  69.850  1.00  0.00    -0.131 C  
BRANCH  17  18
HETATM   18  C   UNL     1      -9.469   8.900  68.748  1.00  0.00    -0.144 A  
HETATM   19  N   UNL     1      -9.306   8.333  67.488  1.00  0.00    -0.139 NA 
HETATM   20  C   UNL     1     -10.326   9.996  68.753  1.00  0.00    -0.198 A  
HETATM   21  N   UNL     1      -9.584   8.926  65.262  1.00  0.00    -0.425 NA 
HETATM   22  H2  UNL     1      -9.987   9.582  64.593  1.00  0.00     0.000 HD 
HETATM   23  S   UNL     1     -10.780  10.401  67.148  1.00  0.00    -0.229 SA 
HETATM   24  H1  UNL     1      -9.013   8.156  64.917  1.00  0.00     0.000 HD 
HETATM   25  C   UNL     1      -9.820   9.105  66.567  1.00  0.00    -0.264 A  
ENDBRANCH  17  18
BRANCH  17  26
HETATM   26  N   UNL     1      -7.410   8.143  69.383  1.00  0.00    -0.074 NA 
HETATM   27  H   UNL     1      -7.386   7.812  68.418  1.00  0.00     0.000 HD 
BRANCH  26  28
HETATM   28  O   UNL     1      -6.208   8.129  70.099  1.00  0.00    -0.032 OA 
HETATM   29  C   UNL     1      -5.381   6.987  70.067  1.00  0.00    -0.019 C  
ENDBRANCH  26  28
ENDBRANCH  17  26
ENDBRANCH  14  17
ENDBRANCH  11  13
TORSDOF 5
ENDMDL
MODEL      264
REMARK 921   NORMALIZED FREE ENERGY PREDICTED BY IDOCK:   -3.21 KCAL/MOL
REMARK 922        TOTAL FREE ENERGY PREDICTED BY IDOCK:   -4.91 KCAL/MOL
REMARK 923 INTER-LIGAND FREE ENERGY PREDICTED BY IDOCK:   -3.69 KCAL/MOL
REMARK 924 INTRA-LIGAND FREE ENERGY PREDICTED BY IDOCK:   -1.22 KCAL/MOL
REMARK 927      BINDING AFFINITY PREDICTED BY RF-SCORE:    0.00 PKD
ROOT
HETATM    1  CE  UNL     1      -6.875   7.619  66.445  1.00  0.00    -0.062 C  
HETATM    2  SD  UNL     1      -5.445   6.738  66.966  1.00  0.00    -0.014 SA 
HETATM    3  CG  UNL     1      -6.108   5.110  67.440  1.00  0.00    -0.030 C  
HETATM    4  CB  UNL     1      -7.567   4.888  67.257  1.00  0.00    -0.087 C  
HETATM    5  CA  UNL     1      -8.512   5.790  66.944  1.00  0.00    -0.108 C  
HETATM    6  N   UNL     1      -8.164   7.096  66.751  1.00  0.00    -0.112 N  
HETATM    7  C   UNL     1      -9.928   5.301  66.952  1.00  0.00    -0.194 C  
HETATM    8  C   UNL     1      -8.816   8.293  66.754  1.00  0.00    -0.140 C  
HETATM    9  O   UNL     1     -10.899   6.166  66.708  1.00  0.00    -0.319 OA 
HETATM   10  OXT UNL     1     -10.209   4.119  67.164  1.00  0.00    -0.049 OA 
HETATM   11  CA  UNL     1      -7.446   9.021  66.962  1.00  0.00    -0.087 C  
HETATM   12  O   UNL     1      -9.975   8.547  66.793  1.00  0.00    -0.230 OA 
ENDROOT
BRANCH  11  13
HETATM   13  N   UNL     1      -7.413   9.714  68.306  1.00  0.00    -0.077 N  
HETATM   14  C   UNL     1      -7.876   9.423  69.598  1.00  0.00    -0.105 C  
HETATM   15  H   UNL     1      -6.936  10.615  68.262  1.00  0.00     0.000 HD 
HETATM   16  O   UNL     1      -7.740  10.295  70.456  1.00  0.00    -0.163 OA 
BRANCH  14  17
HETATM   17  C   UNL     1      -8.363   8.049  70.028  1.00  0.00    -0.123 C  
BRANCH  17  18
HETATM   18  C   UNL     1      -9.782   7.796  70.325  1.00  0.00    -0.179 A  
HETATM   19  N   UNL     1     -10.625   8.841  70.687  1.00  0.00    -0.206 NA 
HETATM   20  C   UNL     1     -10.325   6.539  70.572  1.00  0.00    -0.201 A  
HETATM   21  N   UNL     1     -12.456   9.204  72.065  1.00  0.00    -0.373 NA 
HETATM   22  H2  UNL     1     -13.209   8.794  72.617  1.00  0.00     0.000 HD 
HETATM   23  S   UNL     1     -11.814   6.690  71.411  1.00  0.00    -0.340 SA 
HETATM   24  H1  UNL     1     -12.351  10.218  72.049  1.00  0.00     0.000 HD 
HETATM   25  C   UNL     1     -11.636   8.395  71.384  1.00  0.00    -0.284 A  
ENDBRANCH  17  18
BRANCH  17  26
HETATM   26  N   UNL     1      -7.627   7.047  70.426  1.00  0.00    -0.089 NA 
HETATM   27  H   UNL     1      -7.797   6.138  69.993  1.00  0.00     0.000 HD 
BRANCH  26  28
HETATM   28  O   UNL     1      -6.624   7.119  71.399  1.00  0.00    -0.049 OA 
HETATM   29  C   UNL     1      -6.934   7.569  72.700  1.00  0.00    -0.070 C  
ENDBRANCH  26  28
ENDBRANCH  17  26
ENDBRANCH  14  17
ENDBRANCH  11  13
TORSDOF 5
ENDMDL
MODEL      265
REMARK 921   NORMALIZED FREE ENERGY PREDICTED BY IDOCK:   -3.09 KCAL/MOL
REMARK 922        TOTAL FREE ENERGY PREDICTED BY IDOCK:   -4.76 KCAL/MOL
REMARK 923 INTER-LIGAND FREE ENERGY PREDICTED BY IDOCK:   -3.70 KCAL/MOL
REMARK 924 INTRA-LIGAND FREE ENERGY PREDICTED BY IDOCK:   -1.06 KCAL/MOL
REMARK 927      BINDING AFFINITY PREDICTED BY RF-SCORE:    0.00 PKD
ROOT
HETATM    1  CE  UNL     1      -9.143   4.974  67.823  1.00  0.00    -0.114 C  
HETATM    2  SD  UNL     1     -10.589   5.905  67.454  1.00  0.00    -0.290 SA 
HETATM    3  CG  UNL     1     -10.058   7.624  67.728  1.00  0.00    -0.186 C  
HETATM    4  CB  UNL     1      -8.641   7.848  68.123  1.00  0.00    -0.123 C  
HETATM    5  CA  UNL     1      -7.723   6.932  68.474  1.00  0.00    -0.113 C  
HETATM    6  N   UNL     1      -8.059   5.609  68.495  1.00  0.00    -0.103 N  
HETATM    7  C   UNL     1      -6.404   7.461  68.949  1.00  0.00    -0.039 C  
HETATM    8  C   UNL     1      -7.560   4.481  69.076  1.00  0.00    -0.056 C  
HETATM    9  O   UNL     1      -5.489   6.600  69.363  1.00  0.00    -0.013 OA 
HETATM   10  OXT UNL     1      -6.147   8.667  68.949  1.00  0.00    -0.043 OA 
HETATM   11  CA  UNL     1      -8.945   3.781  68.870  1.00  0.00    -0.123 C  
HETATM   12  O   UNL     1      -6.544   4.293  69.659  1.00  0.00    -0.032 OA 
ENDROOT
BRANCH  11  13
HETATM   13  N   UNL     1      -9.583   3.467  70.205  1.00  0.00    -0.173 N  
HETATM   14  C   UNL     1      -9.549   4.026  71.491  1.00  0.00    -0.167 C  
HETATM   15  H   UNL     1     -10.186   2.645  70.158  1.00  0.00     0.000 HD 
HETATM   16  O   UNL     1     -10.148   3.426  72.383  1.00  0.00    -0.157 OA 
BRANCH  14  17
HETATM   17  C   UNL     1      -8.975   5.400  71.797  1.00  0.00    -0.135 C  
BRANCH  17  18
HETATM   18  C   UNL     1      -9.821   6.604  71.789  1.00  0.00    -0.161 A  
HETATM   19  N   UNL     1     -11.193   6.502  71.586  1.00  0.00    -0.257 NA 
HETATM   20  C   UNL     1      -9.341   7.905  71.667  1.00  0.00    -0.148 A  
HETATM   21  N   UNL     1     -12.903   7.715  70.591  1.00  0.00    -0.424 NA 
HETATM   22  H2  UNL     1     -13.208   8.607  70.202  1.00  0.00     0.000 HD 
HETATM   23  S   UNL     1     -10.593   8.952  71.136  1.00  0.00    -0.293 SA 
HETATM   24  H1  UNL     1     -13.544   6.923  70.574  1.00  0.00     0.000 HD 
HETATM   25  C   UNL     1     -11.672   7.620  71.107  1.00  0.00    -0.290 A  
ENDBRANCH  17  18
BRANCH  17  26
HETATM   26  N   UNL     1      -7.713   5.729  71.843  1.00  0.00    -0.103 NA 
HETATM   27  H   UNL     1      -7.358   6.333  71.101  1.00  0.00     0.000 HD 
BRANCH  26  28
HETATM   28  O   UNL     1      -6.808   5.319  72.829  1.00  0.00    -0.071 OA 
HETATM   29  C   UNL     1      -7.177   5.369  74.189  1.00  0.00    -0.086 C  
ENDBRANCH  26  28
ENDBRANCH  17  26
ENDBRANCH  14  17
ENDBRANCH  11  13
TORSDOF 5
ENDMDL
MODEL      266
REMARK 921   NORMALIZED FREE ENERGY PREDICTED BY IDOCK:   -3.08 KCAL/MOL
REMARK 922        TOTAL FREE ENERGY PREDICTED BY IDOCK:   -4.74 KCAL/MOL
REMARK 923 INTER-LIGAND FREE ENERGY PREDICTED BY IDOCK:   -3.82 KCAL/MOL
REMARK 924 INTRA-LIGAND FREE ENERGY PREDICTED BY IDOCK:   -0.91 KCAL/MOL
REMARK 927      BINDING AFFINITY PREDICTED BY RF-SCORE:    0.00 PKD
ROOT
HETATM    1  CE  UNL     1      -7.659   3.438  66.384  1.00  0.00    -0.077 C  
HETATM    2  SD  UNL     1      -6.571   2.130  65.938  1.00  0.00    -0.028 SA 
HETATM    3  CG  UNL     1      -7.312   1.474  64.411  1.00  0.00    -0.053 C  
HETATM    4  CB  UNL     1      -8.533   2.152  63.898  1.00  0.00    -0.082 C  
HETATM    5  CA  UNL     1      -9.277   3.092  64.503  1.00  0.00    -0.139 C  
HETATM    6  N   UNL     1      -8.930   3.533  65.749  1.00  0.00    -0.134 N  
HETATM    7  C   UNL     1     -10.533   3.504  63.798  1.00  0.00    -0.265 C  
HETATM    8  C   UNL     1      -9.562   4.177  66.770  1.00  0.00    -0.208 C  
HETATM    9  O   UNL     1     -11.329   4.383  64.383  1.00  0.00    -0.136 OA 
HETATM   10  OXT UNL     1     -10.833   3.059  62.687  1.00  0.00    -0.174 OA 
HETATM   11  CA  UNL     1      -8.452   3.676  67.752  1.00  0.00    -0.095 C  
HETATM   12  O   UNL     1     -10.629   4.696  66.819  1.00  0.00    -0.148 OA 
ENDROOT
BRANCH  11  13
HETATM   13  N   UNL     1      -9.040   2.733  68.778  1.00  0.00    -0.135 N  
HETATM   14  C   UNL     1      -9.214   2.745  70.170  1.00  0.00    -0.135 C  
HETATM   15  H   UNL     1      -9.399   1.878  68.353  1.00  0.00     0.000 HD 
HETATM   16  O   UNL     1      -9.669   1.727  70.691  1.00  0.00    -0.100 OA 
BRANCH  14  17
HETATM   17  C   UNL     1      -9.043   3.987  71.030  1.00  0.00    -0.116 C  
BRANCH  17  18
HETATM   18  C   UNL     1     -10.004   5.100  70.970  1.00  0.00    -0.206 A  
HETATM   19  N   UNL     1     -10.553   5.494  69.755  1.00  0.00    -0.321 NA 
HETATM   20  C   UNL     1     -10.211   6.020  71.994  1.00  0.00    -0.194 A  
HETATM   21  N   UNL     1     -11.267   7.443  68.717  1.00  0.00    -0.418 NA 
HETATM   22  H2  UNL     1     -11.528   8.424  68.819  1.00  0.00     0.000 HD 
HETATM   23  S   UNL     1     -10.944   7.442  71.373  1.00  0.00    -0.238 SA 
HETATM   24  H1  UNL     1     -11.263   7.027  67.786  1.00  0.00     0.000 HD 
HETATM   25  C   UNL     1     -10.938   6.742  69.808  1.00  0.00    -0.297 A  
ENDBRANCH  17  18
BRANCH  17  26
HETATM   26  N   UNL     1      -7.973   4.342  71.688  1.00  0.00    -0.089 NA 
HETATM   27  H   UNL     1      -8.094   4.628  72.661  1.00  0.00     0.000 HD 
BRANCH  26  28
HETATM   28  O   UNL     1      -6.675   4.362  71.167  1.00  0.00    -0.029 OA 
HETATM   29  C   UNL     1      -5.708   3.453  71.648  1.00  0.00    -0.009 C  
ENDBRANCH  26  28
ENDBRANCH  17  26
ENDBRANCH  14  17
ENDBRANCH  11  13
TORSDOF 5
ENDMDL
MODEL      267
REMARK 921   NORMALIZED FREE ENERGY PREDICTED BY IDOCK:   -2.96 KCAL/MOL
REMARK 922        TOTAL FREE ENERGY PREDICTED BY IDOCK:   -4.59 KCAL/MOL
REMARK 923 INTER-LIGAND FREE ENERGY PREDICTED BY IDOCK:   -3.87 KCAL/MOL
REMARK 924 INTRA-LIGAND FREE ENERGY PREDICTED BY IDOCK:   -0.72 KCAL/MOL
REMARK 927      BINDING AFFINITY PREDICTED BY RF-SCORE:    0.00 PKD
ROOT
HETATM    1  CE  UNL     1      -9.347  10.451  65.015  1.00  0.00    -0.229 C  
HETATM    2  SD  UNL     1      -8.274  10.311  63.627  1.00  0.00    -0.137 SA 
HETATM    3  CG  UNL     1      -7.334   8.793  63.979  1.00  0.00    -0.102 C  
HETATM    4  CB  UNL     1      -7.677   8.049  65.220  1.00  0.00    -0.099 C  
HETATM    5  CA  UNL     1      -8.482   8.435  66.224  1.00  0.00    -0.127 C  
HETATM    6  N   UNL     1      -9.101   9.651  66.167  1.00  0.00    -0.153 N  
HETATM    7  C   UNL     1      -8.541   7.529  67.416  1.00  0.00    -0.118 C  
HETATM    8  C   UNL     1      -9.681  10.497  67.064  1.00  0.00    -0.177 C  
HETATM    9  O   UNL     1      -9.274   7.895  68.455  1.00  0.00    -0.136 OA 
HETATM   10  OXT UNL     1      -7.941   6.452  67.447  1.00  0.00    -0.113 OA 
HETATM   11  CA  UNL     1      -9.528  11.667  66.037  1.00  0.00    -0.229 C  
HETATM   12  O   UNL     1      -9.955  10.346  68.209  1.00  0.00    -0.146 OA 
ENDROOT
BRANCH  11  13
HETATM   13  N   UNL     1      -8.578  12.716  66.567  1.00  0.00    -0.421 N  
HETATM   14  C   UNL     1      -8.667  14.076  66.901  1.00  0.00    -0.164 C  
HETATM   15  H   UNL     1      -7.641  12.343  66.721  1.00  0.00     0.000 HD 
HETATM   16  O   UNL     1      -7.627  14.646  67.230  1.00  0.00    -0.193 OA 
BRANCH  14  17
HETATM   17  C   UNL     1      -9.983  14.823  67.047  1.00  0.00    -0.238 C  
BRANCH  17  18
HETATM   18  C   UNL     1     -11.049  14.703  66.040  1.00  0.00    -0.332 A  
HETATM   19  N   UNL     1     -12.256  14.091  66.360  1.00  0.00    -0.461 NA 
HETATM   20  C   UNL     1     -10.867  14.882  64.672  1.00  0.00    -0.275 A  
HETATM   21  N   UNL     1     -13.870  12.779  65.330  1.00  0.00     1.082 NA 
HETATM   22  H2  UNL     1     -14.258  12.424  64.456  1.00  0.00     0.000 HD 
HETATM   23  S   UNL     1     -12.138  14.128  63.800  1.00  0.00     0.049 SA 
HETATM   24  H1  UNL     1     -14.285  12.480  66.212  1.00  0.00     0.000 HD 
HETATM   25  C   UNL     1     -12.834  13.624  65.284  1.00  0.00    -0.369 A  
ENDBRANCH  17  18
BRANCH  17  26
HETATM   26  N   UNL     1     -10.239  15.804  67.869  1.00  0.00    -0.238 NA 
HETATM   27  H   UNL     1     -10.253  16.749  67.484  1.00  0.00     0.000 HD 
BRANCH  26  28
HETATM   28  O   UNL     1     -10.496  15.663  69.238  1.00  0.00    -0.215 OA 
HETATM   29  C   UNL     1     -11.735  15.146  69.673  1.00  0.00    -0.327 C  
ENDBRANCH  26  28
ENDBRANCH  17  26
ENDBRANCH  14  17
ENDBRANCH  11  13
TORSDOF 5
ENDMDL
MODEL      268
REMARK 921   NORMALIZED FREE ENERGY PREDICTED BY IDOCK:   -2.95 KCAL/MOL
REMARK 922        TOTAL FREE ENERGY PREDICTED BY IDOCK:   -4.57 KCAL/MOL
REMARK 923 INTER-LIGAND FREE ENERGY PREDICTED BY IDOCK:   -4.11 KCAL/MOL
REMARK 924 INTRA-LIGAND FREE ENERGY PREDICTED BY IDOCK:   -0.45 KCAL/MOL
REMARK 927      BINDING AFFINITY PREDICTED BY RF-SCORE:    0.00 PKD
ROOT
HETATM    1  CE  UNL     1     -11.459  12.172  69.051  1.00  0.00    -0.297 C  
HETATM    2  SD  UNL     1     -11.201  13.541  70.126  1.00  0.00     0.420 SA 
HETATM    3  CG  UNL     1     -11.869  14.945  69.180  1.00  0.00    -0.307 C  
HETATM    4  CB  UNL     1     -12.470  14.650  67.852  1.00  0.00     0.316 C  
HETATM    5  CA  UNL     1     -12.439  13.496  67.164  1.00  0.00    -0.007 C  
HETATM    6  N   UNL     1     -11.794  12.412  67.688  1.00  0.00    -0.347 N  
HETATM    7  C   UNL     1     -13.023  13.527  65.785  1.00  0.00    -0.102 C  
HETATM    8  C   UNL     1     -11.280  11.249  67.199  1.00  0.00    -0.275 C  
HETATM    9  O   UNL     1     -12.963  12.432  65.046  1.00  0.00    -0.705 OA 
HETATM   10  OXT UNL     1     -13.569  14.536  65.330  1.00  0.00    -0.293 OA 
HETATM   11  CA  UNL     1     -10.401  11.114  68.487  1.00  0.00    -0.193 C  
HETATM   12  O   UNL     1     -11.373  10.749  66.126  1.00  0.00     0.042 OA 
ENDROOT
BRANCH  11  13
HETATM   13  N   UNL     1      -8.933  11.212  68.138  1.00  0.00    -0.152 N  
HETATM   14  C   UNL     1      -8.049  12.244  67.789  1.00  0.00    -0.155 C  
HETATM   15  H   UNL     1      -8.471  10.303  68.163  1.00  0.00     0.000 HD 
HETATM   16  O   UNL     1      -6.903  11.925  67.477  1.00  0.00    -0.100 OA 
BRANCH  14  17
HETATM   17  C   UNL     1      -8.376  13.721  67.947  1.00  0.00    -0.172 C  
BRANCH  17  18
HETATM   18  C   UNL     1      -8.703  14.563  66.786  1.00  0.00    -0.185 A  
HETATM   19  N   UNL     1      -8.160  15.838  66.662  1.00  0.00    -0.265 NA 
HETATM   20  C   UNL     1      -9.760  14.327  65.913  1.00  0.00    -0.262 A  
HETATM   21  N   UNL     1      -8.769  17.917  65.831  1.00  0.00    -0.501 NA 
HETATM   22  H2  UNL     1      -9.414  18.454  65.252  1.00  0.00     0.000 HD 
HETATM   23  S   UNL     1     -10.165  15.765  65.068  1.00  0.00     0.063 SA 
HETATM   24  H1  UNL     1      -8.028  18.407  66.331  1.00  0.00     0.000 HD 
HETATM   25  C   UNL     1      -8.920  16.589  65.910  1.00  0.00    -0.130 A  
ENDBRANCH  17  18
BRANCH  17  26
HETATM   26  N   UNL     1      -8.169  14.459  69.003  1.00  0.00    -0.316 NA 
HETATM   27  H   UNL     1      -8.853  15.190  69.207  1.00  0.00     0.000 HD 
BRANCH  26  28
HETATM   28  O   UNL     1      -7.086  14.329  69.880  1.00  0.00    -0.038 OA 
HETATM   29  C   UNL     1      -6.109  15.344  69.949  1.00  0.00    -0.152 C  
ENDBRANCH  26  28
ENDBRANCH  17  26
ENDBRANCH  14  17
ENDBRANCH  11  13
TORSDOF 5
ENDMDL
MODEL      269
REMARK 921   NORMALIZED FREE ENERGY PREDICTED BY IDOCK:   -2.91 KCAL/MOL
REMARK 922        TOTAL FREE ENERGY PREDICTED BY IDOCK:   -4.52 KCAL/MOL
REMARK 923 INTER-LIGAND FREE ENERGY PREDICTED BY IDOCK:   -3.77 KCAL/MOL
REMARK 924 INTRA-LIGAND FREE ENERGY PREDICTED BY IDOCK:   -0.75 KCAL/MOL
REMARK 927      BINDING AFFINITY PREDICTED BY RF-SCORE:    0.00 PKD
ROOT
HETATM    1  CE  UNL     1      -7.066   7.750  66.649  1.00  0.00    -0.079 C  
HETATM    2  SD  UNL     1      -5.796   6.598  66.253  1.00  0.00    -0.026 SA 
HETATM    3  CG  UNL     1      -6.722   5.108  65.769  1.00  0.00    -0.053 C  
HETATM    4  CB  UNL     1      -8.207   5.196  65.770  1.00  0.00    -0.117 C  
HETATM    5  CA  UNL     1      -8.980   6.185  66.248  1.00  0.00    -0.154 C  
HETATM    6  N   UNL     1      -8.401   7.283  66.817  1.00  0.00    -0.116 N  
HETATM    7  C   UNL     1     -10.458   5.943  66.230  1.00  0.00    -0.019 C  
HETATM    8  C   UNL     1      -8.802   8.274  67.663  1.00  0.00    -0.136 C  
HETATM    9  O   UNL     1     -11.258   6.863  66.744  1.00  0.00    -0.279 OA 
HETATM   10  OXT UNL     1     -10.946   4.922  65.737  1.00  0.00    -0.230 OA 
HETATM   11  CA  UNL     1      -7.303   8.571  68.001  1.00  0.00    -0.092 C  
HETATM   12  O   UNL     1      -9.881   8.562  68.065  1.00  0.00    -0.157 OA 
ENDROOT
BRANCH  11  13
HETATM   13  N   UNL     1      -7.018   8.266  69.454  1.00  0.00    -0.050 N  
HETATM   14  C   UNL     1      -7.495   7.346  70.400  1.00  0.00    -0.085 C  
HETATM   15  H   UNL     1      -6.303   8.881  69.843  1.00  0.00     0.000 HD 
HETATM   16  O   UNL     1      -7.079   7.455  71.553  1.00  0.00    -0.065 OA 
BRANCH  14  17
HETATM   17  C   UNL     1      -8.343   6.135  70.044  1.00  0.00    -0.125 C  
BRANCH  17  18
HETATM   18  C   UNL     1      -9.643   5.892  70.689  1.00  0.00    -0.173 A  
HETATM   19  N   UNL     1     -10.796   6.501  70.206  1.00  0.00    -0.255 NA 
HETATM   20  C   UNL     1      -9.804   5.329  71.952  1.00  0.00    -0.178 A  
HETATM   21  N   UNL     1     -12.790   7.357  71.028  1.00  0.00    -0.575 NA 
HETATM   22  H2  UNL     1     -13.440   7.416  71.812  1.00  0.00     0.000 HD 
HETATM   23  S   UNL     1     -11.352   5.720  72.582  1.00  0.00    -0.277 SA 
HETATM   24  H1  UNL     1     -12.994   7.878  70.176  1.00  0.00     0.000 HD 
HETATM   25  C   UNL     1     -11.695   6.597  71.149  1.00  0.00    -0.346 A  
ENDBRANCH  17  18
BRANCH  17  26
HETATM   26  N   UNL     1      -7.961   5.082  69.375  1.00  0.00    -0.075 NA 
HETATM   27  H   UNL     1      -7.847   5.183  68.366  1.00  0.00     0.000 HD 
BRANCH  26  28
HETATM   28  O   UNL     1      -7.696   3.825  69.931  1.00  0.00    -0.051 OA 
HETATM   29  C   UNL     1      -8.415   2.694  69.492  1.00  0.00    -0.061 C  
ENDBRANCH  26  28
ENDBRANCH  17  26
ENDBRANCH  14  17
ENDBRANCH  11  13
TORSDOF 5
ENDMDL
MODEL      270
REMARK 921   NORMALIZED FREE ENERGY PREDICTED BY IDOCK:   -2.87 KCAL/MOL
REMARK 922        TOTAL FREE ENERGY PREDICTED BY IDOCK:   -4.47 KCAL/MOL
REMARK 923 INTER-LIGAND FREE ENERGY PREDICTED BY IDOCK:   -4.89 KCAL/MOL
REMARK 924 INTRA-LIGAND FREE ENERGY PREDICTED BY IDOCK:    0.42 KCAL/MOL
REMARK 927      BINDING AFFINITY PREDICTED BY RF-SCORE:    0.00 PKD
ROOT
HETATM    1  CE  UNL     1      -6.117  14.336  69.715  1.00  0.00    -0.132 C  
HETATM    2  SD  UNL     1      -5.632  14.041  71.380  1.00  0.00    -0.233 SA 
HETATM    3  CG  UNL     1      -5.194  12.275  71.380  1.00  0.00    -0.067 C  
HETATM    4  CB  UNL     1      -5.289  11.548  70.085  1.00  0.00    -0.094 C  
HETATM    5  CA  UNL     1      -5.822  11.976  68.929  1.00  0.00    -0.053 C  
HETATM    6  N   UNL     1      -6.364  13.228  68.856  1.00  0.00    -0.089 N  
HETATM    7  C   UNL     1      -5.894  10.974  67.817  1.00  0.00    -0.046 C  
HETATM    8  C   UNL     1      -7.241  13.867  68.032  1.00  0.00    -0.141 C  
HETATM    9  O   UNL     1      -6.465  11.331  66.679  1.00  0.00    -0.119 OA 
HETATM   10  OXT UNL     1      -5.424   9.840  67.931  1.00  0.00    -0.040 OA 
HETATM   11  CA  UNL     1      -7.488  14.935  69.149  1.00  0.00    -0.158 C  
HETATM   12  O   UNL     1      -7.712  13.538  66.993  1.00  0.00    -0.040 OA 
ENDROOT
BRANCH  11  13
HETATM   13  N   UNL     1      -8.918  14.870  69.636  1.00  0.00    -0.444 N  
HETATM   14  C   UNL     1     -10.102  14.258  69.198  1.00  0.00    -0.055 C  
HETATM   15  H   UNL     1      -9.056  15.403  70.495  1.00  0.00     0.000 HD 
HETATM   16  O   UNL     1     -11.132  14.508  69.824  1.00  0.00    -0.251 OA 
BRANCH  14  17
HETATM   17  C   UNL     1     -10.147  13.182  68.124  1.00  0.00    -0.237 C  
BRANCH  17  18
HETATM   18  C   UNL     1     -10.724  13.447  66.797  1.00  0.00    -0.277 A  
HETATM   19  N   UNL     1     -10.454  12.600  65.728  1.00  0.00    -0.271 NA 
HETATM   20  C   UNL     1     -11.296  14.656  66.412  1.00  0.00    -0.348 A  
HETATM   21  N   UNL     1     -10.160  12.734  63.430  1.00  0.00    -0.610 NA 
HETATM   22  H2  UNL     1     -10.269  13.290  62.582  1.00  0.00     0.000 HD 
HETATM   23  S   UNL     1     -11.331  14.777  64.701  1.00  0.00    -0.331 SA 
HETATM   24  H1  UNL     1      -9.722  11.815  63.366  1.00  0.00     0.000 HD 
HETATM   25  C   UNL     1     -10.595  13.233  64.593  1.00  0.00    -0.404 A  
ENDBRANCH  17  18
BRANCH  17  26
HETATM   26  N   UNL     1      -9.947  11.903  68.289  1.00  0.00    -0.198 NA 
HETATM   27  H   UNL     1      -9.767  11.345  67.454  1.00  0.00     0.000 HD 
BRANCH  26  28
HETATM   28  O   UNL     1      -9.959  11.237  69.520  1.00  0.00     0.052 OA 
HETATM   29  C   UNL     1     -11.076  10.457  69.888  1.00  0.00    -0.305 C  
ENDBRANCH  26  28
ENDBRANCH  17  26
ENDBRANCH  14  17
ENDBRANCH  11  13
TORSDOF 5
ENDMDL
MODEL      271
REMARK 921   NORMALIZED FREE ENERGY PREDICTED BY IDOCK:   -2.70 KCAL/MOL
REMARK 922        TOTAL FREE ENERGY PREDICTED BY IDOCK:   -4.25 KCAL/MOL
REMARK 923 INTER-LIGAND FREE ENERGY PREDICTED BY IDOCK:   -3.89 KCAL/MOL
REMARK 924 INTRA-LIGAND FREE ENERGY PREDICTED BY IDOCK:   -0.37 KCAL/MOL
REMARK 927      BINDING AFFINITY PREDICTED BY RF-SCORE:    0.00 PKD
ROOT
HETATM    1  CE  UNL     1      -9.928  12.165  64.417  1.00  0.00    -0.214 C  
HETATM    2  SD  UNL     1     -11.131  11.010  63.856  1.00  0.00     0.355 SA 
HETATM    3  CG  UNL     1     -12.559  12.062  63.450  1.00  0.00    -0.469 C  
HETATM    4  CB  UNL     1     -12.397  13.531  63.621  1.00  0.00    -0.377 C  
HETATM    5  CA  UNL     1     -11.383  14.192  64.203  1.00  0.00    -0.102 C  
HETATM    6  N   UNL     1     -10.331  13.495  64.725  1.00  0.00    -0.398 N  
HETATM    7  C   UNL     1     -11.550  15.674  64.347  1.00  0.00    -0.249 C  
HETATM    8  C   UNL     1      -9.344  13.747  65.630  1.00  0.00     0.253 C  
HETATM    9  O   UNL     1     -10.605  16.361  64.967  1.00  0.00    -0.651 OA 
HETATM   10  OXT UNL     1     -12.532  16.267  63.892  1.00  0.00    -0.774 OA 
HETATM   11  CA  UNL     1      -9.131  12.206  65.803  1.00  0.00     0.066 C  
HETATM   12  O   UNL     1      -9.012  14.757  66.158  1.00  0.00    -0.205 OA 
ENDROOT
BRANCH  11  13
HETATM   13  N   UNL     1      -9.488  11.777  67.208  1.00  0.00    -0.169 N  
HETATM   14  C   UNL     1      -9.092  12.145  68.502  1.00  0.00    -0.090 C  
HETATM   15  H   UNL     1     -10.189  11.036  67.217  1.00  0.00     0.000 HD 
HETATM   16  O   UNL     1      -9.548  11.493  69.440  1.00  0.00     0.210 OA 
BRANCH  14  17
HETATM   17  C   UNL     1      -8.286  13.398  68.812  1.00  0.00     0.086 C  
BRANCH  17  18
HETATM   18  C   UNL     1      -8.938  14.634  69.274  1.00  0.00     0.048 A  
HETATM   19  N   UNL     1     -10.268  14.622  69.678  1.00  0.00    -0.036 NA 
HETATM   20  C   UNL     1      -8.434  15.915  69.069  1.00  0.00    -0.242 A  
HETATM   21  N   UNL     1     -12.115  16.026  69.631  1.00  0.00    -0.308 NA 
HETATM   22  H2  UNL     1     -12.471  16.971  69.491  1.00  0.00     0.000 HD 
HETATM   23  S   UNL     1      -9.688  17.076  69.225  1.00  0.00    -0.002 SA 
HETATM   24  H1  UNL     1     -12.775  15.273  69.825  1.00  0.00     0.000 HD 
HETATM   25  C   UNL     1     -10.797  15.811  69.552  1.00  0.00    -0.287 A  
ENDBRANCH  17  18
BRANCH  17  26
HETATM   26  N   UNL     1      -7.044  13.630  68.486  1.00  0.00    -0.099 NA 
HETATM   27  H   UNL     1      -6.433  14.012  69.208  1.00  0.00     0.000 HD 
BRANCH  26  28
HETATM   28  O   UNL     1      -6.484  13.396  67.225  1.00  0.00    -0.267 OA 
HETATM   29  C   UNL     1      -5.349  12.567  67.100  1.00  0.00     0.033 C  
ENDBRANCH  26  28
ENDBRANCH  17  26
ENDBRANCH  14  17
ENDBRANCH  11  13
TORSDOF 5
ENDMDL
MODEL      272
REMARK 921   NORMALIZED FREE ENERGY PREDICTED BY IDOCK:   -2.64 KCAL/MOL
REMARK 922        TOTAL FREE ENERGY PREDICTED BY IDOCK:   -4.18 KCAL/MOL
REMARK 923 INTER-LIGAND FREE ENERGY PREDICTED BY IDOCK:   -3.59 KCAL/MOL
REMARK 924 INTRA-LIGAND FREE ENERGY PREDICTED BY IDOCK:   -0.59 KCAL/MOL
REMARK 927      BINDING AFFINITY PREDICTED BY RF-SCORE:    0.00 PKD
ROOT
HETATM    1  CE  UNL     1      -7.521   5.972  65.560  1.00  0.00    -0.082 C  
HETATM    2  SD  UNL     1      -5.983   5.226  65.144  1.00  0.00    -0.026 SA 
HETATM    3  CG  UNL     1      -6.478   3.731  64.232  1.00  0.00    -0.037 C  
HETATM    4  CB  UNL     1      -7.934   3.511  64.019  1.00  0.00    -0.085 C  
HETATM    5  CA  UNL     1      -8.963   4.185  64.559  1.00  0.00    -0.142 C  
HETATM    6  N   UNL     1      -8.721   5.217  65.420  1.00  0.00    -0.145 N  
HETATM    7  C   UNL     1     -10.334   3.658  64.262  1.00  0.00    -0.227 C  
HETATM    8  C   UNL     1      -9.431   5.884  66.373  1.00  0.00    -0.155 C  
HETATM    9  O   UNL     1     -11.376   4.252  64.818  1.00  0.00    -0.302 OA 
HETATM   10  OXT UNL     1     -10.514   2.701  63.504  1.00  0.00    -0.174 OA 
HETATM   11  CA  UNL     1      -8.088   6.394  66.994  1.00  0.00    -0.112 C  
HETATM   12  O   UNL     1     -10.584   5.845  66.651  1.00  0.00    -0.263 OA 
ENDROOT
BRANCH  11  13
HETATM   13  N   UNL     1      -7.898   5.827  68.383  1.00  0.00    -0.099 N  
HETATM   14  C   UNL     1      -7.871   6.348  69.686  1.00  0.00    -0.108 C  
HETATM   15  H   UNL     1      -7.755   4.817  68.370  1.00  0.00     0.000 HD 
HETATM   16  O   UNL     1      -7.594   5.571  70.599  1.00  0.00    -0.084 OA 
BRANCH  14  17
HETATM   17  C   UNL     1      -8.332   7.753  70.041  1.00  0.00    -0.130 C  
BRANCH  17  18
HETATM   18  C   UNL     1      -9.111   8.566  69.095  1.00  0.00    -0.146 A  
HETATM   19  N   UNL     1      -8.509   9.608  68.397  1.00  0.00    -0.117 NA 
HETATM   20  C   UNL     1     -10.501   8.594  69.037  1.00  0.00    -0.199 A  
HETATM   21  N   UNL     1      -9.065  11.707  67.579  1.00  0.00    -0.168 NA 
HETATM   22  H2  UNL     1      -9.806  12.369  67.346  1.00  0.00     0.000 HD 
HETATM   23  S   UNL     1     -11.034  10.022  68.247  1.00  0.00    -0.190 SA 
HETATM   24  H1  UNL     1      -8.093  11.989  67.455  1.00  0.00     0.000 HD 
HETATM   25  C   UNL     1      -9.399  10.495  68.039  1.00  0.00    -0.145 A  
ENDBRANCH  17  18
BRANCH  17  26
HETATM   26  N   UNL     1      -7.914   8.485  71.038  1.00  0.00    -0.104 NA 
HETATM   27  H   UNL     1      -6.915   8.686  71.087  1.00  0.00     0.000 HD 
BRANCH  26  28
HETATM   28  O   UNL     1      -8.728   9.015  72.045  1.00  0.00    -0.367 OA 
HETATM   29  C   UNL     1      -8.621   8.531  73.366  1.00  0.00     0.021 C  
ENDBRANCH  26  28
ENDBRANCH  17  26
ENDBRANCH  14  17
ENDBRANCH  11  13
TORSDOF 5
ENDMDL
MODEL      273
REMARK 921   NORMALIZED FREE ENERGY PREDICTED BY IDOCK:   -2.60 KCAL/MOL
REMARK 922        TOTAL FREE ENERGY PREDICTED BY IDOCK:   -4.12 KCAL/MOL
REMARK 923 INTER-LIGAND FREE ENERGY PREDICTED BY IDOCK:   -4.12 KCAL/MOL
REMARK 924 INTRA-LIGAND FREE ENERGY PREDICTED BY IDOCK:   -0.01 KCAL/MOL
REMARK 927      BINDING AFFINITY PREDICTED BY RF-SCORE:    0.00 PKD
ROOT
HETATM    1  CE  UNL     1      -9.056  10.629  65.062  1.00  0.00    -0.202 C  
HETATM    2  SD  UNL     1      -7.815  10.290  63.862  1.00  0.00    -0.069 SA 
HETATM    3  CG  UNL     1      -7.668   8.476  63.917  1.00  0.00    -0.141 C  
HETATM    4  CB  UNL     1      -8.574   7.745  64.842  1.00  0.00     0.063 C  
HETATM    5  CA  UNL     1      -9.386   8.253  65.784  1.00  0.00    -0.031 C  
HETATM    6  N   UNL     1      -9.441   9.605  65.973  1.00  0.00    -0.205 N  
HETATM    7  C   UNL     1     -10.092   7.264  66.660  1.00  0.00    -0.168 C  
HETATM    8  C   UNL     1      -9.846  10.437  66.974  1.00  0.00    -0.191 C  
HETATM    9  O   UNL     1     -10.856   7.717  67.640  1.00  0.00    -0.197 OA 
HETATM   10  OXT UNL     1      -9.992   6.047  66.481  1.00  0.00    -0.166 OA 
HETATM   11  CA  UNL     1      -8.994  11.587  66.341  1.00  0.00    -0.197 C  
HETATM   12  O   UNL     1     -10.434  10.213  67.980  1.00  0.00    -0.181 OA 
ENDROOT
BRANCH  11  13
HETATM   13  N   UNL     1      -7.873  11.989  67.273  1.00  0.00    -0.163 N  
HETATM   14  C   UNL     1      -7.380  13.196  67.790  1.00  0.00    -0.143 C  
HETATM   15  H   UNL     1      -7.344  11.183  67.607  1.00  0.00     0.000 HD 
HETATM   16  O   UNL     1      -6.359  13.143  68.475  1.00  0.00    -0.071 OA 
BRANCH  14  17
HETATM   17  C   UNL     1      -8.128  14.518  67.702  1.00  0.00    -0.179 C  
BRANCH  17  18
HETATM   18  C   UNL     1      -7.698  15.695  68.472  1.00  0.00    -0.131 A  
HETATM   19  N   UNL     1      -7.891  16.977  67.968  1.00  0.00    -0.178 NA 
HETATM   20  C   UNL     1      -6.827  15.654  69.556  1.00  0.00    -0.189 A  
HETATM   21  N   UNL     1      -6.831  19.041  68.005  1.00  0.00    -0.230 NA 
HETATM   22  H2  UNL     1      -6.123  19.635  68.437  1.00  0.00     0.000 HD 
HETATM   23  S   UNL     1      -6.134  17.202  69.820  1.00  0.00    -0.184 SA 
HETATM   24  H1  UNL     1      -7.365  19.404  67.216  1.00  0.00     0.000 HD 
HETATM   25  C   UNL     1      -7.032  17.811  68.492  1.00  0.00    -0.238 A  
ENDBRANCH  17  18
BRANCH  17  26
HETATM   26  N   UNL     1      -9.312  14.714  67.189  1.00  0.00    -0.214 NA 
HETATM   27  H   UNL     1      -9.379  14.772  66.172  1.00  0.00     0.000 HD 
BRANCH  26  28
HETATM   28  O   UNL     1     -10.496  14.851  67.921  1.00  0.00    -0.245 OA 
HETATM   29  C   UNL     1     -11.096  13.718  68.511  1.00  0.00    -0.267 C  
ENDBRANCH  26  28
ENDBRANCH  17  26
ENDBRANCH  14  17
ENDBRANCH  11  13
TORSDOF 5
ENDMDL
MODEL      274
REMARK 921   NORMALIZED FREE ENERGY PREDICTED BY IDOCK:   -2.60 KCAL/MOL
REMARK 922        TOTAL FREE ENERGY PREDICTED BY IDOCK:   -4.12 KCAL/MOL
REMARK 923 INTER-LIGAND FREE ENERGY PREDICTED BY IDOCK:   -3.46 KCAL/MOL
REMARK 924 INTRA-LIGAND FREE ENERGY PREDICTED BY IDOCK:   -0.66 KCAL/MOL
REMARK 927      BINDING AFFINITY PREDICTED BY RF-SCORE:    0.00 PKD
ROOT
HETATM    1  CE  UNL     1      -7.798   8.542  69.453  1.00  0.00    -0.098 C  
HETATM    2  SD  UNL     1      -6.296   8.900  70.295  1.00  0.00    -0.042 SA 
HETATM    3  CG  UNL     1      -6.096  10.692  70.047  1.00  0.00    -0.099 C  
HETATM    4  CB  UNL     1      -7.166  11.401  69.296  1.00  0.00    -0.075 C  
HETATM    5  CA  UNL     1      -8.197  10.870  68.618  1.00  0.00    -0.146 C  
HETATM    6  N   UNL     1      -8.348   9.514  68.568  1.00  0.00    -0.116 N  
HETATM    7  C   UNL     1      -9.052  11.829  67.847  1.00  0.00    -0.181 C  
HETATM    8  C   UNL     1      -9.011   8.632  67.768  1.00  0.00    -0.136 C  
HETATM    9  O   UNL     1     -10.043  11.347  67.115  1.00  0.00    -0.193 OA 
HETATM   10  OXT UNL     1      -8.865  13.048  67.888  1.00  0.00    -0.174 OA 
HETATM   11  CA  UNL     1      -8.078   7.486  68.285  1.00  0.00    -0.124 C  
HETATM   12  O   UNL     1      -9.811   8.811  66.910  1.00  0.00    -0.186 OA 
ENDROOT
BRANCH  11  13
HETATM   13  N   UNL     1      -7.227   6.948  67.157  1.00  0.00    -0.083 N  
HETATM   14  C   UNL     1      -7.304   5.866  66.268  1.00  0.00    -0.081 C  
HETATM   15  H   UNL     1      -6.389   7.511  67.006  1.00  0.00     0.000 HD 
HETATM   16  O   UNL     1      -6.347   5.684  65.515  1.00  0.00    -0.036 OA 
BRANCH  14  17
HETATM   17  C   UNL     1      -8.558   5.030  66.065  1.00  0.00    -0.121 C  
BRANCH  17  18
HETATM   18  C   UNL     1      -9.055   4.125  67.113  1.00  0.00    -0.143 A  
HETATM   19  N   UNL     1      -9.753   4.626  68.206  1.00  0.00    -0.147 NA 
HETATM   20  C   UNL     1      -8.637   2.809  67.282  1.00  0.00    -0.105 A  
HETATM   21  N   UNL     1     -10.015   4.166  70.466  1.00  0.00    -0.173 NA 
HETATM   22  H2  UNL     1      -9.884   3.499  71.226  1.00  0.00     0.000 HD 
HETATM   23  S   UNL     1      -8.981   2.277  68.877  1.00  0.00    -0.130 SA 
HETATM   24  H1  UNL     1     -10.416   5.080  70.673  1.00  0.00     0.000 HD 
HETATM   25  C   UNL     1      -9.655   3.814  69.226  1.00  0.00    -0.138 A  
ENDBRANCH  17  18
BRANCH  17  26
HETATM   26  N   UNL     1      -9.174   4.805  64.936  1.00  0.00    -0.232 NA 
HETATM   27  H   UNL     1      -8.711   5.111  64.080  1.00  0.00     0.000 HD 
BRANCH  26  28
HETATM   28  O   UNL     1     -10.418   4.178  64.807  1.00  0.00    -0.241 OA 
HETATM   29  C   UNL     1     -10.735   3.476  63.626  1.00  0.00    -0.260 C  
ENDBRANCH  26  28
ENDBRANCH  17  26
ENDBRANCH  14  17
ENDBRANCH  11  13
TORSDOF 5
ENDMDL
MODEL      275
REMARK 921   NORMALIZED FREE ENERGY PREDICTED BY IDOCK:   -2.41 KCAL/MOL
REMARK 922        TOTAL FREE ENERGY PREDICTED BY IDOCK:   -3.87 KCAL/MOL
REMARK 923 INTER-LIGAND FREE ENERGY PREDICTED BY IDOCK:   -3.23 KCAL/MOL
REMARK 924 INTRA-LIGAND FREE ENERGY PREDICTED BY IDOCK:   -0.64 KCAL/MOL
REMARK 927      BINDING AFFINITY PREDICTED BY RF-SCORE:    0.00 PKD
ROOT
HETATM    1  CE  UNL     1      -7.960   8.681  69.715  1.00  0.00    -0.095 C  
HETATM    2  SD  UNL     1      -6.488   9.509  70.206  1.00  0.00    -0.083 SA 
HETATM    3  CG  UNL     1      -6.724  11.195  69.561  1.00  0.00    -0.132 C  
HETATM    4  CB  UNL     1      -8.006  11.488  68.866  1.00  0.00    -0.057 C  
HETATM    5  CA  UNL     1      -8.965  10.623  68.493  1.00  0.00    -0.156 C  
HETATM    6  N   UNL     1      -8.813   9.291  68.751  1.00  0.00    -0.131 N  
HETATM    7  C   UNL     1     -10.096  11.189  67.690  1.00  0.00    -0.179 C  
HETATM    8  C   UNL     1      -9.351   8.134  68.272  1.00  0.00    -0.134 C  
HETATM    9  O   UNL     1     -11.034  10.367  67.249  1.00  0.00    -0.288 OA 
HETATM   10  OXT UNL     1     -10.183  12.395  67.447  1.00  0.00    -0.206 OA 
HETATM   11  CA  UNL     1      -8.132   7.344  68.855  1.00  0.00    -0.127 C  
HETATM   12  O   UNL     1     -10.266   7.948  67.539  1.00  0.00    -0.201 OA 
ENDROOT
BRANCH  11  13
HETATM   13  N   UNL     1      -7.320   6.726  67.739  1.00  0.00    -0.094 N  
HETATM   14  C   UNL     1      -7.177   5.442  67.192  1.00  0.00    -0.075 C  
HETATM   15  H   UNL     1      -6.730   7.413  67.267  1.00  0.00     0.000 HD 
HETATM   16  O   UNL     1      -6.326   5.293  66.315  1.00  0.00    -0.037 OA 
BRANCH  14  17
HETATM   17  C   UNL     1      -8.123   4.290  67.491  1.00  0.00    -0.099 C  
BRANCH  17  18
HETATM   18  C   UNL     1      -9.062   3.785  66.477  1.00  0.00    -0.155 A  
HETATM   19  N   UNL     1      -8.787   2.614  65.780  1.00  0.00    -0.131 NA 
HETATM   20  C   UNL     1     -10.092   4.533  65.914  1.00  0.00    -0.258 A  
HETATM   21  N   UNL     1      -9.129   1.725  63.664  1.00  0.00    -0.090 NA 
HETATM   22  H2  UNL     1      -9.628   1.789  62.776  1.00  0.00     0.000 HD 
HETATM   23  S   UNL     1     -10.584   3.838  64.424  1.00  0.00    -0.121 SA 
HETATM   24  H1  UNL     1      -8.431   0.992  63.787  1.00  0.00     0.000 HD 
HETATM   25  C   UNL     1      -9.411   2.605  64.631  1.00  0.00    -0.135 A  
ENDBRANCH  17  18
BRANCH  17  26
HETATM   26  N   UNL     1      -8.410   3.797  68.665  1.00  0.00    -0.073 NA 
HETATM   27  H   UNL     1      -8.396   4.438  69.459  1.00  0.00     0.000 HD 
BRANCH  26  28
HETATM   28  O   UNL     1      -8.734   2.460  68.922  1.00  0.00    -0.068 OA 
HETATM   29  C   UNL     1      -9.376   2.110  70.128  1.00  0.00    -0.103 C  
ENDBRANCH  26  28
ENDBRANCH  17  26
ENDBRANCH  14  17
ENDBRANCH  11  13
TORSDOF 5
ENDMDL
MODEL      276
REMARK 921   NORMALIZED FREE ENERGY PREDICTED BY IDOCK:   -2.25 KCAL/MOL
REMARK 922        TOTAL FREE ENERGY PREDICTED BY IDOCK:   -3.67 KCAL/MOL
REMARK 923 INTER-LIGAND FREE ENERGY PREDICTED BY IDOCK:   -3.32 KCAL/MOL
REMARK 924 INTRA-LIGAND FREE ENERGY PREDICTED BY IDOCK:   -0.35 KCAL/MOL
REMARK 927      BINDING AFFINITY PREDICTED BY RF-SCORE:    0.00 PKD
ROOT
HETATM    1  CE  UNL     1      -9.817  15.158  69.951  1.00  0.00    -0.054 C  
HETATM    2  SD  UNL     1     -11.141  16.243  70.355  1.00  0.00    -0.213 SA 
HETATM    3  CG  UNL     1     -12.591  15.143  70.367  1.00  0.00    -0.359 C  
HETATM    4  CB  UNL     1     -12.355  13.698  70.103  1.00  0.00    -0.372 C  
HETATM    5  CA  UNL     1     -11.225  13.104  69.684  1.00  0.00    -0.019 C  
HETATM    6  N   UNL     1     -10.110  13.858  69.450  1.00  0.00     0.213 N  
HETATM    7  C   UNL     1     -11.316  11.641  69.378  1.00  0.00    -0.278 C  
HETATM    8  C   UNL     1      -8.954  13.702  68.746  1.00  0.00     0.074 C  
HETATM    9  O   UNL     1     -10.246  11.024  68.905  1.00  0.00    -0.195 OA 
HETATM   10  OXT UNL     1     -12.351  10.997  69.569  1.00  0.00    -0.324 OA 
HETATM   11  CA  UNL     1      -8.756  15.254  68.757  1.00  0.00    -0.195 C  
HETATM   12  O   UNL     1      -8.493  12.748  68.210  1.00  0.00    -0.168 OA 
ENDROOT
BRANCH  11  13
HETATM   13  N   UNL     1      -8.835  15.808  67.353  1.00  0.00    -0.182 N  
HETATM   14  C   UNL     1      -9.523  15.473  66.177  1.00  0.00    -0.341 C  
HETATM   15  H   UNL     1      -8.240  16.628  67.229  1.00  0.00     0.000 HD 
HETATM   16  O   UNL     1      -9.262  16.122  65.165  1.00  0.00     0.013 OA 
BRANCH  14  17
HETATM   17  C   UNL     1     -10.682  14.489  66.132  1.00  0.00    -0.310 C  
BRANCH  17  18
HETATM   18  C   UNL     1     -10.613  13.259  65.327  1.00  0.00    -0.315 A  
HETATM   19  N   UNL     1     -10.771  12.014  65.926  1.00  0.00    -0.266 NA 
HETATM   20  C   UNL     1     -10.101  13.189  64.035  1.00  0.00     0.133 A  
HETATM   21  N   UNL     1      -9.973   9.849  65.681  1.00  0.00    -0.295 NA 
HETATM   22  H2  UNL     1      -9.483   9.177  65.090  1.00  0.00     0.000 HD 
HETATM   23  S   UNL     1      -9.669  11.572  63.656  1.00  0.00    -0.299 SA 
HETATM   24  H1  UNL     1     -10.282   9.560  66.608  1.00  0.00     0.000 HD 
HETATM   25  C   UNL     1     -10.189  11.085  65.215  1.00  0.00    -0.284 A  
ENDBRANCH  17  18
BRANCH  17  26
HETATM   26  N   UNL     1     -11.903  14.699  66.543  1.00  0.00    -0.348 NA 
HETATM   27  H   UNL     1     -12.077  15.549  67.082  1.00  0.00     0.000 HD 
BRANCH  26  28
HETATM   28  O   UNL     1     -12.991  13.853  66.304  1.00  0.00    -0.219 OA 
HETATM   29  C   UNL     1     -13.652  13.888  65.058  1.00  0.00     1.279 C  
ENDBRANCH  26  28
ENDBRANCH  17  26
ENDBRANCH  14  17
ENDBRANCH  11  13
TORSDOF 5
ENDMDL
MODEL      277
REMARK 921   NORMALIZED FREE ENERGY PREDICTED BY IDOCK:   -2.06 KCAL/MOL
REMARK 922        TOTAL FREE ENERGY PREDICTED BY IDOCK:   -3.42 KCAL/MOL
REMARK 923 INTER-LIGAND FREE ENERGY PREDICTED BY IDOCK:   -2.27 KCAL/MOL
REMARK 924 INTRA-LIGAND FREE ENERGY PREDICTED BY IDOCK:   -1.15 KCAL/MOL
REMARK 927      BINDING AFFINITY PREDICTED BY RF-SCORE:    0.00 PKD
ROOT
HETATM    1  CE  UNL     1      -8.444   6.493  73.186  1.00  0.00    -0.117 C  
HETATM    2  SD  UNL     1      -7.408   7.265  74.381  1.00  0.00    -0.119 SA 
HETATM    3  CG  UNL     1      -6.459   8.465  73.397  1.00  0.00    -0.107 C  
HETATM    4  CB  UNL     1      -6.768   8.555  71.944  1.00  0.00    -0.085 C  
HETATM    5  CA  UNL     1      -7.547   7.743  71.210  1.00  0.00    -0.080 C  
HETATM    6  N   UNL     1      -8.167   6.680  71.802  1.00  0.00    -0.110 N  
HETATM    7  C   UNL     1      -7.574   8.002  69.734  1.00  0.00    -0.092 C  
HETATM    8  C   UNL     1      -8.724   5.511  71.377  1.00  0.00    -0.132 C  
HETATM    9  O   UNL     1      -8.278   7.193  68.961  1.00  0.00    -0.122 OA 
HETATM   10  OXT UNL     1      -6.973   8.954  69.228  1.00  0.00    -0.056 OA 
HETATM   11  CA  UNL     1      -8.598   4.942  72.830  1.00  0.00    -0.118 C  
HETATM   12  O   UNL     1      -8.966   5.118  70.284  1.00  0.00    -0.119 OA 
ENDROOT
BRANCH  11  13
HETATM   13  N   UNL     1      -7.634   3.778  72.861  1.00  0.00    -0.067 N  
HETATM   14  C   UNL     1      -7.667   2.434  72.457  1.00  0.00    -0.053 C  
HETATM   15  H   UNL     1      -6.738   4.031  73.278  1.00  0.00     0.000 HD 
HETATM   16  O   UNL     1      -6.691   1.738  72.732  1.00  0.00    -0.017 OA 
BRANCH  14  17
HETATM   17  C   UNL     1      -8.747   1.852  71.558  1.00  0.00    -0.063 C  
BRANCH  17  18
HETATM   18  C   UNL     1      -8.576   1.787  70.098  1.00  0.00    -0.050 A  
HETATM   19  N   UNL     1      -7.369   2.153  69.511  1.00  0.00    -0.043 NA 
HETATM   20  C   UNL     1      -9.620   1.672  69.186  1.00  0.00    -0.034 A  
HETATM   21  N   UNL     1      -6.614   3.153  67.559  1.00  0.00    -0.037 NA 
HETATM   22  H2  UNL     1      -6.829   3.445  66.605  1.00  0.00     0.000 HD 
HETATM   23  S   UNL     1      -9.109   2.189  67.631  1.00  0.00    -0.161 SA 
HETATM   24  H1  UNL     1      -5.689   3.351  67.939  1.00  0.00     0.000 HD 
HETATM   25  C   UNL     1      -7.554   2.522  68.271  1.00  0.00    -0.055 A  
ENDBRANCH  17  18
BRANCH  17  26
HETATM   26  N   UNL     1      -9.983   1.595  71.886  1.00  0.00    -0.139 NA 
HETATM   27  H   UNL     1     -10.646   1.430  71.127  1.00  0.00     0.000 HD 
BRANCH  26  28
HETATM   28  O   UNL     1     -10.474   1.527  73.195  1.00  0.00    -0.098 OA 
HETATM   29  C   UNL     1     -11.397   2.491  73.652  1.00  0.00    -0.198 C  
ENDBRANCH  26  28
ENDBRANCH  17  26
ENDBRANCH  14  17
ENDBRANCH  11  13
TORSDOF 5
ENDMDL
MODEL      278
REMARK 921   NORMALIZED FREE ENERGY PREDICTED BY IDOCK:   -1.85 KCAL/MOL
REMARK 922        TOTAL FREE ENERGY PREDICTED BY IDOCK:   -3.15 KCAL/MOL
REMARK 923 INTER-LIGAND FREE ENERGY PREDICTED BY IDOCK:   -2.16 KCAL/MOL
REMARK 924 INTRA-LIGAND FREE ENERGY PREDICTED BY IDOCK:   -0.99 KCAL/MOL
REMARK 927      BINDING AFFINITY PREDICTED BY RF-SCORE:    0.00 PKD
ROOT
HETATM    1  CE  UNL     1      -7.369   8.363  72.754  1.00  0.00    -0.068 C  
HETATM    2  SD  UNL     1      -6.331   8.662  74.143  1.00  0.00    -0.070 SA 
HETATM    3  CG  UNL     1      -5.156   9.906  73.524  1.00  0.00    -0.016 C  
HETATM    4  CB  UNL     1      -5.341  10.386  72.128  1.00  0.00     0.178 C  
HETATM    5  CA  UNL     1      -6.165   9.899  71.185  1.00  0.00     0.017 C  
HETATM    6  N   UNL     1      -6.966   8.831  71.471  1.00  0.00    -0.087 N  
HETATM    7  C   UNL     1      -6.045  10.504  69.819  1.00  0.00    -0.065 C  
HETATM    8  C   UNL     1      -7.643   7.894  70.748  1.00  0.00    -0.078 C  
HETATM    9  O   UNL     1      -6.793  10.018  68.843  1.00  0.00    -0.052 OA 
HETATM   10  OXT UNL     1      -5.284  11.448  69.588  1.00  0.00    -0.054 OA 
HETATM   11  CA  UNL     1      -7.706   6.983  72.019  1.00  0.00    -0.092 C  
HETATM   12  O   UNL     1      -7.854   7.815  69.583  1.00  0.00    -0.103 OA 
ENDROOT
BRANCH  11  13
HETATM   13  N   UNL     1      -6.914   5.713  71.799  1.00  0.00    -0.073 N  
HETATM   14  C   UNL     1      -7.167   4.458  71.226  1.00  0.00    -0.044 C  
HETATM   15  H   UNL     1      -5.961   5.789  72.156  1.00  0.00     0.000 HD 
HETATM   16  O   UNL     1      -6.278   3.611  71.308  1.00  0.00    -0.014 OA 
BRANCH  14  17
HETATM   17  C   UNL     1      -8.385   4.154  70.369  1.00  0.00    -0.065 C  
BRANCH  17  18
HETATM   18  C   UNL     1      -8.459   4.580  68.962  1.00  0.00    -0.079 A  
HETATM   19  N   UNL     1      -9.613   4.360  68.218  1.00  0.00    -0.150 NA 
HETATM   20  C   UNL     1      -7.359   4.930  68.185  1.00  0.00    -0.070 A  
HETATM   21  N   UNL     1     -10.207   3.872  66.029  1.00  0.00    -0.420 NA 
HETATM   22  H2  UNL     1      -9.920   3.830  65.051  1.00  0.00     0.000 HD 
HETATM   23  S   UNL     1      -7.750   4.813  66.518  1.00  0.00    -0.092 SA 
HETATM   24  H1  UNL     1     -11.150   3.575  66.281  1.00  0.00     0.000 HD 
HETATM   25  C   UNL     1      -9.335   4.315  66.942  1.00  0.00    -0.166 A  
ENDBRANCH  17  18
BRANCH  17  26
HETATM   26  N   UNL     1      -9.553   3.746  70.785  1.00  0.00    -0.171 NA 
HETATM   27  H   UNL     1     -10.028   3.034  70.229  1.00  0.00     0.000 HD 
BRANCH  26  28
HETATM   28  O   UNL     1     -10.206   4.206  71.934  1.00  0.00    -0.175 OA 
HETATM   29  C   UNL     1     -10.993   5.376  71.877  1.00  0.00    -0.151 C  
ENDBRANCH  26  28
ENDBRANCH  17  26
ENDBRANCH  14  17
ENDBRANCH  11  13
TORSDOF 5
ENDMDL
MODEL      279
REMARK 921   NORMALIZED FREE ENERGY PREDICTED BY IDOCK:   -1.53 KCAL/MOL
REMARK 922        TOTAL FREE ENERGY PREDICTED BY IDOCK:   -2.73 KCAL/MOL
REMARK 923 INTER-LIGAND FREE ENERGY PREDICTED BY IDOCK:   -1.95 KCAL/MOL
REMARK 924 INTRA-LIGAND FREE ENERGY PREDICTED BY IDOCK:   -0.78 KCAL/MOL
REMARK 927      BINDING AFFINITY PREDICTED BY RF-SCORE:    0.00 PKD
ROOT
HETATM    1  CE  UNL     1     -10.239  10.524  69.911  1.00  0.00    -0.061 C  
HETATM    2  SD  UNL     1     -11.692  10.019  69.058  1.00  0.00     0.300 SA 
HETATM    3  CG  UNL     1     -11.999   8.348  69.711  1.00  0.00     0.914 C  
HETATM    4  CB  UNL     1     -11.070   7.842  70.756  1.00  0.00    -0.264 C  
HETATM    5  CA  UNL     1      -9.915   8.386  71.175  1.00  0.00    -0.194 C  
HETATM    6  N   UNL     1      -9.474   9.553  70.618  1.00  0.00    -0.252 N  
HETATM    7  C   UNL     1      -9.118   7.584  72.158  1.00  0.00    -0.133 C  
HETATM    8  C   UNL     1      -8.281  10.204  70.526  1.00  0.00     0.593 C  
HETATM    9  O   UNL     1      -7.946   8.050  72.555  1.00  0.00    -0.110 OA 
HETATM   10  OXT UNL     1      -9.532   6.515  72.615  1.00  0.00    -0.148 OA 
HETATM   11  CA  UNL     1      -8.841  11.029  69.321  1.00  0.00     0.109 C  
HETATM   12  O   UNL     1      -7.240   9.996  71.058  1.00  0.00    -0.300 OA 
ENDROOT
BRANCH  11  13
HETATM   13  N   UNL     1      -8.079  10.702  68.056  1.00  0.00    -0.110 N  
HETATM   14  C   UNL     1      -8.216  11.005  66.693  1.00  0.00    -0.154 C  
HETATM   15  H   UNL     1      -7.265  10.116  68.239  1.00  0.00     0.000 HD 
HETATM   16  O   UNL     1      -7.428  10.472  65.913  1.00  0.00    -0.141 OA 
BRANCH  14  17
HETATM   17  C   UNL     1      -9.154  12.077  66.159  1.00  0.00    -0.129 C  
BRANCH  17  18
HETATM   18  C   UNL     1      -9.304  13.373  66.840  1.00  0.00    -0.252 A  
HETATM   19  N   UNL     1      -8.317  13.836  67.704  1.00  0.00    -0.168 NA 
HETATM   20  C   UNL     1     -10.500  14.077  66.942  1.00  0.00    -0.276 A  
HETATM   21  N   UNL     1      -8.153  15.078  69.657  1.00  0.00    -0.410 NA 
HETATM   22  H2  UNL     1      -8.612  15.712  70.311  1.00  0.00     0.000 HD 
HETATM   23  S   UNL     1     -10.420  15.198  68.239  1.00  0.00    -0.245 SA 
HETATM   24  H1  UNL     1      -7.202  14.769  69.852  1.00  0.00     0.000 HD 
HETATM   25  C   UNL     1      -8.820  14.678  68.567  1.00  0.00    -0.182 A  
ENDBRANCH  17  18
BRANCH  17  26
HETATM   26  N   UNL     1     -10.083  11.925  65.256  1.00  0.00    -0.252 NA 
HETATM   27  H   UNL     1     -10.706  12.715  65.085  1.00  0.00     0.000 HD 
BRANCH  26  28
HETATM   28  O   UNL     1     -10.294  10.764  64.503  1.00  0.00    -0.345 OA 
HETATM   29  C   UNL     1     -10.779  10.859  63.182  1.00  0.00     0.259 C  
ENDBRANCH  26  28
ENDBRANCH  17  26
ENDBRANCH  14  17
ENDBRANCH  11  13
TORSDOF 5
ENDMDL
MODEL      280
REMARK 921   NORMALIZED FREE ENERGY PREDICTED BY IDOCK:   -1.17 KCAL/MOL
REMARK 922        TOTAL FREE ENERGY PREDICTED BY IDOCK:   -2.28 KCAL/MOL
REMARK 923 INTER-LIGAND FREE ENERGY PREDICTED BY IDOCK:   -3.10 KCAL/MOL
REMARK 924 INTRA-LIGAND FREE ENERGY PREDICTED BY IDOCK:    0.82 KCAL/MOL
REMARK 927      BINDING AFFINITY PREDICTED BY RF-SCORE:    0.00 PKD
ROOT
HETATM    1  CE  UNL     1     -10.582  17.733  69.397  1.00  0.00     0.287 C  
HETATM    2  SD  UNL     1      -9.728  19.233  69.737  1.00  0.00     0.562 SA 
HETATM    3  CG  UNL     1      -9.611  20.025  68.102  1.00  0.00    -0.308 C  
HETATM    4  CB  UNL     1     -10.242  19.320  66.955  1.00  0.00    -0.496 C  
HETATM    5  CA  UNL     1     -10.750  18.077  66.922  1.00  0.00    -0.200 C  
HETATM    6  N   UNL     1     -10.722  17.303  68.047  1.00  0.00    -0.389 N  
HETATM    7  C   UNL     1     -11.208  17.580  65.584  1.00  0.00     0.682 C  
HETATM    8  C   UNL     1     -10.817  15.971  68.321  1.00  0.00    -0.319 C  
HETATM    9  O   UNL     1     -11.661  16.341  65.490  1.00  0.00     0.492 OA 
HETATM   10  OXT UNL     1     -11.188  18.296  64.581  1.00  0.00    -0.285 OA 
HETATM   11  CA  UNL     1     -10.148  16.226  69.713  1.00  0.00    -0.119 C  
HETATM   12  O   UNL     1     -11.108  15.054  67.627  1.00  0.00    -0.295 OA 
ENDROOT
BRANCH  11  13
HETATM   13  N   UNL     1      -8.805  15.536  69.789  1.00  0.00    -0.279 N  
HETATM   14  C   UNL     1      -8.100  14.619  68.995  1.00  0.00    -0.115 C  
HETATM   15  H   UNL     1      -8.282  15.803  70.623  1.00  0.00     0.000 HD 
HETATM   16  O   UNL     1      -7.030  14.198  69.433  1.00  0.00    -0.120 OA 
BRANCH  14  17
HETATM   17  C   UNL     1      -8.492  14.263  67.569  1.00  0.00    -0.187 C  
BRANCH  17  18
HETATM   18  C   UNL     1      -9.211  13.018  67.260  1.00  0.00    -0.213 A  
HETATM   19  N   UNL     1      -9.548  12.704  65.948  1.00  0.00    -0.203 NA 
HETATM   20  C   UNL     1      -9.869  12.232  68.201  1.00  0.00    -0.212 A  
HETATM   21  N   UNL     1     -11.255  11.636  64.795  1.00  0.00    -0.272 NA 
HETATM   22  H2  UNL     1     -12.068  11.021  64.841  1.00  0.00     0.000 HD 
HETATM   23  S   UNL     1     -11.026  11.226  67.430  1.00  0.00    -0.298 SA 
HETATM   24  H1  UNL     1     -10.987  12.034  63.896  1.00  0.00     0.000 HD 
HETATM   25  C   UNL     1     -10.574  11.895  65.918  1.00  0.00    -0.266 A  
ENDBRANCH  17  18
BRANCH  17  26
HETATM   26  N   UNL     1      -8.054  14.823  66.475  1.00  0.00    -0.257 NA 
HETATM   27  H   UNL     1      -8.428  14.479  65.589  1.00  0.00     0.000 HD 
BRANCH  26  28
HETATM   28  O   UNL     1      -7.112  15.856  66.418  1.00  0.00    -0.033 OA 
HETATM   29  C   UNL     1      -7.519  17.192  66.616  1.00  0.00    -0.258 C  
ENDBRANCH  26  28
ENDBRANCH  17  26
ENDBRANCH  14  17
ENDBRANCH  11  13
TORSDOF 5
ENDMDL
MODEL      281
REMARK 921   NORMALIZED FREE ENERGY PREDICTED BY IDOCK:   -0.58 KCAL/MOL
REMARK 922        TOTAL FREE ENERGY PREDICTED BY IDOCK:   -1.51 KCAL/MOL
REMARK 923 INTER-LIGAND FREE ENERGY PREDICTED BY IDOCK:   -0.81 KCAL/MOL
REMARK 924 INTRA-LIGAND FREE ENERGY PREDICTED BY IDOCK:   -0.70 KCAL/MOL
REMARK 927      BINDING AFFINITY PREDICTED BY RF-SCORE:    0.00 PKD
ROOT
HETATM    1  CE  UNL     1      -8.150   4.924  65.734  1.00  0.00    -0.112 C  
HETATM    2  SD  UNL     1      -6.712   4.015  65.286  1.00  0.00    -0.049 SA 
HETATM    3  CG  UNL     1      -7.302   2.938  63.942  1.00  0.00    -0.065 C  
HETATM    4  CB  UNL     1      -8.723   3.082  63.526  1.00  0.00    -0.089 C  
HETATM    5  CA  UNL     1      -9.697   3.788  64.125  1.00  0.00    -0.171 C  
HETATM    6  N   UNL     1      -9.422   4.490  65.264  1.00  0.00    -0.165 N  
HETATM    7  C   UNL     1     -11.073   3.644  63.551  1.00  0.00     0.071 C  
HETATM    8  C   UNL     1     -10.150   5.017  66.288  1.00  0.00    -0.247 C  
HETATM    9  O   UNL     1     -12.075   4.273  64.142  1.00  0.00     1.173 OA 
HETATM   10  OXT UNL     1     -11.291   2.973  62.539  1.00  0.00    -0.030 OA 
HETATM   11  CA  UNL     1      -8.854   5.066  67.163  1.00  0.00    -0.106 C  
HETATM   12  O   UNL     1     -11.322   5.143  66.423  1.00  0.00     0.282 OA 
ENDROOT
BRANCH  11  13
HETATM   13  N   UNL     1      -8.979   4.133  68.347  1.00  0.00    -0.110 N  
HETATM   14  C   UNL     1      -8.821   4.246  69.736  1.00  0.00    -0.085 C  
HETATM   15  H   UNL     1      -9.244   3.189  68.066  1.00  0.00     0.000 HD 
HETATM   16  O   UNL     1      -8.923   3.216  70.402  1.00  0.00    -0.081 OA 
BRANCH  14  17
HETATM   17  C   UNL     1      -8.711   5.576  70.466  1.00  0.00    -0.135 C  
BRANCH  17  18
HETATM   18  C   UNL     1      -9.905   6.370  70.796  1.00  0.00    -0.184 A  
HETATM   19  N   UNL     1     -10.545   6.207  72.020  1.00  0.00    -0.211 NA 
HETATM   20  C   UNL     1     -10.659   7.083  69.869  1.00  0.00    -0.229 A  
HETATM   21  N   UNL     1     -12.698   6.283  72.883  1.00  0.00     0.177 NA 
HETATM   22  H2  UNL     1     -13.669   6.564  72.744  1.00  0.00     0.000 HD 
HETATM   23  S   UNL     1     -12.228   7.392  70.493  1.00  0.00     0.096 SA 
HETATM   24  H1  UNL     1     -12.443   5.794  73.740  1.00  0.00     0.000 HD 
HETATM   25  C   UNL     1     -11.798   6.569  71.934  1.00  0.00    -0.334 A  
ENDBRANCH  17  18
BRANCH  17  26
HETATM   26  N   UNL     1      -7.628   6.279  70.652  1.00  0.00    -0.094 NA 
HETATM   27  H   UNL     1      -6.766   5.770  70.853  1.00  0.00     0.000 HD 
BRANCH  26  28
HETATM   28  O   UNL     1      -7.553   7.676  70.599  1.00  0.00    -0.077 OA 
HETATM   29  C   UNL     1      -6.782   8.303  69.598  1.00  0.00    -0.037 C  
ENDBRANCH  26  28
ENDBRANCH  17  26
ENDBRANCH  14  17
ENDBRANCH  11  13
TORSDOF 5
ENDMDL
MODEL      282
REMARK 921   NORMALIZED FREE ENERGY PREDICTED BY IDOCK:    1.72 KCAL/MOL
REMARK 922        TOTAL FREE ENERGY PREDICTED BY IDOCK:    1.46 KCAL/MOL
REMARK 923 INTER-LIGAND FREE ENERGY PREDICTED BY IDOCK:   -1.81 KCAL/MOL
REMARK 924 INTRA-LIGAND FREE ENERGY PREDICTED BY IDOCK:    3.27 KCAL/MOL
REMARK 927      BINDING AFFINITY PREDICTED BY RF-SCORE:    0.00 PKD
ROOT
HETATM    1  CE  UNL     1     -10.346  18.262  68.289  1.00  0.00    -0.357 C  
HETATM    2  SD  UNL     1      -9.551  19.811  68.031  1.00  0.00    -0.391 SA 
HETATM    3  CG  UNL     1      -9.557  19.986  66.220  1.00  0.00    -0.407 C  
HETATM    4  CB  UNL     1     -10.212  18.907  65.431  1.00  0.00     0.521 C  
HETATM    5  CA  UNL     1     -10.659  17.717  65.864  1.00  0.00    -0.203 C  
HETATM    6  N   UNL     1     -10.534  17.385  67.183  1.00  0.00    -0.327 N  
HETATM    7  C   UNL     1     -11.161  16.772  64.815  1.00  0.00    -0.016 C  
HETATM    8  C   UNL     1     -10.549  16.230  67.908  1.00  0.00    -0.318 C  
HETATM    9  O   UNL     1     -11.557  15.566  65.186  1.00  0.00    -0.201 OA 
HETATM   10  OXT UNL     1     -11.228  17.094  63.626  1.00  0.00     0.693 OA 
HETATM   11  CA  UNL     1      -9.823  16.974  69.078  1.00  0.00    -0.240 C  
HETATM   12  O   UNL     1     -10.831  15.121  67.594  1.00  0.00    -0.279 OA 
ENDROOT
BRANCH  11  13
HETATM   13  N   UNL     1      -8.445  16.391  69.299  1.00  0.00    -0.167 N  
HETATM   14  C   UNL     1      -7.907  15.101  69.423  1.00  0.00    -0.208 C  
HETATM   15  H   UNL     1      -7.730  17.115  69.379  1.00  0.00     0.000 HD 
HETATM   16  O   UNL     1      -6.710  15.012  69.695  1.00  0.00    -0.151 OA 
BRANCH  14  17
HETATM   17  C   UNL     1      -8.669  13.834  69.068  1.00  0.00     0.274 C  
BRANCH  17  18
HETATM   18  C   UNL     1     -10.105  13.696  69.354  1.00  0.00     0.463 A  
HETATM   19  N   UNL     1     -10.678  14.367  70.429  1.00  0.00     0.268 NA 
HETATM   20  C   UNL     1     -10.924  12.705  68.822  1.00  0.00    -0.249 A  
HETATM   21  N   UNL     1     -12.365  14.038  71.988  1.00  0.00    -0.161 NA 
HETATM   22  H2  UNL     1     -13.189  13.503  72.261  1.00  0.00     0.000 HD 
HETATM   23  S   UNL     1     -12.332  12.518  69.786  1.00  0.00     0.079 SA 
HETATM   24  H1  UNL     1     -12.026  14.773  72.608  1.00  0.00     0.000 HD 
HETATM   25  C   UNL     1     -11.761  13.754  70.828  1.00  0.00    -0.001 A  
ENDBRANCH  17  18
BRANCH  17  26
HETATM   26  N   UNL     1      -8.156  12.681  68.734  1.00  0.00    -0.334 NA 
HETATM   27  H   UNL     1      -8.604  12.171  67.972  1.00  0.00     0.000 HD 
BRANCH  26  28
HETATM   28  O   UNL     1      -7.042  12.088  69.339  1.00  0.00    -0.041 OA 
HETATM   29  C   UNL     1      -7.161  10.821  69.949  1.00  0.00    -0.050 C  
ENDBRANCH  26  28
ENDBRANCH  17  26
ENDBRANCH  14  17
ENDBRANCH  11  13
TORSDOF 5
ENDMDL
MODEL      283
REMARK 921   NORMALIZED FREE ENERGY PREDICTED BY IDOCK:    2.77 KCAL/MOL
REMARK 922        TOTAL FREE ENERGY PREDICTED BY IDOCK:    2.82 KCAL/MOL
REMARK 923 INTER-LIGAND FREE ENERGY PREDICTED BY IDOCK:   -2.60 KCAL/MOL
REMARK 924 INTRA-LIGAND FREE ENERGY PREDICTED BY IDOCK:    5.41 KCAL/MOL
REMARK 927      BINDING AFFINITY PREDICTED BY RF-SCORE:    0.00 PKD
ROOT
HETATM    1  CE  UNL     1     -11.555  11.442  66.505  1.00  0.00     0.124 C  
HETATM    2  SD  UNL     1     -11.521  13.199  66.587  1.00  0.00    -0.366 SA 
HETATM    3  CG  UNL     1      -9.914  13.620  65.846  1.00  0.00    -0.291 C  
HETATM    4  CB  UNL     1      -9.080  12.497  65.339  1.00  0.00     0.490 C  
HETATM    5  CA  UNL     1      -9.273  11.179  65.505  1.00  0.00    -0.216 C  
HETATM    6  N   UNL     1     -10.352  10.736  66.217  1.00  0.00    -0.248 N  
HETATM    7  C   UNL     1      -8.194  10.277  64.990  1.00  0.00    -0.154 C  
HETATM    8  C   UNL     1     -10.697   9.583  66.855  1.00  0.00    -0.114 C  
HETATM    9  O   UNL     1      -8.310   8.973  65.183  1.00  0.00    -0.139 OA 
HETATM   10  OXT UNL     1      -7.215  10.714  64.380  1.00  0.00     0.039 OA 
HETATM   11  CA  UNL     1     -11.766  10.377  67.678  1.00  0.00     0.668 C  
HETATM   12  O   UNL     1     -10.182   8.514  66.860  1.00  0.00    -0.261 OA 
ENDROOT
BRANCH  11  13
HETATM   13  N   UNL     1     -11.408  10.379  69.147  1.00  0.00    -0.334 N  
HETATM   14  C   UNL     1     -10.640   9.567  69.996  1.00  0.00    -0.244 C  
HETATM   15  H   UNL     1     -11.828  11.165  69.644  1.00  0.00     0.000 HD 
HETATM   16  O   UNL     1     -10.649   9.837  71.196  1.00  0.00    -0.297 OA 
BRANCH  14  17
HETATM   17  C   UNL     1      -9.676   8.502  69.497  1.00  0.00    -0.176 C  
BRANCH  17  18
HETATM   18  C   UNL     1      -9.922   7.071  69.737  1.00  0.00    -0.173 A  
HETATM   19  N   UNL     1      -9.359   6.432  70.836  1.00  0.00    -0.161 NA 
HETATM   20  C   UNL     1     -10.438   6.190  68.791  1.00  0.00    -0.243 A  
HETATM   21  N   UNL     1      -8.516   4.344  71.394  1.00  0.00    -0.098 NA 
HETATM   22  H2  UNL     1      -8.440   3.356  71.151  1.00  0.00     0.000 HD 
HETATM   23  S   UNL     1     -10.058   4.572  69.219  1.00  0.00     0.107 SA 
HETATM   24  H1  UNL     1      -8.033   4.687  72.224  1.00  0.00     0.000 HD 
HETATM   25  C   UNL     1      -9.246   5.150  70.614  1.00  0.00    -0.147 A  
ENDBRANCH  17  18
BRANCH  17  26
HETATM   26  N   UNL     1      -8.461   8.690  69.060  1.00  0.00    -0.123 NA 
HETATM   27  H   UNL     1      -7.949   9.494  69.426  1.00  0.00     0.000 HD 
BRANCH  26  28
HETATM   28  O   UNL     1      -7.804   7.878  68.128  1.00  0.00    -0.121 OA 
HETATM   29  C   UNL     1      -8.490   6.807  67.519  1.00  0.00    -0.121 C  
ENDBRANCH  26  28
ENDBRANCH  17  26
ENDBRANCH  14  17
ENDBRANCH  11  13
TORSDOF 5
ENDMDL
MODEL      284
REMARK 921   NORMALIZED FREE ENERGY PREDICTED BY IDOCK:    4.61 KCAL/MOL
REMARK 922        TOTAL FREE ENERGY PREDICTED BY IDOCK:    5.20 KCAL/MOL
REMARK 923 INTER-LIGAND FREE ENERGY PREDICTED BY IDOCK:    3.28 KCAL/MOL
REMARK 924 INTRA-LIGAND FREE ENERGY PREDICTED BY IDOCK:    1.92 KCAL/MOL
REMARK 927      BINDING AFFINITY PREDICTED BY RF-SCORE:    0.00 PKD
ROOT
HETATM    1  CE  UNL     1      -9.491  16.481  69.734  1.00  0.00     0.406 C  
HETATM    2  SD  UNL     1     -10.626  17.783  69.397  1.00  0.00     0.556 SA 
HETATM    3  CG  UNL     1     -12.156  16.899  68.962  1.00  0.00     1.533 C  
HETATM    4  CB  UNL     1     -12.129  15.413  69.024  1.00  0.00    -0.254 C  
HETATM    5  CA  UNL     1     -11.067  14.609  69.198  1.00  0.00    -0.268 C  
HETATM    6  N   UNL     1      -9.822  15.152  69.344  1.00  0.00    -0.227 N  
HETATM    7  C   UNL     1     -11.322  13.137  69.089  1.00  0.00    -0.281 C  
HETATM    8  C   UNL     1      -8.540  14.710  69.211  1.00  0.00     0.035 C  
HETATM    9  O   UNL     1     -10.297  12.307  69.193  1.00  0.00    -0.039 OA 
HETATM   10  OXT UNL     1     -12.456  12.682  68.923  1.00  0.00     0.104 OA 
HETATM   11  CA  UNL     1      -8.058  16.194  69.086  1.00  0.00    -0.230 C  
HETATM   12  O   UNL     1      -8.108  13.616  69.053  1.00  0.00     0.030 OA 
ENDROOT
BRANCH  11  13
HETATM   13  N   UNL     1      -7.479  16.448  67.712  1.00  0.00    -0.137 N  
HETATM   14  C   UNL     1      -7.513  15.795  66.471  1.00  0.00     0.220 C  
HETATM   15  H   UNL     1      -6.928  17.306  67.681  1.00  0.00     0.000 HD 
HETATM   16  O   UNL     1      -6.826  16.267  65.566  1.00  0.00     1.839 OA 
BRANCH  14  17
HETATM   17  C   UNL     1      -8.474  14.664  66.140  1.00  0.00     0.683 C  
BRANCH  17  18
HETATM   18  C   UNL     1      -9.692  14.899  65.349  1.00  0.00    -0.176 A  
HETATM   19  N   UNL     1     -10.047  16.188  64.965  1.00  0.00    -0.418 NA 
HETATM   20  C   UNL     1     -10.716  13.972  65.183  1.00  0.00    -0.382 A  
HETATM   21  N   UNL     1     -11.974  17.432  64.617  1.00  0.00     1.604 NA 
HETATM   22  H2  UNL     1     -12.985  17.429  64.484  1.00  0.00     0.000 HD 
HETATM   23  S   UNL     1     -12.162  14.764  64.707  1.00  0.00    -0.277 SA 
HETATM   24  H1  UNL     1     -11.482  18.325  64.643  1.00  0.00     0.000 HD 
HETATM   25  C   UNL     1     -11.334  16.265  64.751  1.00  0.00    -0.210 A  
ENDBRANCH  17  18
BRANCH  17  26
HETATM   26  N   UNL     1      -8.504  13.479  66.685  1.00  0.00    -0.432 NA 
HETATM   27  H   UNL     1      -7.863  13.301  67.459  1.00  0.00     0.000 HD 
BRANCH  26  28
HETATM   28  O   UNL     1      -9.347  12.432  66.294  1.00  0.00    -0.230 OA 
HETATM   29  C   UNL     1      -9.004  11.098  66.600  1.00  0.00    -0.170 C  
ENDBRANCH  26  28
ENDBRANCH  17  26
ENDBRANCH  14  17
ENDBRANCH  11  13
TORSDOF 5
ENDMDL
MODEL      285
REMARK 921   NORMALIZED FREE ENERGY PREDICTED BY IDOCK:   10.95 KCAL/MOL
REMARK 922        TOTAL FREE ENERGY PREDICTED BY IDOCK:   13.39 KCAL/MOL
REMARK 923 INTER-LIGAND FREE ENERGY PREDICTED BY IDOCK:   12.28 KCAL/MOL
REMARK 924 INTRA-LIGAND FREE ENERGY PREDICTED BY IDOCK:    1.11 KCAL/MOL
REMARK 927      BINDING AFFINITY PREDICTED BY RF-SCORE:    0.00 PKD
ROOT
HETATM    1  CE  UNL     1     -10.750  17.906  66.968  1.00  0.00    -0.209 C  
HETATM    2  SD  UNL     1     -10.911  19.531  66.314  1.00  0.00    -0.219 SA 
HETATM    3  CG  UNL     1     -11.427  19.239  64.594  1.00  0.00     3.543 C  
HETATM    4  CB  UNL     1     -11.625  17.826  64.171  1.00  0.00     4.632 C  
HETATM    5  CA  UNL     1     -11.309  16.706  64.842  1.00  0.00     0.048 C  
HETATM    6  N   UNL     1     -10.731  16.796  66.077  1.00  0.00    -0.205 N  
HETATM    7  C   UNL     1     -11.506  15.413  64.111  1.00  0.00    -0.028 C  
HETATM    8  C   UNL     1     -10.003  15.970  66.879  1.00  0.00    -0.251 C  
HETATM    9  O   UNL     1     -11.154  14.287  64.708  1.00  0.00    -0.368 OA 
HETATM   10  OXT UNL     1     -12.000  15.372  62.982  1.00  0.00     1.270 OA 
HETATM   11  CA  UNL     1      -9.489  17.217  67.671  1.00  0.00    -0.246 C  
HETATM   12  O   UNL     1      -9.762  14.811  66.786  1.00  0.00    -0.236 OA 
ENDROOT
BRANCH  11  13
HETATM   13  N   UNL     1      -7.996  17.379  67.494  1.00  0.00    -0.193 N  
HETATM   14  C   UNL     1      -6.850  16.751  68.005  1.00  0.00    -0.144 C  
HETATM   15  H   UNL     1      -7.765  18.129  66.842  1.00  0.00     0.000 HD 
HETATM   16  O   UNL     1      -5.759  17.226  67.691  1.00  0.00    -0.121 OA 
BRANCH  14  17
HETATM   17  C   UNL     1      -6.879  15.434  68.764  1.00  0.00    -0.113 C  
BRANCH  17  18
HETATM   18  C   UNL     1      -8.148  14.814  69.177  1.00  0.00    -0.119 A  
HETATM   19  N   UNL     1      -9.116  15.561  69.840  1.00  0.00    -0.075 NA 
HETATM   20  C   UNL     1      -8.373  13.442  69.236  1.00  0.00     0.699 A  
HETATM   21  N   UNL     1     -10.732  15.257  71.477  1.00  0.00    -0.347 NA 
HETATM   22  H2  UNL     1     -11.284  14.598  72.025  1.00  0.00     0.000 HD 
HETATM   23  S   UNL     1      -9.705  13.104  70.265  1.00  0.00     4.432 SA 
HETATM   24  H1  UNL     1     -10.840  16.256  71.649  1.00  0.00     0.000 HD 
HETATM   25  C   UNL     1      -9.887  14.784  70.554  1.00  0.00     0.985 A  
ENDBRANCH  17  18
BRANCH  17  26
HETATM   26  N   UNL     1      -5.871  14.845  69.348  1.00  0.00    -0.099 NA 
HETATM   27  H   UNL     1      -5.305  14.212  68.782  1.00  0.00     0.000 HD 
BRANCH  26  28
HETATM   28  O   UNL     1      -5.505  15.013  70.688  1.00  0.00    -0.129 OA 
HETATM   29  C   UNL     1      -5.428  13.893  71.544  1.00  0.00    -0.227 C  
ENDBRANCH  26  28
ENDBRANCH  17  26
ENDBRANCH  14  17
ENDBRANCH  11  13
TORSDOF 5
ENDMDL
MODEL      286
REMARK 921   NORMALIZED FREE ENERGY PREDICTED BY IDOCK:   44.74 KCAL/MOL
REMARK 922        TOTAL FREE ENERGY PREDICTED BY IDOCK:   57.05 KCAL/MOL
REMARK 923 INTER-LIGAND FREE ENERGY PREDICTED BY IDOCK:   56.17 KCAL/MOL
REMARK 924 INTRA-LIGAND FREE ENERGY PREDICTED BY IDOCK:    0.88 KCAL/MOL
REMARK 927      BINDING AFFINITY PREDICTED BY RF-SCORE:    0.00 PKD
ROOT
HETATM    1  CE  UNL     1     -11.051  10.822  69.094  1.00  0.00    -0.249 C  
HETATM    2  SD  UNL     1     -12.038  10.193  67.781  1.00  0.00     3.090 SA 
HETATM    3  CG  UNL     1     -12.557   8.561  68.395  1.00  0.00     6.833 C  
HETATM    4  CB  UNL     1     -12.114   8.172  69.761  1.00  0.00     1.096 C  
HETATM    5  CA  UNL     1     -11.228   8.796  70.556  1.00  0.00    -0.247 C  
HETATM    6  N   UNL     1     -10.618   9.939  70.124  1.00  0.00    -0.278 N  
HETATM    7  C   UNL     1     -10.878   8.102  71.837  1.00  0.00    -0.270 C  
HETATM    8  C   UNL     1      -9.495  10.635  70.459  1.00  0.00     1.632 C  
HETATM    9  O   UNL     1      -9.967   8.648  72.625  1.00  0.00    -0.248 OA 
HETATM   10  OXT UNL     1     -11.426   7.051  72.180  1.00  0.00    -0.259 OA 
HETATM   11  CA  UNL     1      -9.540  11.347  69.065  1.00  0.00     0.014 C  
HETATM   12  O   UNL     1      -8.749  10.513  71.374  1.00  0.00     2.767 OA 
ENDROOT
BRANCH  11  13
HETATM   13  N   UNL     1      -8.334  10.966  68.237  1.00  0.00    -0.123 N  
HETATM   14  C   UNL     1      -7.875  11.246  66.942  1.00  0.00    -0.156 C  
HETATM   15  H   UNL     1      -7.696  10.353  68.747  1.00  0.00     0.000 HD 
HETATM   16  O   UNL     1      -6.856  10.667  66.566  1.00  0.00    -0.107 OA 
BRANCH  14  17
HETATM   17  C   UNL     1      -8.456  12.341  66.061  1.00  0.00     0.441 C  
BRANCH  17  18
HETATM   18  C   UNL     1      -7.963  12.568  64.694  1.00  0.00     4.457 A  
HETATM   19  N   UNL     1      -7.183  11.610  64.056  1.00  0.00     2.330 NA 
HETATM   20  C   UNL     1      -7.950  13.804  64.055  1.00  0.00    13.047 A  
HETATM   21  N   UNL     1      -5.427  11.519  62.542  1.00  0.00    -0.321 NA 
HETATM   22  H2  UNL     1      -4.864  12.014  61.850  1.00  0.00     0.000 HD 
HETATM   23  S   UNL     1      -6.826  13.790  62.758  1.00  0.00    18.962 SA 
HETATM   24  H1  UNL     1      -5.198  10.550  62.764  1.00  0.00     0.000 HD 
HETATM   25  C   UNL     1      -6.442  12.161  63.131  1.00  0.00     4.654 A  
ENDBRANCH  17  18
BRANCH  17  26
HETATM   26  N   UNL     1      -9.219  13.329  66.442  1.00  0.00    -0.440 NA 
HETATM   27  H   UNL     1      -9.371  14.089  65.778  1.00  0.00     0.000 HD 
BRANCH  26  28
HETATM   28  O   UNL     1      -9.846  13.430  67.689  1.00  0.00    -0.217 OA 
HETATM   29  C   UNL     1     -10.620  14.568  68.000  1.00  0.00    -0.237 C  
ENDBRANCH  26  28
ENDBRANCH  17  26
ENDBRANCH  14  17
ENDBRANCH  11  13
TORSDOF 5
ENDMDL
