MODEL        1
REMARK 921   NORMALIZED FREE ENERGY PREDICTED BY IDOCK:   -7.16 KCAL/MOL
REMARK 922        TOTAL FREE ENERGY PREDICTED BY IDOCK:  -11.91 KCAL/MOL
REMARK 923 INTER-LIGAND FREE ENERGY PREDICTED BY IDOCK:  -10.51 KCAL/MOL
REMARK 924 INTRA-LIGAND FREE ENERGY PREDICTED BY IDOCK:   -1.40 KCAL/MOL
REMARK 927      BINDING AFFINITY PREDICTED BY RF-SCORE:    0.00 PKD
ROOT
HETATM    1  C   UNL     1     -12.076  13.859  68.605  1.00  0.00    -0.302 C  
HETATM    2  S   UNL     1     -11.432  12.372  67.884  1.00  0.00    -0.348 SA 
HETATM    3  C   UNL     1     -11.554  11.159  69.228  1.00  0.00    -0.318 C  
HETATM    4  C   UNL     1     -12.194  11.563  70.526  1.00  0.00    -0.469 C  
HETATM    5  CA  UNL     1     -11.391  15.288  68.835  1.00  0.00    -0.305 C  
HETATM    6  CA  UNL     1     -12.611  12.802  70.849  1.00  0.00    -0.255 C  
HETATM    7  C   UNL     1     -12.204  15.205  70.157  1.00  0.00    -0.352 C  
HETATM    8  C   UNL     1     -13.314  13.040  72.155  1.00  0.00    -0.524 C  
HETATM    9  N   UNL     1     -12.352  13.872  70.013  1.00  0.00    -0.333 N  
HETATM   10  OXT UNL     1     -14.093  12.218  72.614  1.00  0.00     0.027 OA 
HETATM   11  O   UNL     1     -12.424  15.928  71.083  1.00  0.00    -0.445 OA 
HETATM   12  O   UNL     1     -13.080  14.200  72.788  1.00  0.00    -0.478 OA 
ENDROOT
BRANCH   4  13
HETATM   13  C   UNL     1     -12.189  10.411  71.534  1.00  0.00    -0.321 C  
BRANCH  13  14
HETATM   14  O   UNL     1     -12.795   9.215  71.006  1.00  0.00    -0.237 OA 
BRANCH  14  15
HETATM   15  C   UNL     1     -13.651   8.556  71.812  1.00  0.00    -0.388 C  
HETATM   16  O   UNL     1     -14.118   7.443  71.627  1.00  0.00    -0.412 OA 
HETATM   17  N   UNL     1     -13.984   9.332  72.870  1.00  0.00    -0.823 N  
HETATM   18  H2  UNL     1     -13.637  10.277  73.033  1.00  0.00     0.000 HD 
HETATM   19  H1  UNL     1     -14.632   8.833  73.479  1.00  0.00     0.000 HD 
ENDBRANCH  14  15
ENDBRANCH  13  14
ENDBRANCH   4  13
BRANCH   5  20
HETATM   20  N   UNL     1      -9.980  15.765  69.122  1.00  0.00    -0.224 N  
HETATM   21  H   UNL     1      -9.714  15.608  70.094  1.00  0.00     0.000 HD 
HETATM   22  C   UNL     1      -8.946  16.370  68.383  1.00  0.00    -0.214 C  
HETATM   23  O   UNL     1      -7.871  16.547  68.936  1.00  0.00    -0.220 OA 
BRANCH  22  24
HETATM   24  C   UNL     1      -9.165  16.982  67.010  1.00  0.00    -0.236 C  
BRANCH  24  25
HETATM   25  C   UNL     1      -9.726  18.324  66.896  1.00  0.00    -0.315 A  
HETATM   26  O   UNL     1     -10.448  18.718  65.800  1.00  0.00    -0.571 OA 
HETATM   27  C   UNL     1      -9.428  19.449  67.655  1.00  0.00    -0.395 A  
HETATM   28  C   UNL     1     -10.495  20.081  65.817  1.00  0.00    -0.364 A  
HETATM   29  C   UNL     1      -9.869  20.579  66.934  1.00  0.00    -0.506 A  
ENDBRANCH  24  25
BRANCH  24  30
HETATM   30  N   UNL     1      -9.087  16.367  65.868  1.00  0.00    -0.472 NA 
HETATM   31  H   UNL     1      -8.668  16.875  65.090  1.00  0.00     0.000 HD 
BRANCH  30  32
HETATM   32  O   UNL     1      -9.528  15.069  65.618  1.00  0.00    -0.295 OA 
HETATM   33  C   UNL     1     -10.723  14.826  64.914  1.00  0.00    -0.417 C  
ENDBRANCH  30  32
ENDBRANCH  24  30
ENDBRANCH  22  24
ENDBRANCH   5  20
TORSDOF 8
ENDMDL
MODEL        2
REMARK 921   NORMALIZED FREE ENERGY PREDICTED BY IDOCK:   -7.08 KCAL/MOL
REMARK 922        TOTAL FREE ENERGY PREDICTED BY IDOCK:  -11.79 KCAL/MOL
REMARK 923 INTER-LIGAND FREE ENERGY PREDICTED BY IDOCK:  -10.40 KCAL/MOL
REMARK 924 INTRA-LIGAND FREE ENERGY PREDICTED BY IDOCK:   -1.39 KCAL/MOL
REMARK 927      BINDING AFFINITY PREDICTED BY RF-SCORE:    0.00 PKD
ROOT
HETATM    1  C   UNL     1     -11.768  11.811  67.469  1.00  0.00    -0.240 C  
HETATM    2  S   UNL     1     -10.975  10.236  67.287  1.00  0.00    -0.133 SA 
HETATM    3  C   UNL     1     -10.876   9.609  68.986  1.00  0.00    -0.183 C  
HETATM    4  C   UNL     1     -11.500  10.402  70.099  1.00  0.00    -0.396 C  
HETATM    5  CA  UNL     1     -11.262  13.284  67.097  1.00  0.00    -0.299 C  
HETATM    6  CA  UNL     1     -12.056  11.623  69.983  1.00  0.00    -0.319 C  
HETATM    7  C   UNL     1     -11.993  13.620  68.426  1.00  0.00    -0.356 C  
HETATM    8  C   UNL     1     -12.720  12.259  71.171  1.00  0.00    -0.243 C  
HETATM    9  N   UNL     1     -11.976  12.323  68.794  1.00  0.00    -0.282 N  
HETATM   10  OXT UNL     1     -13.364  11.595  71.968  1.00  0.00    -0.481 OA 
HETATM   11  O   UNL     1     -12.259  14.611  69.039  1.00  0.00    -0.261 OA 
HETATM   12  O   UNL     1     -12.607  13.589  71.311  1.00  0.00    -0.353 OA 
ENDROOT
BRANCH   4  13
HETATM   13  C   UNL     1     -11.299   9.717  71.454  1.00  0.00    -0.337 C  
BRANCH  13  14
HETATM   14  O   UNL     1     -11.713   8.337  71.440  1.00  0.00    -0.272 OA 
BRANCH  14  15
HETATM   15  C   UNL     1     -12.976   8.074  71.828  1.00  0.00    -0.331 C  
HETATM   16  O   UNL     1     -13.722   7.227  71.362  1.00  0.00    -0.389 OA 
HETATM   17  N   UNL     1     -13.351   8.933  72.805  1.00  0.00    -0.754 N  
HETATM   18  H2  UNL     1     -12.763   9.671  73.191  1.00  0.00     0.000 HD 
HETATM   19  H1  UNL     1     -14.307   8.733  73.098  1.00  0.00     0.000 HD 
ENDBRANCH  14  15
ENDBRANCH  13  14
ENDBRANCH   4  13
BRANCH   5  20
HETATM   20  N   UNL     1      -9.911  13.974  67.058  1.00  0.00    -0.252 N  
HETATM   21  H   UNL     1      -9.240  13.535  67.689  1.00  0.00     0.000 HD 
HETATM   22  C   UNL     1      -9.353  15.068  66.371  1.00  0.00    -0.303 C  
HETATM   23  O   UNL     1      -8.164  15.301  66.530  1.00  0.00    -0.192 OA 
BRANCH  22  24
HETATM   24  C   UNL     1     -10.193  16.076  65.606  1.00  0.00    -0.386 C  
BRANCH  24  25
HETATM   25  C   UNL     1     -10.582  17.328  66.243  1.00  0.00    -0.184 A  
HETATM   26  O   UNL     1     -10.692  18.498  65.539  1.00  0.00    -0.586 OA 
HETATM   27  C   UNL     1     -10.628  17.626  67.601  1.00  0.00    -0.364 A  
HETATM   28  C   UNL     1     -10.686  19.517  66.445  1.00  0.00    -0.427 A  
HETATM   29  C   UNL     1     -10.634  19.031  67.729  1.00  0.00    -0.488 A  
ENDBRANCH  24  25
BRANCH  24  30
HETATM   30  N   UNL     1     -10.795  15.877  64.471  1.00  0.00    -0.855 NA 
HETATM   31  H   UNL     1     -10.284  16.119  63.622  1.00  0.00     0.000 HD 
BRANCH  30  32
HETATM   32  O   UNL     1     -12.079  15.360  64.317  1.00  0.00    -0.502 OA 
HETATM   33  C   UNL     1     -12.289  14.053  63.838  1.00  0.00    -0.234 C  
ENDBRANCH  30  32
ENDBRANCH  24  30
ENDBRANCH  22  24
ENDBRANCH   5  20
TORSDOF 8
ENDMDL
MODEL        3
REMARK 921   NORMALIZED FREE ENERGY PREDICTED BY IDOCK:   -6.95 KCAL/MOL
REMARK 922        TOTAL FREE ENERGY PREDICTED BY IDOCK:  -11.60 KCAL/MOL
REMARK 923 INTER-LIGAND FREE ENERGY PREDICTED BY IDOCK:  -10.68 KCAL/MOL
REMARK 924 INTRA-LIGAND FREE ENERGY PREDICTED BY IDOCK:   -0.92 KCAL/MOL
REMARK 927      BINDING AFFINITY PREDICTED BY RF-SCORE:    0.00 PKD
ROOT
HETATM    1  C   UNL     1      -9.120  15.462  66.350  1.00  0.00    -0.314 C  
HETATM    2  S   UNL     1      -8.586  14.857  67.928  1.00  0.00    -0.168 SA 
HETATM    3  C   UNL     1      -9.900  13.700  68.408  1.00  0.00    -0.223 C  
HETATM    4  C   UNL     1     -11.022  13.425  67.447  1.00  0.00    -0.287 C  
HETATM    5  CA  UNL     1      -9.459  16.950  65.864  1.00  0.00    -0.113 C  
HETATM    6  CA  UNL     1     -11.221  14.042  66.267  1.00  0.00    -0.320 C  
HETATM    7  C   UNL     1     -10.578  16.194  65.095  1.00  0.00    -0.343 C  
HETATM    8  C   UNL     1     -12.341  13.600  65.369  1.00  0.00    -0.476 C  
HETATM    9  N   UNL     1     -10.436  15.117  65.894  1.00  0.00    -0.316 N  
HETATM   10  OXT UNL     1     -12.642  12.421  65.265  1.00  0.00    -0.636 OA 
HETATM   11  O   UNL     1     -11.419  16.478  64.295  1.00  0.00    -1.000 OA 
HETATM   12  O   UNL     1     -12.983  14.543  64.663  1.00  0.00    -0.550 OA 
ENDROOT
BRANCH   4  13
HETATM   13  C   UNL     1     -12.034  12.439  68.038  1.00  0.00    -0.203 C  
BRANCH  13  14
HETATM   14  O   UNL     1     -11.828  12.217  69.447  1.00  0.00    -0.299 OA 
BRANCH  14  15
HETATM   15  C   UNL     1     -11.912  10.945  69.884  1.00  0.00    -0.353 C  
HETATM   16  O   UNL     1     -12.249  10.576  70.998  1.00  0.00    -0.335 OA 
HETATM   17  N   UNL     1     -11.513  10.092  68.911  1.00  0.00    -0.491 N  
HETATM   18  H2  UNL     1     -11.195  10.371  67.983  1.00  0.00     0.000 HD 
HETATM   19  H1  UNL     1     -11.576   9.129  69.242  1.00  0.00     0.000 HD 
ENDBRANCH  14  15
ENDBRANCH  13  14
ENDBRANCH   4  13
BRANCH   5  20
HETATM   20  N   UNL     1     -10.030  18.189  66.527  1.00  0.00    -0.355 N  
HETATM   21  H   UNL     1     -11.042  18.131  66.639  1.00  0.00     0.000 HD 
HETATM   22  C   UNL     1      -9.512  19.399  67.027  1.00  0.00    -0.323 C  
HETATM   23  O   UNL     1     -10.280  20.164  67.590  1.00  0.00    -0.403 OA 
BRANCH  22  24
HETATM   24  C   UNL     1      -8.102  19.878  66.726  1.00  0.00    -0.315 C  
BRANCH  24  25
HETATM   25  C   UNL     1      -7.106  19.913  67.791  1.00  0.00    -0.274 A  
HETATM   26  O   UNL     1      -7.290  19.255  68.979  1.00  0.00    -0.345 OA 
HETATM   27  C   UNL     1      -6.018  20.768  67.925  1.00  0.00    -0.341 A  
HETATM   28  C   UNL     1      -6.404  19.781  69.873  1.00  0.00    -0.342 A  
HETATM   29  C   UNL     1      -5.607  20.726  69.275  1.00  0.00    -0.409 A  
ENDBRANCH  24  25
BRANCH  24  30
HETATM   30  N   UNL     1      -7.699  20.462  65.637  1.00  0.00    -0.529 NA 
HETATM   31  H   UNL     1      -8.006  21.421  65.480  1.00  0.00     0.000 HD 
BRANCH  30  32
HETATM   32  O   UNL     1      -6.884  19.885  64.666  1.00  0.00    -0.319 OA 
HETATM   33  C   UNL     1      -5.972  20.660  63.923  1.00  0.00    -0.297 C  
ENDBRANCH  30  32
ENDBRANCH  24  30
ENDBRANCH  22  24
ENDBRANCH   5  20
TORSDOF 8
ENDMDL
MODEL        4
REMARK 921   NORMALIZED FREE ENERGY PREDICTED BY IDOCK:   -6.81 KCAL/MOL
REMARK 922        TOTAL FREE ENERGY PREDICTED BY IDOCK:  -11.40 KCAL/MOL
REMARK 923 INTER-LIGAND FREE ENERGY PREDICTED BY IDOCK:  -10.36 KCAL/MOL
REMARK 924 INTRA-LIGAND FREE ENERGY PREDICTED BY IDOCK:   -1.04 KCAL/MOL
REMARK 927      BINDING AFFINITY PREDICTED BY RF-SCORE:    0.00 PKD
ROOT
HETATM    1  C   UNL     1     -11.890  14.225  68.829  1.00  0.00    -0.341 C  
HETATM    2  S   UNL     1     -11.495  12.688  68.039  1.00  0.00    -0.340 SA 
HETATM    3  C   UNL     1     -11.855  11.448  69.314  1.00  0.00    -0.349 C  
HETATM    4  C   UNL     1     -12.446  11.891  70.622  1.00  0.00    -0.347 C  
HETATM    5  CA  UNL     1     -10.975  15.501  69.146  1.00  0.00    -0.259 C  
HETATM    6  CA  UNL     1     -12.652  13.166  71.005  1.00  0.00    -0.312 C  
HETATM    7  C   UNL     1     -11.821  15.494  70.449  1.00  0.00    -0.351 C  
HETATM    8  C   UNL     1     -13.334  13.455  72.312  1.00  0.00    -0.544 C  
HETATM    9  N   UNL     1     -12.192  14.216  70.232  1.00  0.00    -0.329 N  
HETATM   10  OXT UNL     1     -14.253  12.758  72.715  1.00  0.00    -0.329 OA 
HETATM   11  O   UNL     1     -11.935  16.197  71.409  1.00  0.00    -0.442 OA 
HETATM   12  O   UNL     1     -12.919  14.524  73.009  1.00  0.00    -0.481 OA 
ENDROOT
BRANCH   4  13
HETATM   13  C   UNL     1     -12.663  10.706  71.567  1.00  0.00    -0.444 C  
BRANCH  13  14
HETATM   14  O   UNL     1     -13.311   9.595  70.917  1.00  0.00    -0.279 OA 
BRANCH  14  15
HETATM   15  C   UNL     1     -13.860   8.657  71.713  1.00  0.00    -0.425 C  
HETATM   16  O   UNL     1     -14.314   7.578  71.365  1.00  0.00    -0.441 OA 
HETATM   17  N   UNL     1     -13.896   9.096  72.993  1.00  0.00    -0.877 N  
HETATM   18  H2  UNL     1     -13.556  10.005  73.309  1.00  0.00     0.000 HD 
HETATM   19  H1  UNL     1     -14.312   8.386  73.596  1.00  0.00     0.000 HD 
ENDBRANCH  14  15
ENDBRANCH  13  14
ENDBRANCH   4  13
BRANCH   5  20
HETATM   20  N   UNL     1      -9.510  15.712  69.478  1.00  0.00    -0.277 N  
HETATM   21  H   UNL     1      -9.289  15.420  70.430  1.00  0.00     0.000 HD 
HETATM   22  C   UNL     1      -8.380  16.210  68.803  1.00  0.00    -0.231 C  
HETATM   23  O   UNL     1      -7.300  16.155  69.370  1.00  0.00    -0.227 OA 
BRANCH  22  24
HETATM   24  C   UNL     1      -8.475  16.981  67.497  1.00  0.00    -0.200 C  
BRANCH  24  25
HETATM   25  C   UNL     1      -9.132  16.376  66.344  1.00  0.00    -0.306 A  
HETATM   26  O   UNL     1     -10.036  17.064  65.578  1.00  0.00    -0.567 OA 
HETATM   27  C   UNL     1      -9.193  15.031  65.995  1.00  0.00    -0.245 A  
HETATM   28  C   UNL     1     -10.732  16.144  64.852  1.00  0.00    -0.274 A  
HETATM   29  C   UNL     1     -10.259  14.875  65.083  1.00  0.00    -0.409 A  
ENDBRANCH  24  25
BRANCH  24  30
HETATM   30  N   UNL     1      -7.857  18.087  67.206  1.00  0.00    -0.211 NA 
HETATM   31  H   UNL     1      -7.087  18.030  66.540  1.00  0.00     0.000 HD 
BRANCH  30  32
HETATM   32  O   UNL     1      -8.159  19.342  67.728  1.00  0.00    -0.273 OA 
HETATM   33  C   UNL     1      -7.394  19.904  68.769  1.00  0.00    -0.251 C  
ENDBRANCH  30  32
ENDBRANCH  24  30
ENDBRANCH  22  24
ENDBRANCH   5  20
TORSDOF 8
ENDMDL
MODEL        5
REMARK 921   NORMALIZED FREE ENERGY PREDICTED BY IDOCK:   -6.75 KCAL/MOL
REMARK 922        TOTAL FREE ENERGY PREDICTED BY IDOCK:  -11.30 KCAL/MOL
REMARK 923 INTER-LIGAND FREE ENERGY PREDICTED BY IDOCK:  -10.16 KCAL/MOL
REMARK 924 INTRA-LIGAND FREE ENERGY PREDICTED BY IDOCK:   -1.14 KCAL/MOL
REMARK 927      BINDING AFFINITY PREDICTED BY RF-SCORE:    0.00 PKD
ROOT
HETATM    1  C   UNL     1     -11.888  13.851  68.598  1.00  0.00    -0.372 C  
HETATM    2  S   UNL     1     -11.587  15.145  69.771  1.00  0.00    -0.336 SA 
HETATM    3  C   UNL     1     -10.828  16.458  68.774  1.00  0.00    -0.338 C  
HETATM    4  C   UNL     1     -10.698  16.268  67.289  1.00  0.00    -0.265 C  
HETATM    5  CA  UNL     1     -11.345  12.346  68.543  1.00  0.00    -0.293 C  
HETATM    6  CA  UNL     1     -11.001  15.148  66.606  1.00  0.00    -0.318 C  
HETATM    7  C   UNL     1     -11.293  12.667  67.023  1.00  0.00    -0.323 C  
HETATM    8  C   UNL     1     -10.900  15.134  65.107  1.00  0.00    -0.422 C  
HETATM    9  N   UNL     1     -11.353  13.990  67.274  1.00  0.00    -0.315 N  
HETATM   10  OXT UNL     1     -11.211  16.110  64.442  1.00  0.00    -0.605 OA 
HETATM   11  O   UNL     1     -11.049  12.063  66.021  1.00  0.00    -0.296 OA 
HETATM   12  O   UNL     1     -10.484  14.001  64.521  1.00  0.00    -0.424 OA 
ENDROOT
BRANCH   4  13
HETATM   13  C   UNL     1     -10.022  17.474  66.629  1.00  0.00    -0.314 C  
BRANCH  13  14
HETATM   14  O   UNL     1     -10.848  18.654  66.663  1.00  0.00    -0.312 OA 
BRANCH  14  15
HETATM   15  C   UNL     1     -10.336  19.742  67.271  1.00  0.00    -0.449 C  
HETATM   16  O   UNL     1     -10.459  20.047  68.447  1.00  0.00    -0.411 OA 
HETATM   17  N   UNL     1      -9.682  20.513  66.371  1.00  0.00    -0.642 N  
HETATM   18  H2  UNL     1      -9.590  20.302  65.377  1.00  0.00     0.000 HD 
HETATM   19  H1  UNL     1      -9.294  21.337  66.832  1.00  0.00     0.000 HD 
ENDBRANCH  14  15
ENDBRANCH  13  14
ENDBRANCH   4  13
BRANCH   5  20
HETATM   20  N   UNL     1     -10.065  11.653  68.971  1.00  0.00    -0.403 N  
HETATM   21  H   UNL     1      -9.257  12.273  68.910  1.00  0.00     0.000 HD 
HETATM   22  C   UNL     1      -9.714  10.371  69.433  1.00  0.00    -0.200 C  
HETATM   23  O   UNL     1      -8.557  10.179  69.775  1.00  0.00    -0.184 OA 
BRANCH  22  24
HETATM   24  C   UNL     1     -10.649   9.177  69.339  1.00  0.00    -0.223 C  
BRANCH  24  25
HETATM   25  C   UNL     1     -11.260   8.638  70.548  1.00  0.00    -0.241 A  
HETATM   26  O   UNL     1     -11.752   7.361  70.606  1.00  0.00    -0.290 OA 
HETATM   27  C   UNL     1     -11.690   9.327  71.677  1.00  0.00    -0.462 A  
HETATM   28  C   UNL     1     -12.574   7.294  71.693  1.00  0.00    -0.368 A  
HETATM   29  C   UNL     1     -12.579   8.485  72.378  1.00  0.00    -0.409 A  
ENDBRANCH  24  25
BRANCH  24  30
HETATM   30  N   UNL     1     -10.839   8.424  68.296  1.00  0.00    -0.447 NA 
HETATM   31  H   UNL     1     -11.052   7.441  68.461  1.00  0.00     0.000 HD 
BRANCH  30  32
HETATM   32  O   UNL     1     -10.775   8.850  66.971  1.00  0.00    -0.248 OA 
HETATM   33  C   UNL     1      -9.601   8.693  66.209  1.00  0.00    -0.252 C  
ENDBRANCH  30  32
ENDBRANCH  24  30
ENDBRANCH  22  24
ENDBRANCH   5  20
TORSDOF 8
ENDMDL
MODEL        6
REMARK 921   NORMALIZED FREE ENERGY PREDICTED BY IDOCK:   -6.74 KCAL/MOL
REMARK 922        TOTAL FREE ENERGY PREDICTED BY IDOCK:  -11.29 KCAL/MOL
REMARK 923 INTER-LIGAND FREE ENERGY PREDICTED BY IDOCK:  -10.19 KCAL/MOL
REMARK 924 INTRA-LIGAND FREE ENERGY PREDICTED BY IDOCK:   -1.11 KCAL/MOL
REMARK 927      BINDING AFFINITY PREDICTED BY RF-SCORE:    0.00 PKD
ROOT
HETATM    1  C   UNL     1     -11.391  12.146  68.478  1.00  0.00    -0.275 C  
HETATM    2  S   UNL     1     -10.168  10.924  68.089  1.00  0.00    -0.184 SA 
HETATM    3  C   UNL     1     -10.199   9.817  69.527  1.00  0.00    -0.221 C  
HETATM    4  C   UNL     1     -11.207  10.056  70.615  1.00  0.00    -0.425 C  
HETATM    5  CA  UNL     1     -11.262  13.733  68.653  1.00  0.00    -0.278 C  
HETATM    6  CA  UNL     1     -12.054  11.100  70.692  1.00  0.00    -0.379 C  
HETATM    7  C   UNL     1     -12.281  13.457  69.793  1.00  0.00    -0.245 C  
HETATM    8  C   UNL     1     -13.070  11.161  71.798  1.00  0.00    -0.431 C  
HETATM    9  N   UNL     1     -11.965  12.146  69.794  1.00  0.00    -0.317 N  
HETATM   10  OXT UNL     1     -13.631  10.153  72.198  1.00  0.00    -0.368 OA 
HETATM   11  O   UNL     1     -12.919  14.116  70.559  1.00  0.00    -0.304 OA 
HETATM   12  O   UNL     1     -13.361  12.366  72.311  1.00  0.00    -0.522 OA 
ENDROOT
BRANCH   4  13
HETATM   13  C   UNL     1     -11.065   9.030  71.744  1.00  0.00    -0.374 C  
BRANCH  13  14
HETATM   14  O   UNL     1     -10.812   7.700  71.250  1.00  0.00    -0.229 OA 
BRANCH  14  15
HETATM   15  C   UNL     1     -11.887   6.939  70.966  1.00  0.00    -0.364 C  
HETATM   16  O   UNL     1     -12.760   6.588  71.744  1.00  0.00    -0.320 OA 
HETATM   17  N   UNL     1     -11.854   6.553  69.669  1.00  0.00    -0.610 N  
HETATM   18  H2  UNL     1     -11.122   6.803  69.003  1.00  0.00     0.000 HD 
HETATM   19  H1  UNL     1     -12.668   5.977  69.454  1.00  0.00     0.000 HD 
ENDBRANCH  14  15
ENDBRANCH  13  14
ENDBRANCH   4  13
BRANCH   5  20
HETATM   20  N   UNL     1     -10.175  14.671  69.144  1.00  0.00    -0.317 N  
HETATM   21  H   UNL     1     -10.043  14.606  70.153  1.00  0.00     0.000 HD 
HETATM   22  C   UNL     1      -9.304  15.606  68.555  1.00  0.00    -0.197 C  
HETATM   23  O   UNL     1      -8.469  16.143  69.267  1.00  0.00    -0.247 OA 
BRANCH  22  24
HETATM   24  C   UNL     1      -9.482  16.118  67.135  1.00  0.00    -0.223 C  
BRANCH  24  25
HETATM   25  C   UNL     1     -10.177  17.378  66.901  1.00  0.00    -0.322 A  
HETATM   26  O   UNL     1     -10.206  17.973  65.667  1.00  0.00    -0.584 OA 
HETATM   27  C   UNL     1     -10.652  18.287  67.839  1.00  0.00    -0.392 A  
HETATM   28  C   UNL     1     -10.579  19.271  65.854  1.00  0.00    -0.435 A  
HETATM   29  C   UNL     1     -10.853  19.517  67.177  1.00  0.00    -0.555 A  
ENDBRANCH  24  25
BRANCH  24  30
HETATM   30  N   UNL     1      -9.248  15.457  66.041  1.00  0.00    -0.373 NA 
HETATM   31  H   UNL     1      -8.678  15.915  65.330  1.00  0.00     0.000 HD 
BRANCH  30  32
HETATM   32  O   UNL     1      -9.710  14.174  65.758  1.00  0.00    -0.289 OA 
HETATM   33  C   UNL     1     -10.807  13.964  64.900  1.00  0.00    -0.405 C  
ENDBRANCH  30  32
ENDBRANCH  24  30
ENDBRANCH  22  24
ENDBRANCH   5  20
TORSDOF 8
ENDMDL
MODEL        7
REMARK 921   NORMALIZED FREE ENERGY PREDICTED BY IDOCK:   -6.73 KCAL/MOL
REMARK 922        TOTAL FREE ENERGY PREDICTED BY IDOCK:  -11.27 KCAL/MOL
REMARK 923 INTER-LIGAND FREE ENERGY PREDICTED BY IDOCK:  -10.45 KCAL/MOL
REMARK 924 INTRA-LIGAND FREE ENERGY PREDICTED BY IDOCK:   -0.82 KCAL/MOL
REMARK 927      BINDING AFFINITY PREDICTED BY RF-SCORE:    0.00 PKD
ROOT
HETATM    1  C   UNL     1     -12.152  14.015  68.511  1.00  0.00    -0.294 C  
HETATM    2  S   UNL     1     -11.658  15.192  69.742  1.00  0.00    -0.336 SA 
HETATM    3  C   UNL     1     -10.728  16.431  68.797  1.00  0.00    -0.321 C  
HETATM    4  C   UNL     1     -10.639  16.301  67.304  1.00  0.00    -0.298 C  
HETATM    5  CA  UNL     1     -11.830  12.452  68.373  1.00  0.00    -0.309 C  
HETATM    6  CA  UNL     1     -11.105  15.272  66.571  1.00  0.00    -0.271 C  
HETATM    7  C   UNL     1     -11.747  12.840  66.870  1.00  0.00    -0.380 C  
HETATM    8  C   UNL     1     -11.021  15.320  65.072  1.00  0.00    -0.437 C  
HETATM    9  N   UNL     1     -11.614  14.144  67.186  1.00  0.00    -0.356 N  
HETATM   10  OXT UNL     1     -11.195  16.364  64.461  1.00  0.00    -0.697 OA 
HETATM   11  O   UNL     1     -11.600  12.260  65.836  1.00  0.00    -0.367 OA 
HETATM   12  O   UNL     1     -10.777  14.171  64.424  1.00  0.00    -0.352 OA 
ENDROOT
BRANCH   4  13
HETATM   13  C   UNL     1      -9.804  17.431  66.693  1.00  0.00    -0.297 C  
BRANCH  13  14
HETATM   14  O   UNL     1     -10.092  18.711  67.287  1.00  0.00    -0.321 OA 
BRANCH  14  15
HETATM   15  C   UNL     1     -10.284  19.746  66.446  1.00  0.00    -0.503 C  
HETATM   16  O   UNL     1     -10.966  19.747  65.433  1.00  0.00    -0.414 OA 
HETATM   17  N   UNL     1      -9.559  20.816  66.851  1.00  0.00    -0.678 N  
HETATM   18  H2  UNL     1      -8.956  20.835  67.673  1.00  0.00     0.000 HD 
HETATM   19  H1  UNL     1      -9.705  21.599  66.214  1.00  0.00     0.000 HD 
ENDBRANCH  14  15
ENDBRANCH  13  14
ENDBRANCH   4  13
BRANCH   5  20
HETATM   20  N   UNL     1     -10.658  11.564  68.746  1.00  0.00    -0.206 N  
HETATM   21  H   UNL     1      -9.838  11.753  68.171  1.00  0.00     0.000 HD 
HETATM   22  C   UNL     1     -10.421  10.544  69.686  1.00  0.00    -0.219 C  
HETATM   23  O   UNL     1      -9.292  10.086  69.766  1.00  0.00    -0.220 OA 
BRANCH  22  24
HETATM   24  C   UNL     1     -11.537   9.860  70.458  1.00  0.00    -0.309 C  
BRANCH  24  25
HETATM   25  C   UNL     1     -11.315   8.539  71.035  1.00  0.00    -0.271 A  
HETATM   26  O   UNL     1     -11.273   7.407  70.265  1.00  0.00    -0.269 OA 
HETATM   27  C   UNL     1     -11.388   8.160  72.371  1.00  0.00    -0.456 A  
HETATM   28  C   UNL     1     -11.438   6.343  71.101  1.00  0.00    -0.323 A  
HETATM   29  C   UNL     1     -11.526   6.756  72.408  1.00  0.00    -0.302 A  
ENDBRANCH  24  25
BRANCH  24  30
HETATM   30  N   UNL     1     -12.780  10.236  70.515  1.00  0.00    -0.505 NA 
HETATM   31  H   UNL     1     -13.357  10.072  69.691  1.00  0.00     0.000 HD 
BRANCH  30  32
HETATM   32  O   UNL     1     -13.389  10.844  71.610  1.00  0.00    -0.363 OA 
HETATM   33  C   UNL     1     -13.146  12.196  71.924  1.00  0.00    -0.369 C  
ENDBRANCH  30  32
ENDBRANCH  24  30
ENDBRANCH  22  24
ENDBRANCH   5  20
TORSDOF 8
ENDMDL
MODEL        8
REMARK 921   NORMALIZED FREE ENERGY PREDICTED BY IDOCK:   -6.70 KCAL/MOL
REMARK 922        TOTAL FREE ENERGY PREDICTED BY IDOCK:  -11.23 KCAL/MOL
REMARK 923 INTER-LIGAND FREE ENERGY PREDICTED BY IDOCK:  -10.10 KCAL/MOL
REMARK 924 INTRA-LIGAND FREE ENERGY PREDICTED BY IDOCK:   -1.13 KCAL/MOL
REMARK 927      BINDING AFFINITY PREDICTED BY RF-SCORE:    0.00 PKD
ROOT
HETATM    1  C   UNL     1      -9.173  15.496  66.280  1.00  0.00    -0.329 C  
HETATM    2  S   UNL     1      -8.553  14.896  67.829  1.00  0.00    -0.176 SA 
HETATM    3  C   UNL     1      -9.772  13.645  68.321  1.00  0.00    -0.231 C  
HETATM    4  C   UNL     1     -10.902  13.315  67.388  1.00  0.00    -0.279 C  
HETATM    5  CA  UNL     1      -9.625  16.967  65.836  1.00  0.00    -0.112 C  
HETATM    6  CA  UNL     1     -11.177  13.941  66.227  1.00  0.00    -0.309 C  
HETATM    7  C   UNL     1     -10.714  16.153  65.085  1.00  0.00    -0.371 C  
HETATM    8  C   UNL     1     -12.293  13.442  65.353  1.00  0.00    -0.477 C  
HETATM    9  N   UNL     1     -10.477  15.073  65.855  1.00  0.00    -0.309 N  
HETATM   10  OXT UNL     1     -12.517  12.248  65.233  1.00  0.00    -0.585 OA 
HETATM   11  O   UNL     1     -11.596  16.396  64.316  1.00  0.00    -0.818 OA 
HETATM   12  O   UNL     1     -13.017  14.354  64.686  1.00  0.00    -0.592 OA 
ENDROOT
BRANCH   4  13
HETATM   13  C   UNL     1     -11.827  12.252  67.986  1.00  0.00    -0.305 C  
BRANCH  13  14
HETATM   14  O   UNL     1     -11.712  12.164  69.419  1.00  0.00    -0.291 OA 
BRANCH  14  15
HETATM   15  C   UNL     1     -12.235  11.072  70.010  1.00  0.00    -0.343 C  
HETATM   16  O   UNL     1     -13.005  11.051  70.957  1.00  0.00    -0.347 OA 
HETATM   17  N   UNL     1     -11.742   9.951  69.432  1.00  0.00    -0.462 N  
HETATM   18  H2  UNL     1     -11.073   9.936  68.662  1.00  0.00     0.000 HD 
HETATM   19  H1  UNL     1     -12.138   9.124  69.879  1.00  0.00     0.000 HD 
ENDBRANCH  14  15
ENDBRANCH  13  14
ENDBRANCH   4  13
BRANCH   5  20
HETATM   20  N   UNL     1     -10.256  18.152  66.543  1.00  0.00    -0.373 N  
HETATM   21  H   UNL     1     -11.243  18.254  66.309  1.00  0.00     0.000 HD 
HETATM   22  C   UNL     1      -9.820  19.145  67.440  1.00  0.00    -0.329 C  
HETATM   23  O   UNL     1     -10.650  19.923  67.885  1.00  0.00    -0.388 OA 
BRANCH  22  24
HETATM   24  C   UNL     1      -8.351  19.412  67.723  1.00  0.00    -0.305 C  
BRANCH  24  25
HETATM   25  C   UNL     1      -7.531  20.085  66.722  1.00  0.00    -0.256 A  
HETATM   26  O   UNL     1      -7.538  19.709  65.405  1.00  0.00    -0.401 OA 
HETATM   27  C   UNL     1      -6.468  20.958  66.925  1.00  0.00    -0.370 A  
HETATM   28  C   UNL     1      -6.425  20.245  64.826  1.00  0.00    -0.282 A  
HETATM   29  C   UNL     1      -5.726  21.013  65.726  1.00  0.00    -0.279 A  
ENDBRANCH  24  25
BRANCH  24  30
HETATM   30  N   UNL     1      -7.654  18.931  68.709  1.00  0.00    -0.333 NA 
HETATM   31  H   UNL     1      -7.868  19.276  69.644  1.00  0.00     0.000 HD 
BRANCH  30  32
HETATM   32  O   UNL     1      -6.639  17.984  68.594  1.00  0.00    -0.211 OA 
HETATM   33  C   UNL     1      -5.735  17.750  69.648  1.00  0.00    -0.234 C  
ENDBRANCH  30  32
ENDBRANCH  24  30
ENDBRANCH  22  24
ENDBRANCH   5  20
TORSDOF 8
ENDMDL
MODEL        9
REMARK 921   NORMALIZED FREE ENERGY PREDICTED BY IDOCK:   -6.68 KCAL/MOL
REMARK 922        TOTAL FREE ENERGY PREDICTED BY IDOCK:  -11.20 KCAL/MOL
REMARK 923 INTER-LIGAND FREE ENERGY PREDICTED BY IDOCK:   -9.92 KCAL/MOL
REMARK 924 INTRA-LIGAND FREE ENERGY PREDICTED BY IDOCK:   -1.27 KCAL/MOL
REMARK 927      BINDING AFFINITY PREDICTED BY RF-SCORE:    0.00 PKD
ROOT
HETATM    1  C   UNL     1     -11.968  14.236  68.833  1.00  0.00    -0.320 C  
HETATM    2  S   UNL     1     -11.646  12.673  68.062  1.00  0.00    -0.357 SA 
HETATM    3  C   UNL     1     -12.017  11.469  69.368  1.00  0.00    -0.325 C  
HETATM    4  C   UNL     1     -12.559  11.955  70.681  1.00  0.00    -0.269 C  
HETATM    5  CA  UNL     1     -11.002  15.485  69.103  1.00  0.00    -0.259 C  
HETATM    6  CA  UNL     1     -12.711  13.242  71.046  1.00  0.00    -0.293 C  
HETATM    7  C   UNL     1     -11.815  15.529  70.427  1.00  0.00    -0.351 C  
HETATM    8  C   UNL     1     -13.349  13.578  72.364  1.00  0.00    -0.540 C  
HETATM    9  N   UNL     1     -12.235  14.262  70.243  1.00  0.00    -0.322 N  
HETATM   10  OXT UNL     1     -14.281  12.921  72.802  1.00  0.00    -0.446 OA 
HETATM   11  O   UNL     1     -11.880  16.253  71.376  1.00  0.00    -0.438 OA 
HETATM   12  O   UNL     1     -12.880  14.644  73.030  1.00  0.00    -0.445 OA 
ENDROOT
BRANCH   4  13
HETATM   13  C   UNL     1     -12.792  10.794  71.653  1.00  0.00    -0.457 C  
BRANCH  13  14
HETATM   14  O   UNL     1     -12.866   9.521  70.983  1.00  0.00    -0.298 OA 
BRANCH  14  15
HETATM   15  C   UNL     1     -13.234   8.459  71.726  1.00  0.00    -0.355 C  
HETATM   16  O   UNL     1     -13.153   7.282  71.410  1.00  0.00    -0.376 OA 
HETATM   17  N   UNL     1     -13.774   8.875  72.896  1.00  0.00    -0.906 N  
HETATM   18  H2  UNL     1     -13.885   9.850  73.174  1.00  0.00     0.000 HD 
HETATM   19  H1  UNL     1     -14.052   8.071  73.458  1.00  0.00     0.000 HD 
ENDBRANCH  14  15
ENDBRANCH  13  14
ENDBRANCH   4  13
BRANCH   5  20
HETATM   20  N   UNL     1      -9.523  15.650  69.395  1.00  0.00    -0.268 N  
HETATM   21  H   UNL     1      -9.360  16.214  70.229  1.00  0.00     0.000 HD 
HETATM   22  C   UNL     1      -8.321  15.220  68.804  1.00  0.00    -0.179 C  
HETATM   23  O   UNL     1      -7.273  15.481  69.376  1.00  0.00    -0.175 OA 
BRANCH  22  24
HETATM   24  C   UNL     1      -8.256  14.627  67.407  1.00  0.00    -0.201 C  
BRANCH  24  25
HETATM   25  C   UNL     1      -9.132  15.141  66.360  1.00  0.00    -0.296 A  
HETATM   26  O   UNL     1      -9.450  16.470  66.266  1.00  0.00    -0.274 OA 
HETATM   27  C   UNL     1      -9.971  14.426  65.513  1.00  0.00    -0.359 A  
HETATM   28  C   UNL     1     -10.548  16.566  65.464  1.00  0.00    -0.295 A  
HETATM   29  C   UNL     1     -10.916  15.332  64.985  1.00  0.00    -0.450 A  
ENDBRANCH  24  25
BRANCH  24  30
HETATM   30  N   UNL     1      -7.623  13.548  67.054  1.00  0.00    -0.347 NA 
HETATM   31  H   UNL     1      -6.822  13.657  66.433  1.00  0.00     0.000 HD 
BRANCH  30  32
HETATM   32  O   UNL     1      -7.949  12.254  67.453  1.00  0.00    -0.153 OA 
HETATM   33  C   UNL     1      -8.377  11.287  66.523  1.00  0.00    -0.168 C  
ENDBRANCH  30  32
ENDBRANCH  24  30
ENDBRANCH  22  24
ENDBRANCH   5  20
TORSDOF 8
ENDMDL
MODEL       10
REMARK 921   NORMALIZED FREE ENERGY PREDICTED BY IDOCK:   -6.66 KCAL/MOL
REMARK 922        TOTAL FREE ENERGY PREDICTED BY IDOCK:  -11.16 KCAL/MOL
REMARK 923 INTER-LIGAND FREE ENERGY PREDICTED BY IDOCK:   -9.78 KCAL/MOL
REMARK 924 INTRA-LIGAND FREE ENERGY PREDICTED BY IDOCK:   -1.38 KCAL/MOL
REMARK 927      BINDING AFFINITY PREDICTED BY RF-SCORE:    0.00 PKD
ROOT
HETATM    1  C   UNL     1     -11.566  14.456  67.852  1.00  0.00    -0.345 C  
HETATM    2  S   UNL     1     -10.277  14.686  69.046  1.00  0.00    -0.190 SA 
HETATM    3  C   UNL     1      -9.198  15.925  68.276  1.00  0.00    -0.189 C  
HETATM    4  C   UNL     1      -9.599  16.532  66.962  1.00  0.00    -0.249 C  
HETATM    5  CA  UNL     1     -12.028  13.146  67.054  1.00  0.00    -0.355 C  
HETATM    6  CA  UNL     1     -10.659  16.169  66.215  1.00  0.00    -0.274 C  
HETATM    7  C   UNL     1     -12.205  14.186  65.913  1.00  0.00    -0.439 C  
HETATM    8  C   UNL     1     -10.986  16.927  64.959  1.00  0.00    -0.046 C  
HETATM    9  N   UNL     1     -11.422  15.071  66.563  1.00  0.00    -0.293 N  
HETATM   10  OXT UNL     1     -10.839  18.138  64.894  1.00  0.00    -0.666 OA 
HETATM   11  O   UNL     1     -12.629  14.178  64.796  1.00  0.00    -0.608 OA 
HETATM   12  O   UNL     1     -11.472  16.232  63.920  1.00  0.00    -0.940 OA 
ENDROOT
BRANCH   4  13
HETATM   13  C   UNL     1      -8.556  17.540  66.471  1.00  0.00    -0.263 C  
BRANCH  13  14
HETATM   14  O   UNL     1      -8.360  18.625  67.398  1.00  0.00    -0.257 OA 
BRANCH  14  15
HETATM   15  C   UNL     1      -8.629  19.868  66.952  1.00  0.00    -0.332 C  
HETATM   16  O   UNL     1      -9.561  20.580  67.291  1.00  0.00    -0.424 OA 
HETATM   17  N   UNL     1      -7.731  20.225  66.003  1.00  0.00    -0.510 N  
HETATM   18  H2  UNL     1      -6.963  19.640  65.675  1.00  0.00     0.000 HD 
HETATM   19  H1  UNL     1      -7.936  21.166  65.666  1.00  0.00     0.000 HD 
ENDBRANCH  14  15
ENDBRANCH  13  14
ENDBRANCH   4  13
BRANCH   5  20
HETATM   20  N   UNL     1     -11.324  11.910  66.527  1.00  0.00    -0.342 N  
HETATM   21  H   UNL     1     -11.608  11.687  65.573  1.00  0.00     0.000 HD 
HETATM   22  C   UNL     1     -10.378  10.994  67.024  1.00  0.00    -0.228 C  
HETATM   23  O   UNL     1      -9.956  10.133  66.267  1.00  0.00    -0.217 OA 
BRANCH  22  24
HETATM   24  C   UNL     1     -10.009  10.908  68.496  1.00  0.00    -0.182 C  
BRANCH  24  25
HETATM   25  C   UNL     1     -10.993  10.434  69.462  1.00  0.00    -0.262 A  
HETATM   26  O   UNL     1     -12.271  10.925  69.498  1.00  0.00    -0.336 OA 
HETATM   27  C   UNL     1     -10.777   9.683  70.612  1.00  0.00    -0.388 A  
HETATM   28  C   UNL     1     -12.801  10.584  70.708  1.00  0.00    -0.367 A  
HETATM   29  C   UNL     1     -11.914   9.829  71.436  1.00  0.00    -0.493 A  
ENDBRANCH  24  25
BRANCH  24  30
HETATM   30  N   UNL     1      -8.944  11.400  69.055  1.00  0.00    -0.389 NA 
HETATM   31  H   UNL     1      -8.855  11.293  70.065  1.00  0.00     0.000 HD 
BRANCH  30  32
HETATM   32  O   UNL     1      -7.915  12.061  68.390  1.00  0.00    -0.144 OA 
HETATM   33  C   UNL     1      -6.847  12.649  69.096  1.00  0.00    -0.057 C  
ENDBRANCH  30  32
ENDBRANCH  24  30
ENDBRANCH  22  24
ENDBRANCH   5  20
TORSDOF 8
ENDMDL
MODEL       11
REMARK 921   NORMALIZED FREE ENERGY PREDICTED BY IDOCK:   -6.63 KCAL/MOL
REMARK 922        TOTAL FREE ENERGY PREDICTED BY IDOCK:  -11.12 KCAL/MOL
REMARK 923 INTER-LIGAND FREE ENERGY PREDICTED BY IDOCK:   -9.69 KCAL/MOL
REMARK 924 INTRA-LIGAND FREE ENERGY PREDICTED BY IDOCK:   -1.43 KCAL/MOL
REMARK 927      BINDING AFFINITY PREDICTED BY RF-SCORE:    0.00 PKD
ROOT
HETATM    1  C   UNL     1     -12.078  11.254  69.159  1.00  0.00    -0.279 C  
HETATM    2  S   UNL     1     -12.152  12.913  69.778  1.00  0.00    -0.190 SA 
HETATM    3  C   UNL     1     -11.445  13.902  68.431  1.00  0.00    -0.311 C  
HETATM    4  C   UNL     1     -11.060  13.225  67.147  1.00  0.00    -0.308 C  
HETATM    5  CA  UNL     1     -11.322   9.961  69.727  1.00  0.00    -0.193 C  
HETATM    6  CA  UNL     1     -11.089  11.899  66.914  1.00  0.00    -0.305 C  
HETATM    7  C   UNL     1     -11.083   9.723  68.210  1.00  0.00    -0.102 C  
HETATM    8  C   UNL     1     -10.756  11.371  65.547  1.00  0.00    -0.253 C  
HETATM    9  N   UNL     1     -11.370  11.011  67.935  1.00  0.00    -0.311 N  
HETATM   10  OXT UNL     1     -11.098  11.967  64.537  1.00  0.00    -0.306 OA 
HETATM   11  O   UNL     1     -10.602   8.860  67.537  1.00  0.00    -0.271 OA 
HETATM   12  O   UNL     1     -10.096  10.205  65.473  1.00  0.00    -0.289 OA 
ENDROOT
BRANCH   4  13
HETATM   13  C   UNL     1     -10.471  14.221  66.144  1.00  0.00    -0.292 C  
BRANCH  13  14
HETATM   14  O   UNL     1     -11.369  15.312  65.860  1.00  0.00    -0.292 OA 
BRANCH  14  15
HETATM   15  C   UNL     1     -11.533  15.648  64.565  1.00  0.00    -0.300 C  
HETATM   16  O   UNL     1     -11.302  16.734  64.057  1.00  0.00    -1.153 OA 
HETATM   17  N   UNL     1     -12.054  14.605  63.877  1.00  0.00    -0.920 N  
HETATM   18  H2  UNL     1     -12.288  13.697  64.280  1.00  0.00     0.000 HD 
HETATM   19  H1  UNL     1     -12.178  14.859  62.897  1.00  0.00     0.000 HD 
ENDBRANCH  14  15
ENDBRANCH  13  14
ENDBRANCH   4  13
BRANCH   5  20
HETATM   20  N   UNL     1     -10.038   9.725  70.499  1.00  0.00    -0.326 N  
HETATM   21  H   UNL     1      -9.283  10.332  70.179  1.00  0.00     0.000 HD 
HETATM   22  C   UNL     1      -9.627   8.879  71.545  1.00  0.00    -0.292 C  
HETATM   23  O   UNL     1      -8.499   9.021  71.992  1.00  0.00    -0.368 OA 
BRANCH  22  24
HETATM   24  C   UNL     1     -10.443   7.683  72.006  1.00  0.00    -0.213 C  
BRANCH  24  25
HETATM   25  C   UNL     1     -10.270   6.392  71.350  1.00  0.00    -0.199 A  
HETATM   26  O   UNL     1      -9.299   5.505  71.735  1.00  0.00    -0.142 OA 
HETATM   27  C   UNL     1     -10.802   5.963  70.139  1.00  0.00    -0.402 A  
HETATM   28  C   UNL     1      -9.148   4.607  70.721  1.00  0.00    -0.130 A  
HETATM   29  C   UNL     1     -10.043   4.854  69.709  1.00  0.00    -0.319 A  
ENDBRANCH  24  25
BRANCH  24  30
HETATM   30  N   UNL     1     -11.455   7.705  72.821  1.00  0.00    -0.523 NA 
HETATM   31  H   UNL     1     -11.401   7.115  73.650  1.00  0.00     0.000 HD 
BRANCH  30  32
HETATM   32  O   UNL     1     -12.608   8.470  72.656  1.00  0.00    -0.355 OA 
HETATM   33  C   UNL     1     -13.646   8.052  71.801  1.00  0.00    -0.348 C  
ENDBRANCH  30  32
ENDBRANCH  24  30
ENDBRANCH  22  24
ENDBRANCH   5  20
TORSDOF 8
ENDMDL
MODEL       12
REMARK 921   NORMALIZED FREE ENERGY PREDICTED BY IDOCK:   -6.60 KCAL/MOL
REMARK 922        TOTAL FREE ENERGY PREDICTED BY IDOCK:  -11.09 KCAL/MOL
REMARK 923 INTER-LIGAND FREE ENERGY PREDICTED BY IDOCK:  -10.03 KCAL/MOL
REMARK 924 INTRA-LIGAND FREE ENERGY PREDICTED BY IDOCK:   -1.06 KCAL/MOL
REMARK 927      BINDING AFFINITY PREDICTED BY RF-SCORE:    0.00 PKD
ROOT
HETATM    1  C   UNL     1     -10.547  10.539  69.523  1.00  0.00    -0.246 C  
HETATM    2  S   UNL     1     -10.208   9.724  67.986  1.00  0.00    -0.202 SA 
HETATM    3  C   UNL     1     -10.861  10.872  66.742  1.00  0.00    -0.224 C  
HETATM    4  C   UNL     1     -11.418  12.195  67.184  1.00  0.00    -0.413 C  
HETATM    5  CA  UNL     1     -11.433  10.079  70.776  1.00  0.00    -0.356 C  
HETATM    6  CA  UNL     1     -11.585  12.596  68.459  1.00  0.00    -0.323 C  
HETATM    7  C   UNL     1     -11.802  11.588  70.773  1.00  0.00    -0.070 C  
HETATM    8  C   UNL     1     -12.075  13.985  68.750  1.00  0.00    -0.303 C  
HETATM    9  N   UNL     1     -11.361  11.722  69.506  1.00  0.00    -0.263 N  
HETATM   10  OXT UNL     1     -11.723  14.937  68.070  1.00  0.00    -0.333 OA 
HETATM   11  O   UNL     1     -12.438  12.323  71.469  1.00  0.00    -0.194 OA 
HETATM   12  O   UNL     1     -12.891  14.151  69.802  1.00  0.00    -0.101 OA 
ENDROOT
BRANCH   4  13
HETATM   13  C   UNL     1     -11.931  13.012  65.995  1.00  0.00    -0.440 C  
BRANCH  13  14
HETATM   14  O   UNL     1     -12.571  12.191  64.998  1.00  0.00    -0.514 OA 
BRANCH  14  15
HETATM   15  C   UNL     1     -12.274  12.450  63.710  1.00  0.00    -0.533 C  
HETATM   16  O   UNL     1     -12.646  13.410  63.053  1.00  0.00    -0.669 OA 
HETATM   17  N   UNL     1     -11.524  11.447  63.195  1.00  0.00    -0.873 N  
HETATM   18  H2  UNL     1     -11.227  10.617  63.708  1.00  0.00     0.000 HD 
HETATM   19  H1  UNL     1     -11.300  11.643  62.219  1.00  0.00     0.000 HD 
ENDBRANCH  14  15
ENDBRANCH  13  14
ENDBRANCH   4  13
BRANCH   5  20
HETATM   20  N   UNL     1     -12.684   9.238  70.950  1.00  0.00    -0.508 N  
HETATM   21  H   UNL     1     -13.533   9.792  70.844  1.00  0.00     0.000 HD 
HETATM   22  C   UNL     1     -12.965   7.887  71.222  1.00  0.00    -0.199 C  
HETATM   23  O   UNL     1     -14.132   7.528  71.212  1.00  0.00    -0.382 OA 
BRANCH  22  24
HETATM   24  C   UNL     1     -11.910   6.909  71.716  1.00  0.00    -0.316 C  
BRANCH  24  25
HETATM   25  C   UNL     1     -11.202   6.065  70.761  1.00  0.00    -0.269 A  
HETATM   26  O   UNL     1     -10.313   5.103  71.162  1.00  0.00    -0.221 OA 
HETATM   27  C   UNL     1     -11.073   6.239  69.388  1.00  0.00    -0.477 A  
HETATM   28  C   UNL     1      -9.559   4.771  70.075  1.00  0.00    -0.190 A  
HETATM   29  C   UNL     1      -9.981   5.454  68.959  1.00  0.00    -0.260 A  
ENDBRANCH  24  25
BRANCH  24  30
HETATM   30  N   UNL     1     -11.679   6.581  72.952  1.00  0.00    -0.482 NA 
HETATM   31  H   UNL     1     -12.204   5.795  73.333  1.00  0.00     0.000 HD 
BRANCH  30  32
HETATM   32  O   UNL     1     -10.774   7.216  73.799  1.00  0.00    -0.361 OA 
HETATM   33  C   UNL     1      -9.777   6.490  74.480  1.00  0.00    -0.309 C  
ENDBRANCH  30  32
ENDBRANCH  24  30
ENDBRANCH  22  24
ENDBRANCH   5  20
TORSDOF 8
ENDMDL
MODEL       13
REMARK 921   NORMALIZED FREE ENERGY PREDICTED BY IDOCK:   -6.60 KCAL/MOL
REMARK 922        TOTAL FREE ENERGY PREDICTED BY IDOCK:  -11.08 KCAL/MOL
REMARK 923 INTER-LIGAND FREE ENERGY PREDICTED BY IDOCK:   -9.64 KCAL/MOL
REMARK 924 INTRA-LIGAND FREE ENERGY PREDICTED BY IDOCK:   -1.44 KCAL/MOL
REMARK 927      BINDING AFFINITY PREDICTED BY RF-SCORE:    0.00 PKD
ROOT
HETATM    1  C   UNL     1     -11.120  11.623  68.191  1.00  0.00    -0.242 C  
HETATM    2  S   UNL     1     -10.016  10.291  67.807  1.00  0.00    -0.181 SA 
HETATM    3  C   UNL     1     -10.186   9.173  69.226  1.00  0.00    -0.210 C  
HETATM    4  C   UNL     1     -11.188   9.495  70.298  1.00  0.00    -0.307 C  
HETATM    5  CA  UNL     1     -10.839  13.187  68.394  1.00  0.00    -0.262 C  
HETATM    6  CA  UNL     1     -11.930  10.616  70.375  1.00  0.00    -0.346 C  
HETATM    7  C   UNL     1     -11.904  12.996  69.509  1.00  0.00    -0.323 C  
HETATM    8  C   UNL     1     -12.957  10.762  71.461  1.00  0.00    -0.456 C  
HETATM    9  N   UNL     1     -11.719  11.661  69.495  1.00  0.00    -0.316 N  
HETATM   10  OXT UNL     1     -13.624   9.809  71.835  1.00  0.00    -0.381 OA 
HETATM   11  O   UNL     1     -12.490  13.704  70.273  1.00  0.00    -0.316 OA 
HETATM   12  O   UNL     1     -13.139  11.982  71.988  1.00  0.00    -0.456 OA 
ENDROOT
BRANCH   4  13
HETATM   13  C   UNL     1     -11.171   8.445  71.412  1.00  0.00    -0.261 C  
BRANCH  13  14
HETATM   14  O   UNL     1     -11.713   7.180  70.985  1.00  0.00    -0.291 OA 
BRANCH  14  15
HETATM   15  C   UNL     1     -12.355   6.444  71.914  1.00  0.00    -0.225 C  
HETATM   16  O   UNL     1     -11.884   5.535  72.579  1.00  0.00    -0.252 OA 
HETATM   17  N   UNL     1     -13.654   6.819  71.987  1.00  0.00    -0.495 N  
HETATM   18  H2  UNL     1     -14.084   7.551  71.422  1.00  0.00     0.000 HD 
HETATM   19  H1  UNL     1     -14.139   6.262  72.691  1.00  0.00     0.000 HD 
ENDBRANCH  14  15
ENDBRANCH  13  14
ENDBRANCH   4  13
BRANCH   5  20
HETATM   20  N   UNL     1      -9.675  14.005  68.920  1.00  0.00    -0.405 N  
HETATM   21  H   UNL     1      -8.861  13.425  69.123  1.00  0.00     0.000 HD 
HETATM   22  C   UNL     1      -9.438  15.364  69.200  1.00  0.00    -0.242 C  
HETATM   23  O   UNL     1      -8.315  15.693  69.549  1.00  0.00    -0.246 OA 
BRANCH  22  24
HETATM   24  C   UNL     1     -10.552  16.395  69.275  1.00  0.00    -0.311 C  
BRANCH  24  25
HETATM   25  C   UNL     1     -10.618  17.464  68.285  1.00  0.00    -0.366 A  
HETATM   26  O   UNL     1     -10.714  17.205  66.943  1.00  0.00    -0.248 OA 
HETATM   27  C   UNL     1     -10.333  18.814  68.454  1.00  0.00    -0.360 A  
HETATM   28  C   UNL     1     -10.374  18.351  66.286  1.00  0.00    -0.415 A  
HETATM   29  C   UNL     1     -10.118  19.368  67.174  1.00  0.00    -0.490 A  
ENDBRANCH  24  25
BRANCH  24  30
HETATM   30  N   UNL     1     -11.382  16.565  70.261  1.00  0.00    -0.463 NA 
HETATM   31  H   UNL     1     -12.229  17.100  70.072  1.00  0.00     0.000 HD 
BRANCH  30  32
HETATM   32  O   UNL     1     -11.210  16.077  71.554  1.00  0.00    -0.295 OA 
HETATM   33  C   UNL     1     -12.193  16.267  72.544  1.00  0.00    -0.478 C  
ENDBRANCH  30  32
ENDBRANCH  24  30
ENDBRANCH  22  24
ENDBRANCH   5  20
TORSDOF 8
ENDMDL
MODEL       14
REMARK 921   NORMALIZED FREE ENERGY PREDICTED BY IDOCK:   -6.55 KCAL/MOL
REMARK 922        TOTAL FREE ENERGY PREDICTED BY IDOCK:  -11.01 KCAL/MOL
REMARK 923 INTER-LIGAND FREE ENERGY PREDICTED BY IDOCK:  -10.06 KCAL/MOL
REMARK 924 INTRA-LIGAND FREE ENERGY PREDICTED BY IDOCK:   -0.95 KCAL/MOL
REMARK 927      BINDING AFFINITY PREDICTED BY RF-SCORE:    0.00 PKD
ROOT
HETATM    1  C   UNL     1     -11.784  14.350  68.551  1.00  0.00    -0.335 C  
HETATM    2  S   UNL     1     -11.301  15.611  69.699  1.00  0.00    -0.361 SA 
HETATM    3  C   UNL     1     -10.550  16.883  68.644  1.00  0.00    -0.360 C  
HETATM    4  C   UNL     1     -10.560  16.700  67.153  1.00  0.00    -0.264 C  
HETATM    5  CA  UNL     1     -11.344  12.814  68.443  1.00  0.00    -0.295 C  
HETATM    6  CA  UNL     1     -10.991  15.607  66.495  1.00  0.00    -0.206 C  
HETATM    7  C   UNL     1     -11.404  13.146  66.926  1.00  0.00    -0.318 C  
HETATM    8  C   UNL     1     -11.022  15.601  64.993  1.00  0.00    -0.431 C  
HETATM    9  N   UNL     1     -11.357  14.468  67.186  1.00  0.00    -0.337 N  
HETATM   10  OXT UNL     1     -11.326  16.601  64.361  1.00  0.00    -1.023 OA 
HETATM   11  O   UNL     1     -11.286  12.537  65.904  1.00  0.00    -0.308 OA 
HETATM   12  O   UNL     1     -10.731  14.450  64.368  1.00  0.00    -0.296 OA 
ENDROOT
BRANCH   4  13
HETATM   13  C   UNL     1      -9.869  17.867  66.442  1.00  0.00    -0.337 C  
BRANCH  13  14
HETATM   14  O   UNL     1      -9.114  18.694  67.348  1.00  0.00    -0.276 OA 
BRANCH  14  15
HETATM   15  C   UNL     1      -8.768  19.921  66.912  1.00  0.00    -0.340 C  
HETATM   16  O   UNL     1      -7.867  20.624  67.344  1.00  0.00    -0.331 OA 
HETATM   17  N   UNL     1      -9.608  20.318  65.927  1.00  0.00    -0.620 N  
HETATM   18  H2  UNL     1     -10.388  19.768  65.568  1.00  0.00     0.000 HD 
HETATM   19  H1  UNL     1      -9.345  21.247  65.597  1.00  0.00     0.000 HD 
ENDBRANCH  14  15
ENDBRANCH  13  14
ENDBRANCH   4  13
BRANCH   5  20
HETATM   20  N   UNL     1     -10.078  12.038  68.756  1.00  0.00    -0.381 N  
HETATM   21  H   UNL     1      -9.239  12.566  68.517  1.00  0.00     0.000 HD 
HETATM   22  C   UNL     1      -9.773  10.774  69.292  1.00  0.00    -0.120 C  
HETATM   23  O   UNL     1      -8.599  10.499  69.486  1.00  0.00    -0.131 OA 
BRANCH  22  24
HETATM   24  C   UNL     1     -10.811   9.675  69.454  1.00  0.00    -0.217 C  
BRANCH  24  25
HETATM   25  C   UNL     1     -11.592   9.592  70.682  1.00  0.00    -0.283 A  
HETATM   26  O   UNL     1     -11.813   8.401  71.323  1.00  0.00    -0.281 OA 
HETATM   27  C   UNL     1     -12.432  10.552  71.235  1.00  0.00    -0.524 A  
HETATM   28  C   UNL     1     -12.857   8.592  72.179  1.00  0.00    -0.369 A  
HETATM   29  C   UNL     1     -13.282   9.898  72.152  1.00  0.00    -0.511 A  
ENDBRANCH  24  25
BRANCH  24  30
HETATM   30  N   UNL     1     -10.969   8.643  68.680  1.00  0.00    -0.439 NA 
HETATM   31  H   UNL     1     -11.104   7.738  69.130  1.00  0.00     0.000 HD 
BRANCH  30  32
HETATM   32  O   UNL     1     -10.971   8.670  67.288  1.00  0.00    -0.114 OA 
HETATM   33  C   UNL     1      -9.853   8.240  66.547  1.00  0.00    -0.253 C  
ENDBRANCH  30  32
ENDBRANCH  24  30
ENDBRANCH  22  24
ENDBRANCH   5  20
TORSDOF 8
ENDMDL
MODEL       15
REMARK 921   NORMALIZED FREE ENERGY PREDICTED BY IDOCK:   -6.54 KCAL/MOL
REMARK 922        TOTAL FREE ENERGY PREDICTED BY IDOCK:  -10.99 KCAL/MOL
REMARK 923 INTER-LIGAND FREE ENERGY PREDICTED BY IDOCK:   -9.63 KCAL/MOL
REMARK 924 INTRA-LIGAND FREE ENERGY PREDICTED BY IDOCK:   -1.36 KCAL/MOL
REMARK 927      BINDING AFFINITY PREDICTED BY RF-SCORE:    0.00 PKD
ROOT
HETATM    1  C   UNL     1     -11.406  14.593  68.007  1.00  0.00    -0.311 C  
HETATM    2  S   UNL     1     -10.084  14.858  69.158  1.00  0.00    -0.201 SA 
HETATM    3  C   UNL     1      -9.064  16.123  68.351  1.00  0.00    -0.199 C  
HETATM    4  C   UNL     1      -9.523  16.716  67.050  1.00  0.00    -0.239 C  
HETATM    5  CA  UNL     1     -11.860  13.269  67.227  1.00  0.00    -0.372 C  
HETATM    6  CA  UNL     1     -10.598  16.326  66.339  1.00  0.00    -0.253 C  
HETATM    7  C   UNL     1     -12.102  14.302  66.091  1.00  0.00    -0.406 C  
HETATM    8  C   UNL     1     -10.985  17.072  65.094  1.00  0.00    -0.010 C  
HETATM    9  N   UNL     1     -11.321  15.208  66.713  1.00  0.00    -0.296 N  
HETATM   10  OXT UNL     1     -10.872  18.286  65.022  1.00  0.00    -0.679 OA 
HETATM   11  O   UNL     1     -12.562  14.281  64.988  1.00  0.00    -0.550 OA 
HETATM   12  O   UNL     1     -11.488  16.363  64.072  1.00  0.00    -1.048 OA 
ENDROOT
BRANCH   4  13
HETATM   13  C   UNL     1      -8.523  17.750  66.523  1.00  0.00    -0.260 C  
BRANCH  13  14
HETATM   14  O   UNL     1      -8.300  18.825  67.456  1.00  0.00    -0.262 OA 
BRANCH  14  15
HETATM   15  C   UNL     1      -9.181  19.844  67.438  1.00  0.00    -0.351 C  
HETATM   16  O   UNL     1      -9.997  20.120  68.303  1.00  0.00    -0.384 OA 
HETATM   17  N   UNL     1      -9.081  20.523  66.271  1.00  0.00    -0.593 N  
HETATM   18  H2  UNL     1      -8.434  20.297  65.516  1.00  0.00     0.000 HD 
HETATM   19  H1  UNL     1      -9.749  21.295  66.257  1.00  0.00     0.000 HD 
ENDBRANCH  14  15
ENDBRANCH  13  14
ENDBRANCH   4  13
BRANCH   5  20
HETATM   20  N   UNL     1     -11.143  12.051  66.678  1.00  0.00    -0.294 N  
HETATM   21  H   UNL     1     -10.925  12.151  65.686  1.00  0.00     0.000 HD 
HETATM   22  C   UNL     1     -10.702  10.818  67.193  1.00  0.00    -0.272 C  
HETATM   23  O   UNL     1     -10.063  10.082  66.458  1.00  0.00    -0.214 OA 
BRANCH  22  24
HETATM   24  C   UNL     1     -11.149  10.283  68.544  1.00  0.00    -0.242 C  
BRANCH  24  25
HETATM   25  C   UNL     1     -10.243   9.455  69.331  1.00  0.00    -0.207 A  
HETATM   26  O   UNL     1     -10.624   8.240  69.837  1.00  0.00    -0.227 OA 
HETATM   27  C   UNL     1      -9.036   9.818  69.918  1.00  0.00    -0.257 A  
HETATM   28  C   UNL     1      -9.729   7.910  70.811  1.00  0.00    -0.172 A  
HETATM   29  C   UNL     1      -8.738   8.857  70.908  1.00  0.00    -0.256 A  
ENDBRANCH  24  25
BRANCH  24  30
HETATM   30  N   UNL     1     -12.356  10.316  69.027  1.00  0.00    -0.479 NA 
HETATM   31  H   UNL     1     -13.115  10.031  68.409  1.00  0.00     0.000 HD 
BRANCH  30  32
HETATM   32  O   UNL     1     -12.697  10.708  70.319  1.00  0.00    -0.319 OA 
HETATM   33  C   UNL     1     -12.489  12.028  70.762  1.00  0.00    -0.279 C  
ENDBRANCH  30  32
ENDBRANCH  24  30
ENDBRANCH  22  24
ENDBRANCH   5  20
TORSDOF 8
ENDMDL
MODEL       16
REMARK 921   NORMALIZED FREE ENERGY PREDICTED BY IDOCK:   -6.50 KCAL/MOL
REMARK 922        TOTAL FREE ENERGY PREDICTED BY IDOCK:  -10.94 KCAL/MOL
REMARK 923 INTER-LIGAND FREE ENERGY PREDICTED BY IDOCK:   -8.85 KCAL/MOL
REMARK 924 INTRA-LIGAND FREE ENERGY PREDICTED BY IDOCK:   -2.09 KCAL/MOL
REMARK 927      BINDING AFFINITY PREDICTED BY RF-SCORE:    0.00 PKD
ROOT
HETATM    1  C   UNL     1     -11.893  14.750  68.727  1.00  0.00    -0.296 C  
HETATM    2  S   UNL     1     -11.055  16.020  69.636  1.00  0.00    -0.349 SA 
HETATM    3  C   UNL     1     -10.221  16.987  68.347  1.00  0.00    -0.331 C  
HETATM    4  C   UNL     1     -10.444  16.634  66.904  1.00  0.00    -0.271 C  
HETATM    5  CA  UNL     1     -11.753  13.156  68.791  1.00  0.00    -0.324 C  
HETATM    6  CA  UNL     1     -11.142  15.576  66.448  1.00  0.00    -0.174 C  
HETATM    7  C   UNL     1     -11.936  13.310  67.256  1.00  0.00    -0.343 C  
HETATM    8  C   UNL     1     -11.355  15.398  64.972  1.00  0.00    -0.333 C  
HETATM    9  N   UNL     1     -11.621  14.620  67.324  1.00  0.00    -0.379 N  
HETATM   10  OXT UNL     1     -11.548  16.356  64.240  1.00  0.00    -0.818 OA 
HETATM   11  O   UNL     1     -12.054  12.574  66.322  1.00  0.00    -0.574 OA 
HETATM   12  O   UNL     1     -11.354  14.147  64.488  1.00  0.00    -0.372 OA 
ENDROOT
BRANCH   4  13
HETATM   13  C   UNL     1      -9.646  17.552  65.974  1.00  0.00    -0.102 C  
BRANCH  13  14
HETATM   14  O   UNL     1     -10.135  18.907  65.985  1.00  0.00    -0.447 OA 
BRANCH  14  15
HETATM   15  C   UNL     1      -9.237  19.879  66.241  1.00  0.00    -0.373 C  
HETATM   16  O   UNL     1      -8.085  19.935  65.840  1.00  0.00    -0.356 OA 
HETATM   17  N   UNL     1      -9.775  20.800  67.076  1.00  0.00    -0.659 N  
HETATM   18  H2  UNL     1     -10.722  20.763  67.454  1.00  0.00     0.000 HD 
HETATM   19  H1  UNL     1      -9.096  21.535  67.270  1.00  0.00     0.000 HD 
ENDBRANCH  14  15
ENDBRANCH  13  14
ENDBRANCH   4  13
BRANCH   5  20
HETATM   20  N   UNL     1     -10.620  12.192  69.086  1.00  0.00    -0.427 N  
HETATM   21  H   UNL     1     -10.812  11.615  69.904  1.00  0.00     0.000 HD 
HETATM   22  C   UNL     1      -9.369  11.895  68.512  1.00  0.00    -0.140 C  
HETATM   23  O   UNL     1      -8.727  10.966  68.979  1.00  0.00    -0.159 OA 
BRANCH  22  24
HETATM   24  C   UNL     1      -8.703  12.790  67.481  1.00  0.00    -0.185 C  
BRANCH  24  25
HETATM   25  C   UNL     1      -8.067  14.032  67.902  1.00  0.00    -0.156 A  
HETATM   26  O   UNL     1      -7.529  14.914  67.002  1.00  0.00    -0.145 OA 
HETATM   27  C   UNL     1      -7.655  14.400  69.178  1.00  0.00    -0.072 A  
HETATM   28  C   UNL     1      -6.700  15.744  67.697  1.00  0.00    -0.172 A  
HETATM   29  C   UNL     1      -6.733  15.459  69.040  1.00  0.00    -0.128 A  
ENDBRANCH  24  25
BRANCH  24  30
HETATM   30  N   UNL     1      -8.792  12.678  66.188  1.00  0.00    -0.417 NA 
HETATM   31  H   UNL     1      -8.624  13.517  65.634  1.00  0.00     0.000 HD 
BRANCH  30  32
HETATM   32  O   UNL     1      -9.098  11.507  65.499  1.00  0.00    -0.187 OA 
HETATM   33  C   UNL     1      -8.210  10.414  65.483  1.00  0.00    -0.162 C  
ENDBRANCH  30  32
ENDBRANCH  24  30
ENDBRANCH  22  24
ENDBRANCH   5  20
TORSDOF 8
ENDMDL
MODEL       17
REMARK 921   NORMALIZED FREE ENERGY PREDICTED BY IDOCK:   -6.50 KCAL/MOL
REMARK 922        TOTAL FREE ENERGY PREDICTED BY IDOCK:  -10.93 KCAL/MOL
REMARK 923 INTER-LIGAND FREE ENERGY PREDICTED BY IDOCK:   -9.94 KCAL/MOL
REMARK 924 INTRA-LIGAND FREE ENERGY PREDICTED BY IDOCK:   -0.99 KCAL/MOL
REMARK 927      BINDING AFFINITY PREDICTED BY RF-SCORE:    0.00 PKD
ROOT
HETATM    1  C   UNL     1     -11.842  13.854  68.505  1.00  0.00    -0.366 C  
HETATM    2  S   UNL     1     -11.493  15.132  69.682  1.00  0.00    -0.317 SA 
HETATM    3  C   UNL     1     -10.735  16.440  68.678  1.00  0.00    -0.317 C  
HETATM    4  C   UNL     1     -10.641  16.262  67.190  1.00  0.00    -0.291 C  
HETATM    5  CA  UNL     1     -11.325  12.340  68.425  1.00  0.00    -0.292 C  
HETATM    6  CA  UNL     1     -10.978  15.153  66.504  1.00  0.00    -0.318 C  
HETATM    7  C   UNL     1     -11.303  12.673  66.907  1.00  0.00    -0.320 C  
HETATM    8  C   UNL     1     -10.911  15.150  65.003  1.00  0.00    -0.440 C  
HETATM    9  N   UNL     1     -11.334  13.995  67.170  1.00  0.00    -0.316 N  
HETATM   10  OXT UNL     1     -11.220  16.137  64.354  1.00  0.00    -0.605 OA 
HETATM   11  O   UNL     1     -11.091  12.074  65.895  1.00  0.00    -0.301 OA 
HETATM   12  O   UNL     1     -10.527  14.016  64.398  1.00  0.00    -0.368 OA 
ENDROOT
BRANCH   4  13
HETATM   13  C   UNL     1      -9.961  17.462  66.525  1.00  0.00    -0.311 C  
BRANCH  13  14
HETATM   14  O   UNL     1     -10.681  18.691  66.738  1.00  0.00    -0.385 OA 
BRANCH  14  15
HETATM   15  C   UNL     1      -9.960  19.765  67.117  1.00  0.00    -0.409 C  
HETATM   16  O   UNL     1      -9.786  20.162  68.259  1.00  0.00    -0.355 OA 
HETATM   17  N   UNL     1      -9.473  20.406  66.029  1.00  0.00    -0.651 N  
HETATM   18  H2  UNL     1      -9.629  20.118  65.063  1.00  0.00     0.000 HD 
HETATM   19  H1  UNL     1      -8.928  21.218  66.316  1.00  0.00     0.000 HD 
ENDBRANCH  14  15
ENDBRANCH  13  14
ENDBRANCH   4  13
BRANCH   5  20
HETATM   20  N   UNL     1     -10.048  11.623  68.819  1.00  0.00    -0.327 N  
HETATM   21  H   UNL     1      -9.218  12.173  68.599  1.00  0.00     0.000 HD 
HETATM   22  C   UNL     1      -9.721  10.389  69.411  1.00  0.00    -0.200 C  
HETATM   23  O   UNL     1      -8.548  10.164  69.665  1.00  0.00    -0.176 OA 
BRANCH  22  24
HETATM   24  C   UNL     1     -10.725   9.258  69.566  1.00  0.00    -0.222 C  
BRANCH  24  25
HETATM   25  C   UNL     1     -10.583   8.048  68.764  1.00  0.00    -0.118 A  
HETATM   26  O   UNL     1     -10.600   8.078  67.395  1.00  0.00    -0.282 OA 
HETATM   27  C   UNL     1     -10.688   6.725  69.177  1.00  0.00    -0.287 A  
HETATM   28  C   UNL     1     -10.831   6.804  66.966  1.00  0.00    -0.383 A  
HETATM   29  C   UNL     1     -10.906   5.936  68.028  1.00  0.00    -0.321 A  
ENDBRANCH  24  25
BRANCH  24  30
HETATM   30  N   UNL     1     -11.851   9.308  70.214  1.00  0.00    -0.469 NA 
HETATM   31  H   UNL     1     -12.654   8.842  69.794  1.00  0.00     0.000 HD 
BRANCH  30  32
HETATM   32  O   UNL     1     -12.050   9.945  71.436  1.00  0.00    -0.360 OA 
HETATM   33  C   UNL     1     -13.090  10.878  71.613  1.00  0.00    -0.433 C  
ENDBRANCH  30  32
ENDBRANCH  24  30
ENDBRANCH  22  24
ENDBRANCH   5  20
TORSDOF 8
ENDMDL
MODEL       18
REMARK 921   NORMALIZED FREE ENERGY PREDICTED BY IDOCK:   -6.47 KCAL/MOL
REMARK 922        TOTAL FREE ENERGY PREDICTED BY IDOCK:  -10.90 KCAL/MOL
REMARK 923 INTER-LIGAND FREE ENERGY PREDICTED BY IDOCK:   -9.71 KCAL/MOL
REMARK 924 INTRA-LIGAND FREE ENERGY PREDICTED BY IDOCK:   -1.19 KCAL/MOL
REMARK 927      BINDING AFFINITY PREDICTED BY RF-SCORE:    0.00 PKD
ROOT
HETATM    1  C   UNL     1     -11.878  12.372  67.998  1.00  0.00    -0.316 C  
HETATM    2  S   UNL     1     -10.813  11.105  67.364  1.00  0.00    -0.283 SA 
HETATM    3  C   UNL     1     -10.600   9.983  68.774  1.00  0.00    -0.217 C  
HETATM    4  C   UNL     1     -11.354  10.249  70.045  1.00  0.00    -0.370 C  
HETATM    5  CA  UNL     1     -11.648  13.950  68.150  1.00  0.00    -0.335 C  
HETATM    6  CA  UNL     1     -12.123  11.326  70.297  1.00  0.00    -0.373 C  
HETATM    7  C   UNL     1     -12.425  13.701  69.472  1.00  0.00    -0.043 C  
HETATM    8  C   UNL     1     -12.889  11.415  71.586  1.00  0.00    -0.391 C  
HETATM    9  N   UNL     1     -12.173  12.379  69.403  1.00  0.00    -0.146 N  
HETATM   10  OXT UNL     1     -13.401  10.426  72.089  1.00  0.00    -0.441 OA 
HETATM   11  O   UNL     1     -12.865  14.376  70.355  1.00  0.00    -0.350 OA 
HETATM   12  O   UNL     1     -13.018  12.624  72.153  1.00  0.00    -0.328 OA 
ENDROOT
BRANCH   4  13
HETATM   13  C   UNL     1     -11.030   9.204  71.117  1.00  0.00    -0.320 C  
BRANCH  13  14
HETATM   14  O   UNL     1     -11.198   7.855  70.639  1.00  0.00    -0.262 OA 
BRANCH  14  15
HETATM   15  C   UNL     1     -12.099   7.086  71.282  1.00  0.00    -0.361 C  
HETATM   16  O   UNL     1     -11.861   6.125  71.996  1.00  0.00    -0.318 OA 
HETATM   17  N   UNL     1     -13.355   7.495  70.985  1.00  0.00    -0.601 N  
HETATM   18  H2  UNL     1     -13.585   8.273  70.366  1.00  0.00     0.000 HD 
HETATM   19  H1  UNL     1     -14.036   6.913  71.472  1.00  0.00     0.000 HD 
ENDBRANCH  14  15
ENDBRANCH  13  14
ENDBRANCH   4  13
BRANCH   5  20
HETATM   20  N   UNL     1     -10.444  14.835  68.413  1.00  0.00    -0.238 N  
HETATM   21  H   UNL     1     -10.133  14.778  69.382  1.00  0.00     0.000 HD 
HETATM   22  C   UNL     1      -9.651  15.716  67.655  1.00  0.00    -0.220 C  
HETATM   23  O   UNL     1      -8.674  16.217  68.190  1.00  0.00    -0.176 OA 
BRANCH  22  24
HETATM   24  C   UNL     1     -10.060  16.217  66.280  1.00  0.00    -0.321 C  
BRANCH  24  25
HETATM   25  C   UNL     1     -10.612  15.285  65.303  1.00  0.00    -0.417 A  
HETATM   26  O   UNL     1     -11.866  15.444  64.775  1.00  0.00    -0.280 OA 
HETATM   27  C   UNL     1     -10.149  14.018  64.965  1.00  0.00    -0.323 A  
HETATM   28  C   UNL     1     -12.224  14.251  64.220  1.00  0.00    -0.423 A  
HETATM   29  C   UNL     1     -11.205  13.336  64.323  1.00  0.00    -0.417 A  
ENDBRANCH  24  25
BRANCH  24  30
HETATM   30  N   UNL     1      -9.798  17.385  65.774  1.00  0.00    -0.555 NA 
HETATM   31  H   UNL     1      -9.000  17.453  65.143  1.00  0.00     0.000 HD 
BRANCH  30  32
HETATM   32  O   UNL     1     -10.517  18.552  66.022  1.00  0.00    -0.446 OA 
HETATM   33  C   UNL     1     -10.408  19.230  67.252  1.00  0.00    -0.436 C  
ENDBRANCH  30  32
ENDBRANCH  24  30
ENDBRANCH  22  24
ENDBRANCH   5  20
TORSDOF 8
ENDMDL
MODEL       19
REMARK 921   NORMALIZED FREE ENERGY PREDICTED BY IDOCK:   -6.43 KCAL/MOL
REMARK 922        TOTAL FREE ENERGY PREDICTED BY IDOCK:  -10.83 KCAL/MOL
REMARK 923 INTER-LIGAND FREE ENERGY PREDICTED BY IDOCK:   -9.83 KCAL/MOL
REMARK 924 INTRA-LIGAND FREE ENERGY PREDICTED BY IDOCK:   -1.01 KCAL/MOL
REMARK 927      BINDING AFFINITY PREDICTED BY RF-SCORE:    0.00 PKD
ROOT
HETATM    1  C   UNL     1     -11.736  14.056  68.408  1.00  0.00    -0.354 C  
HETATM    2  S   UNL     1     -11.554  12.393  67.821  1.00  0.00    -0.354 SA 
HETATM    3  C   UNL     1     -12.006  11.382  69.257  1.00  0.00    -0.332 C  
HETATM    4  C   UNL     1     -12.490  12.058  70.508  1.00  0.00    -0.292 C  
HETATM    5  CA  UNL     1     -10.666  15.242  68.530  1.00  0.00    -0.247 C  
HETATM    6  CA  UNL     1     -12.530  13.387  70.723  1.00  0.00    -0.341 C  
HETATM    7  C   UNL     1     -11.456  15.505  69.842  1.00  0.00    -0.327 C  
HETATM    8  C   UNL     1     -13.122  13.924  71.995  1.00  0.00    -0.393 C  
HETATM    9  N   UNL     1     -11.982  14.265  69.806  1.00  0.00    -0.319 N  
HETATM   10  OXT UNL     1     -14.100  13.401  72.509  1.00  0.00    -0.726 OA 
HETATM   11  O   UNL     1     -11.449  16.335  70.702  1.00  0.00    -0.377 OA 
HETATM   12  O   UNL     1     -12.558  15.015  72.534  1.00  0.00    -0.324 OA 
ENDROOT
BRANCH   4  13
HETATM   13  C   UNL     1     -12.807  11.040  71.608  1.00  0.00    -0.435 C  
BRANCH  13  14
HETATM   14  O   UNL     1     -11.837   9.976  71.669  1.00  0.00    -0.365 OA 
BRANCH  14  15
HETATM   15  C   UNL     1     -12.309   8.728  71.852  1.00  0.00    -0.363 C  
HETATM   16  O   UNL     1     -11.770   7.826  72.474  1.00  0.00    -0.344 OA 
HETATM   17  N   UNL     1     -13.481   8.573  71.191  1.00  0.00    -0.546 N  
HETATM   18  H2  UNL     1     -13.939   9.296  70.637  1.00  0.00     0.000 HD 
HETATM   19  H1  UNL     1     -13.838   7.628  71.330  1.00  0.00     0.000 HD 
ENDBRANCH  14  15
ENDBRANCH  13  14
ENDBRANCH   4  13
BRANCH   5  20
HETATM   20  N   UNL     1      -9.175  15.315  68.797  1.00  0.00    -0.192 N  
HETATM   21  H   UNL     1      -8.796  14.416  69.094  1.00  0.00     0.000 HD 
HETATM   22  C   UNL     1      -8.184  16.313  68.739  1.00  0.00    -0.227 C  
HETATM   23  O   UNL     1      -7.026  15.987  68.950  1.00  0.00    -0.129 OA 
BRANCH  22  24
HETATM   24  C   UNL     1      -8.511  17.792  68.619  1.00  0.00    -0.269 C  
BRANCH  24  25
HETATM   25  C   UNL     1      -7.432  18.764  68.486  1.00  0.00    -0.300 A  
HETATM   26  O   UNL     1      -7.020  19.541  69.536  1.00  0.00    -0.331 OA 
HETATM   27  C   UNL     1      -6.860  19.261  67.320  1.00  0.00    -0.210 A  
HETATM   28  C   UNL     1      -6.300  20.575  69.015  1.00  0.00    -0.242 A  
HETATM   29  C   UNL     1      -6.184  20.454  67.651  1.00  0.00    -0.277 A  
ENDBRANCH  24  25
BRANCH  24  30
HETATM   30  N   UNL     1      -9.670  18.346  68.817  1.00  0.00    -0.355 NA 
HETATM   31  H   UNL     1     -10.316  17.867  69.444  1.00  0.00     0.000 HD 
BRANCH  30  32
HETATM   32  O   UNL     1     -10.104  19.538  68.242  1.00  0.00    -0.390 OA 
HETATM   33  C   UNL     1     -10.675  19.563  66.955  1.00  0.00    -0.464 C  
ENDBRANCH  30  32
ENDBRANCH  24  30
ENDBRANCH  22  24
ENDBRANCH   5  20
TORSDOF 8
ENDMDL
MODEL       20
REMARK 921   NORMALIZED FREE ENERGY PREDICTED BY IDOCK:   -6.40 KCAL/MOL
REMARK 922        TOTAL FREE ENERGY PREDICTED BY IDOCK:  -10.79 KCAL/MOL
REMARK 923 INTER-LIGAND FREE ENERGY PREDICTED BY IDOCK:   -9.52 KCAL/MOL
REMARK 924 INTRA-LIGAND FREE ENERGY PREDICTED BY IDOCK:   -1.27 KCAL/MOL
REMARK 927      BINDING AFFINITY PREDICTED BY RF-SCORE:    0.00 PKD
ROOT
HETATM    1  C   UNL     1     -11.165  14.872  66.806  1.00  0.00    -0.338 C  
HETATM    2  S   UNL     1     -11.185  13.151  66.384  1.00  0.00    -0.310 SA 
HETATM    3  C   UNL     1     -11.542  12.330  67.963  1.00  0.00    -0.349 C  
HETATM    4  C   UNL     1     -11.820  13.166  69.179  1.00  0.00    -0.364 C  
HETATM    5  CA  UNL     1      -9.999  15.964  66.682  1.00  0.00    -0.257 C  
HETATM    6  CA  UNL     1     -11.730  14.508  69.252  1.00  0.00    -0.310 C  
HETATM    7  C   UNL     1     -10.605  16.424  68.037  1.00  0.00    -0.314 C  
HETATM    8  C   UNL     1     -12.123  15.218  70.517  1.00  0.00    -0.354 C  
HETATM    9  N   UNL     1     -11.227  15.238  68.192  1.00  0.00    -0.311 N  
HETATM   10  OXT UNL     1     -13.071  14.838  71.188  1.00  0.00    -0.343 OA 
HETATM   11  O   UNL     1     -10.431  17.330  68.796  1.00  0.00    -0.333 OA 
HETATM   12  O   UNL     1     -11.415  16.301  70.870  1.00  0.00    -0.406 OA 
ENDROOT
BRANCH   4  13
HETATM   13  C   UNL     1     -12.083  12.294  70.409  1.00  0.00    -0.300 C  
BRANCH  13  14
HETATM   14  O   UNL     1     -11.458  10.999  70.310  1.00  0.00    -0.301 OA 
BRANCH  14  15
HETATM   15  C   UNL     1     -11.954  10.019  71.090  1.00  0.00    -0.392 C  
HETATM   16  O   UNL     1     -11.385   9.464  72.017  1.00  0.00    -0.313 OA 
HETATM   17  N   UNL     1     -13.195   9.674  70.671  1.00  0.00    -0.581 N  
HETATM   18  H2  UNL     1     -13.683  10.096  69.881  1.00  0.00     0.000 HD 
HETATM   19  H1  UNL     1     -13.570   8.932  71.262  1.00  0.00     0.000 HD 
ENDBRANCH  14  15
ENDBRANCH  13  14
ENDBRANCH   4  13
BRANCH   5  20
HETATM   20  N   UNL     1      -8.485  15.928  66.774  1.00  0.00    -0.235 N  
HETATM   21  H   UNL     1      -8.137  14.989  66.970  1.00  0.00     0.000 HD 
HETATM   22  C   UNL     1      -7.442  16.865  66.658  1.00  0.00    -0.268 C  
HETATM   23  O   UNL     1      -6.292  16.456  66.711  1.00  0.00    -0.280 OA 
BRANCH  22  24
HETATM   24  C   UNL     1      -7.678  18.366  66.666  1.00  0.00    -0.235 C  
BRANCH  24  25
HETATM   25  C   UNL     1      -7.219  19.166  67.795  1.00  0.00    -0.240 A  
HETATM   26  O   UNL     1      -6.424  20.269  67.629  1.00  0.00    -0.221 OA 
HETATM   27  C   UNL     1      -7.245  18.841  69.147  1.00  0.00    -0.253 A  
HETATM   28  C   UNL     1      -5.869  20.552  68.842  1.00  0.00    -0.341 A  
HETATM   29  C   UNL     1      -6.333  19.693  69.807  1.00  0.00    -0.366 A  
ENDBRANCH  24  25
BRANCH  24  30
HETATM   30  N   UNL     1      -8.434  19.033  65.846  1.00  0.00    -0.439 NA 
HETATM   31  H   UNL     1      -8.301  18.870  64.849  1.00  0.00     0.000 HD 
BRANCH  30  32
HETATM   32  O   UNL     1      -9.412  19.953  66.217  1.00  0.00    -0.386 OA 
HETATM   33  C   UNL     1     -10.761  19.773  65.853  1.00  0.00    -0.383 C  
ENDBRANCH  30  32
ENDBRANCH  24  30
ENDBRANCH  22  24
ENDBRANCH   5  20
TORSDOF 8
ENDMDL
MODEL       21
REMARK 921   NORMALIZED FREE ENERGY PREDICTED BY IDOCK:   -6.40 KCAL/MOL
REMARK 922        TOTAL FREE ENERGY PREDICTED BY IDOCK:  -10.79 KCAL/MOL
REMARK 923 INTER-LIGAND FREE ENERGY PREDICTED BY IDOCK:   -9.66 KCAL/MOL
REMARK 924 INTRA-LIGAND FREE ENERGY PREDICTED BY IDOCK:   -1.13 KCAL/MOL
REMARK 927      BINDING AFFINITY PREDICTED BY RF-SCORE:    0.00 PKD
ROOT
HETATM    1  C   UNL     1      -9.460  15.248  68.339  1.00  0.00    -0.206 C  
HETATM    2  S   UNL     1     -11.101  15.872  68.090  1.00  0.00    -0.327 SA 
HETATM    3  C   UNL     1     -11.922  14.551  67.155  1.00  0.00    -0.345 C  
HETATM    4  C   UNL     1     -11.178  13.276  66.878  1.00  0.00    -0.332 C  
HETATM    5  CA  UNL     1      -8.041  15.832  67.881  1.00  0.00    -0.141 C  
HETATM    6  CA  UNL     1      -9.886  13.036  67.171  1.00  0.00    -0.230 C  
HETATM    7  C   UNL     1      -7.756  14.322  67.649  1.00  0.00    -0.177 C  
HETATM    8  C   UNL     1      -9.298  11.678  66.912  1.00  0.00    -0.188 C  
HETATM    9  N   UNL     1      -9.076  14.044  67.659  1.00  0.00    -0.184 N  
HETATM   10  OXT UNL     1      -9.950  10.661  67.093  1.00  0.00    -0.184 OA 
HETATM   11  O   UNL     1      -6.812  13.660  67.335  1.00  0.00    -0.169 OA 
HETATM   12  O   UNL     1      -8.022  11.618  66.503  1.00  0.00    -0.141 OA 
ENDROOT
BRANCH   4  13
HETATM   13  C   UNL     1     -12.031  12.296  66.068  1.00  0.00    -0.269 C  
BRANCH  13  14
HETATM   14  O   UNL     1     -12.934  12.967  65.167  1.00  0.00    -0.758 OA 
BRANCH  14  15
HETATM   15  C   UNL     1     -12.719  12.799  63.848  1.00  0.00    -0.194 C  
HETATM   16  O   UNL     1     -12.820  11.758  63.217  1.00  0.00    -0.627 OA 
HETATM   17  N   UNL     1     -12.310  13.964  63.292  1.00  0.00    -1.148 N  
HETATM   18  H2  UNL     1     -12.184  14.840  63.799  1.00  0.00     0.000 HD 
HETATM   19  H1  UNL     1     -12.147  13.837  62.293  1.00  0.00     0.000 HD 
ENDBRANCH  14  15
ENDBRANCH  13  14
ENDBRANCH   4  13
BRANCH   5  20
HETATM   20  N   UNL     1      -7.549  16.641  66.696  1.00  0.00    -0.252 N  
HETATM   21  H   UNL     1      -7.107  16.054  65.989  1.00  0.00     0.000 HD 
HETATM   22  C   UNL     1      -7.549  18.000  66.328  1.00  0.00    -0.271 C  
HETATM   23  O   UNL     1      -7.124  18.297  65.222  1.00  0.00    -0.516 OA 
BRANCH  22  24
HETATM   24  C   UNL     1      -7.866  19.118  67.307  1.00  0.00    -0.253 C  
BRANCH  24  25
HETATM   25  C   UNL     1      -6.853  19.556  68.260  1.00  0.00    -0.285 A  
HETATM   26  O   UNL     1      -6.849  19.132  69.562  1.00  0.00    -0.286 OA 
HETATM   27  C   UNL     1      -5.954  20.610  68.137  1.00  0.00    -0.339 A  
HETATM   28  C   UNL     1      -6.049  19.986  70.263  1.00  0.00    -0.347 A  
HETATM   29  C   UNL     1      -5.485  20.923  69.431  1.00  0.00    -0.411 A  
ENDBRANCH  24  25
BRANCH  24  30
HETATM   30  N   UNL     1      -9.038  19.632  67.540  1.00  0.00    -0.311 NA 
HETATM   31  H   UNL     1      -9.080  20.432  68.170  1.00  0.00     0.000 HD 
BRANCH  30  32
HETATM   32  O   UNL     1     -10.239  19.179  67.001  1.00  0.00    -0.342 OA 
HETATM   33  C   UNL     1     -10.660  19.577  65.717  1.00  0.00    -0.427 C  
ENDBRANCH  30  32
ENDBRANCH  24  30
ENDBRANCH  22  24
ENDBRANCH   5  20
TORSDOF 8
ENDMDL
MODEL       22
REMARK 921   NORMALIZED FREE ENERGY PREDICTED BY IDOCK:   -6.36 KCAL/MOL
REMARK 922        TOTAL FREE ENERGY PREDICTED BY IDOCK:  -10.73 KCAL/MOL
REMARK 923 INTER-LIGAND FREE ENERGY PREDICTED BY IDOCK:   -9.28 KCAL/MOL
REMARK 924 INTRA-LIGAND FREE ENERGY PREDICTED BY IDOCK:   -1.45 KCAL/MOL
REMARK 927      BINDING AFFINITY PREDICTED BY RF-SCORE:    0.00 PKD
ROOT
HETATM    1  C   UNL     1     -10.868  11.975  65.284  1.00  0.00    -0.294 C  
HETATM    2  S   UNL     1     -10.028  11.070  64.012  1.00  0.00    -0.366 SA 
HETATM    3  C   UNL     1      -9.325   9.649  64.894  1.00  0.00    -0.242 C  
HETATM    4  C   UNL     1      -9.627   9.468  66.355  1.00  0.00    -0.273 C  
HETATM    5  CA  UNL     1     -10.654  13.472  65.814  1.00  0.00    -0.283 C  
HETATM    6  CA  UNL     1     -10.306  10.332  67.134  1.00  0.00    -0.238 C  
HETATM    7  C   UNL     1     -10.944  12.783  67.176  1.00  0.00    -0.263 C  
HETATM    8  C   UNL     1     -10.608   9.975  68.561  1.00  0.00    -0.215 C  
HETATM    9  N   UNL     1     -10.683  11.570  66.649  1.00  0.00    -0.257 N  
HETATM   10  OXT UNL     1     -10.891   8.831  68.883  1.00  0.00    -0.143 OA 
HETATM   11  O   UNL     1     -11.091  13.136  68.308  1.00  0.00    -0.242 OA 
HETATM   12  O   UNL     1     -10.584  10.963  69.469  1.00  0.00    -0.229 OA 
ENDROOT
BRANCH   4  13
HETATM   13  C   UNL     1      -8.933   8.225  66.920  1.00  0.00    -0.146 C  
BRANCH  13  14
HETATM   14  O   UNL     1      -9.305   7.021  66.221  1.00  0.00    -0.163 OA 
BRANCH  14  15
HETATM   15  C   UNL     1     -10.087   6.146  66.883  1.00  0.00    -0.183 C  
HETATM   16  O   UNL     1      -9.729   5.115  67.430  1.00  0.00    -0.135 OA 
HETATM   17  N   UNL     1     -11.381   6.541  66.823  1.00  0.00    -0.800 N  
HETATM   18  H2  UNL     1     -11.715   7.379  66.346  1.00  0.00     0.000 HD 
HETATM   19  H1  UNL     1     -11.972   5.879  67.324  1.00  0.00     0.000 HD 
ENDBRANCH  14  15
ENDBRANCH  13  14
ENDBRANCH   4  13
BRANCH   5  20
HETATM   20  N   UNL     1      -9.462  14.401  65.945  1.00  0.00    -0.515 N  
HETATM   21  H   UNL     1      -8.598  13.961  65.627  1.00  0.00     0.000 HD 
HETATM   22  C   UNL     1      -9.249  15.717  66.395  1.00  0.00    -0.311 C  
HETATM   23  O   UNL     1      -8.130  16.192  66.277  1.00  0.00    -0.292 OA 
BRANCH  22  24
HETATM   24  C   UNL     1     -10.286  16.493  67.190  1.00  0.00    -0.298 C  
BRANCH  24  25
HETATM   25  C   UNL     1     -10.473  17.918  66.941  1.00  0.00    -0.329 A  
HETATM   26  O   UNL     1     -10.570  18.427  65.673  1.00  0.00    -0.622 OA 
HETATM   27  C   UNL     1     -10.312  18.975  67.829  1.00  0.00    -0.498 A  
HETATM   28  C   UNL     1     -10.352  19.771  65.760  1.00  0.00    -0.423 A  
HETATM   29  C   UNL     1     -10.175  20.155  67.067  1.00  0.00    -0.558 A  
ENDBRANCH  24  25
BRANCH  24  30
HETATM   30  N   UNL     1     -10.928  16.073  68.240  1.00  0.00    -0.321 NA 
HETATM   31  H   UNL     1     -11.871  15.715  68.098  1.00  0.00     0.000 HD 
BRANCH  30  32
HETATM   32  O   UNL     1     -10.433  16.073  69.541  1.00  0.00    -0.244 OA 
HETATM   33  C   UNL     1     -11.295  15.977  70.651  1.00  0.00    -0.399 C  
ENDBRANCH  30  32
ENDBRANCH  24  30
ENDBRANCH  22  24
ENDBRANCH   5  20
TORSDOF 8
ENDMDL
MODEL       23
REMARK 921   NORMALIZED FREE ENERGY PREDICTED BY IDOCK:   -6.31 KCAL/MOL
REMARK 922        TOTAL FREE ENERGY PREDICTED BY IDOCK:  -10.66 KCAL/MOL
REMARK 923 INTER-LIGAND FREE ENERGY PREDICTED BY IDOCK:   -9.46 KCAL/MOL
REMARK 924 INTRA-LIGAND FREE ENERGY PREDICTED BY IDOCK:   -1.20 KCAL/MOL
REMARK 927      BINDING AFFINITY PREDICTED BY RF-SCORE:    0.00 PKD
ROOT
HETATM    1  C   UNL     1     -12.017  13.851  68.594  1.00  0.00    -0.366 C  
HETATM    2  S   UNL     1     -11.698  15.170  69.735  1.00  0.00    -0.342 SA 
HETATM    3  C   UNL     1     -10.843  16.411  68.724  1.00  0.00    -0.338 C  
HETATM    4  C   UNL     1     -10.666  16.163  67.252  1.00  0.00    -0.277 C  
HETATM    5  CA  UNL     1     -11.543  12.321  68.610  1.00  0.00    -0.323 C  
HETATM    6  CA  UNL     1     -10.996  15.035  66.596  1.00  0.00    -0.325 C  
HETATM    7  C   UNL     1     -11.420  12.586  67.084  1.00  0.00    -0.351 C  
HETATM    8  C   UNL     1     -10.841  14.964  65.103  1.00  0.00    -0.414 C  
HETATM    9  N   UNL     1     -11.427  13.919  67.288  1.00  0.00    -0.326 N  
HETATM   10  OXT UNL     1     -11.081  15.929  64.395  1.00  0.00    -0.486 OA 
HETATM   11  O   UNL     1     -11.168  11.937  66.113  1.00  0.00    -0.319 OA 
HETATM   12  O   UNL     1     -10.457  13.793  64.571  1.00  0.00    -0.434 OA 
ENDROOT
BRANCH   4  13
HETATM   13  C   UNL     1      -9.911  17.313  66.579  1.00  0.00    -0.305 C  
BRANCH  13  14
HETATM   14  O   UNL     1     -10.629  18.560  66.651  1.00  0.00    -0.390 OA 
BRANCH  14  15
HETATM   15  C   UNL     1      -9.955  19.628  67.123  1.00  0.00    -0.387 C  
HETATM   16  O   UNL     1      -9.716  19.882  68.293  1.00  0.00    -0.372 OA 
HETATM   17  N   UNL     1      -9.605  20.444  66.102  1.00  0.00    -0.670 N  
HETATM   18  H2  UNL     1      -9.819  20.276  65.119  1.00  0.00     0.000 HD 
HETATM   19  H1  UNL     1      -9.095  21.252  66.459  1.00  0.00     0.000 HD 
ENDBRANCH  14  15
ENDBRANCH  13  14
ENDBRANCH   4  13
BRANCH   5  20
HETATM   20  N   UNL     1     -10.313  11.587  69.111  1.00  0.00    -0.405 N  
HETATM   21  H   UNL     1      -9.562  12.228  69.363  1.00  0.00     0.000 HD 
HETATM   22  C   UNL     1      -9.951  10.242  69.313  1.00  0.00    -0.227 C  
HETATM   23  O   UNL     1      -8.867  10.009  69.827  1.00  0.00    -0.203 OA 
BRANCH  22  24
HETATM   24  C   UNL     1     -10.750   9.079  68.750  1.00  0.00    -0.108 C  
BRANCH  24  25
HETATM   25  C   UNL     1     -11.069   7.939  69.601  1.00  0.00    -0.026 A  
HETATM   26  O   UNL     1     -11.758   8.080  70.777  1.00  0.00    -0.278 OA 
HETATM   27  C   UNL     1     -10.542   6.653  69.551  1.00  0.00    -0.281 A  
HETATM   28  C   UNL     1     -11.561   6.940  71.499  1.00  0.00    -0.290 A  
HETATM   29  C   UNL     1     -10.807   6.035  70.792  1.00  0.00    -0.358 A  
ENDBRANCH  24  25
BRANCH  24  30
HETATM   30  N   UNL     1     -11.041   8.876  67.499  1.00  0.00    -0.390 NA 
HETATM   31  H   UNL     1     -11.953   9.195  67.173  1.00  0.00     0.000 HD 
BRANCH  30  32
HETATM   32  O   UNL     1     -10.211   8.257  66.568  1.00  0.00    -0.288 OA 
HETATM   33  C   UNL     1      -8.984   8.834  66.185  1.00  0.00    -0.185 C  
ENDBRANCH  30  32
ENDBRANCH  24  30
ENDBRANCH  22  24
ENDBRANCH   5  20
TORSDOF 8
ENDMDL
MODEL       24
REMARK 921   NORMALIZED FREE ENERGY PREDICTED BY IDOCK:   -6.31 KCAL/MOL
REMARK 922        TOTAL FREE ENERGY PREDICTED BY IDOCK:  -10.66 KCAL/MOL
REMARK 923 INTER-LIGAND FREE ENERGY PREDICTED BY IDOCK:   -9.53 KCAL/MOL
REMARK 924 INTRA-LIGAND FREE ENERGY PREDICTED BY IDOCK:   -1.13 KCAL/MOL
REMARK 927      BINDING AFFINITY PREDICTED BY RF-SCORE:    0.00 PKD
ROOT
HETATM    1  C   UNL     1     -11.183  13.065  66.432  1.00  0.00    -0.300 C  
HETATM    2  S   UNL     1      -9.769  12.805  67.469  1.00  0.00    -0.206 SA 
HETATM    3  C   UNL     1      -8.791  14.316  67.243  1.00  0.00    -0.214 C  
HETATM    4  C   UNL     1      -9.339  15.425  66.392  1.00  0.00    -0.331 C  
HETATM    5  CA  UNL     1     -11.724  12.230  65.177  1.00  0.00    -0.361 C  
HETATM    6  CA  UNL     1     -10.475  15.379  65.669  1.00  0.00    -0.372 C  
HETATM    7  C   UNL     1     -12.034  13.660  64.654  1.00  0.00    -0.407 C  
HETATM    8  C   UNL     1     -10.944  16.600  64.932  1.00  0.00    -0.150 C  
HETATM    9  N   UNL     1     -11.188  14.201  65.554  1.00  0.00    -0.310 N  
HETATM   10  OXT UNL     1     -10.812  17.718  65.408  1.00  0.00    -0.550 OA 
HETATM   11  O   UNL     1     -12.580  14.131  63.702  1.00  0.00    -0.831 OA 
HETATM   12  O   UNL     1     -11.540  16.421  63.743  1.00  0.00    -1.055 OA 
ENDROOT
BRANCH   4  13
HETATM   13  C   UNL     1      -8.364  16.603  66.312  1.00  0.00    -0.325 C  
BRANCH  13  14
HETATM   14  O   UNL     1      -8.102  17.190  67.602  1.00  0.00    -0.176 OA 
BRANCH  14  15
HETATM   15  C   UNL     1      -8.958  18.141  68.026  1.00  0.00    -0.283 C  
HETATM   16  O   UNL     1      -9.792  18.032  68.911  1.00  0.00    -0.352 OA 
HETATM   17  N   UNL     1      -8.808  19.264  67.285  1.00  0.00    -0.287 N  
HETATM   18  H2  UNL     1      -8.144  19.374  66.518  1.00  0.00     0.000 HD 
HETATM   19  H1  UNL     1      -9.456  19.984  67.606  1.00  0.00     0.000 HD 
ENDBRANCH  14  15
ENDBRANCH  13  14
ENDBRANCH   4  13
BRANCH   5  20
HETATM   20  N   UNL     1     -11.077  11.404  64.081  1.00  0.00    -0.347 N  
HETATM   21  H   UNL     1     -11.659  11.355  63.246  1.00  0.00     0.000 HD 
HETATM   22  C   UNL     1      -9.874  10.689  63.929  1.00  0.00    -0.338 C  
HETATM   23  O   UNL     1      -9.634  10.192  62.840  1.00  0.00    -0.300 OA 
BRANCH  22  24
HETATM   24  C   UNL     1      -8.966  10.346  65.099  1.00  0.00    -0.191 C  
BRANCH  24  25
HETATM   25  C   UNL     1      -9.351   9.292  66.030  1.00  0.00    -0.223 A  
HETATM   26  O   UNL     1      -8.892   8.008  65.903  1.00  0.00    -0.160 OA 
HETATM   27  C   UNL     1     -10.383   9.301  66.962  1.00  0.00    -0.325 A  
HETATM   28  C   UNL     1      -9.705   7.212  66.655  1.00  0.00    -0.170 A  
HETATM   29  C   UNL     1     -10.648   7.961  67.317  1.00  0.00    -0.365 A  
ENDBRANCH  24  25
BRANCH  24  30
HETATM   30  N   UNL     1      -7.935  11.027  65.501  1.00  0.00    -0.365 NA 
HETATM   31  H   UNL     1      -7.718  11.888  65.001  1.00  0.00     0.000 HD 
BRANCH  30  32
HETATM   32  O   UNL     1      -7.100  10.676  66.560  1.00  0.00    -0.117 OA 
HETATM   33  C   UNL     1      -5.785  11.172  66.649  1.00  0.00    -0.118 C  
ENDBRANCH  30  32
ENDBRANCH  24  30
ENDBRANCH  22  24
ENDBRANCH   5  20
TORSDOF 8
ENDMDL
MODEL       25
REMARK 921   NORMALIZED FREE ENERGY PREDICTED BY IDOCK:   -6.28 KCAL/MOL
REMARK 922        TOTAL FREE ENERGY PREDICTED BY IDOCK:  -10.62 KCAL/MOL
REMARK 923 INTER-LIGAND FREE ENERGY PREDICTED BY IDOCK:   -9.40 KCAL/MOL
REMARK 924 INTRA-LIGAND FREE ENERGY PREDICTED BY IDOCK:   -1.21 KCAL/MOL
REMARK 927      BINDING AFFINITY PREDICTED BY RF-SCORE:    0.00 PKD
ROOT
HETATM    1  C   UNL     1      -9.067  15.467  68.122  1.00  0.00    -0.184 C  
HETATM    2  S   UNL     1     -10.704  16.065  67.799  1.00  0.00    -0.322 SA 
HETATM    3  C   UNL     1     -11.506  14.675  66.951  1.00  0.00    -0.363 C  
HETATM    4  C   UNL     1     -10.754  13.386  66.783  1.00  0.00    -0.277 C  
HETATM    5  CA  UNL     1      -7.641  16.019  67.645  1.00  0.00    -0.146 C  
HETATM    6  CA  UNL     1      -9.467  13.172  67.115  1.00  0.00    -0.239 C  
HETATM    7  C   UNL     1      -7.349  14.497  67.532  1.00  0.00    -0.189 C  
HETATM    8  C   UNL     1      -8.872  11.800  66.969  1.00  0.00    -0.182 C  
HETATM    9  N   UNL     1      -8.668  14.217  67.540  1.00  0.00    -0.192 N  
HETATM   10  OXT UNL     1      -9.525  10.798  67.214  1.00  0.00    -0.158 OA 
HETATM   11  O   UNL     1      -6.398  13.817  67.285  1.00  0.00    -0.295 OA 
HETATM   12  O   UNL     1      -7.589  11.714  66.586  1.00  0.00    -0.130 OA 
ENDROOT
BRANCH   4  13
HETATM   13  C   UNL     1     -11.591  12.345  66.034  1.00  0.00    -0.401 C  
BRANCH  13  14
HETATM   14  O   UNL     1     -12.484  12.943  65.074  1.00  0.00    -0.463 OA 
BRANCH  14  15
HETATM   15  C   UNL     1     -12.054  13.013  63.799  1.00  0.00    -0.502 C  
HETATM   16  O   UNL     1     -11.380  12.184  63.209  1.00  0.00    -0.400 OA 
HETATM   17  N   UNL     1     -12.434  14.188  63.244  1.00  0.00    -1.098 N  
HETATM   18  H2  UNL     1     -12.968  14.915  63.722  1.00  0.00     0.000 HD 
HETATM   19  H1  UNL     1     -12.108  14.241  62.279  1.00  0.00     0.000 HD 
ENDBRANCH  14  15
ENDBRANCH  13  14
ENDBRANCH   4  13
BRANCH   5  20
HETATM   20  N   UNL     1      -7.130  16.740  66.412  1.00  0.00    -0.213 N  
HETATM   21  H   UNL     1      -6.804  16.089  65.698  1.00  0.00     0.000 HD 
HETATM   22  C   UNL     1      -6.993  18.080  66.007  1.00  0.00    -0.305 C  
HETATM   23  O   UNL     1      -6.604  18.302  64.870  1.00  0.00    -0.340 OA 
BRANCH  22  24
HETATM   24  C   UNL     1      -7.117  19.249  66.971  1.00  0.00    -0.203 C  
BRANCH  24  25
HETATM   25  C   UNL     1      -8.433  19.657  67.449  1.00  0.00    -0.305 A  
HETATM   26  O   UNL     1      -8.791  19.553  68.767  1.00  0.00    -0.364 OA 
HETATM   27  C   UNL     1      -9.574  19.929  66.703  1.00  0.00    -0.527 A  
HETATM   28  C   UNL     1     -10.151  19.640  68.824  1.00  0.00    -0.437 A  
HETATM   29  C   UNL     1     -10.681  19.859  67.576  1.00  0.00    -0.428 A  
ENDBRANCH  24  25
BRANCH  24  30
HETATM   30  N   UNL     1      -6.178  20.087  67.294  1.00  0.00    -0.183 NA 
HETATM   31  H   UNL     1      -6.102  20.940  66.742  1.00  0.00     0.000 HD 
BRANCH  30  32
HETATM   32  O   UNL     1      -5.265  19.915  68.332  1.00  0.00    -0.189 OA 
HETATM   33  C   UNL     1      -5.306  20.726  69.483  1.00  0.00    -0.371 C  
ENDBRANCH  30  32
ENDBRANCH  24  30
ENDBRANCH  22  24
ENDBRANCH   5  20
TORSDOF 8
ENDMDL
MODEL       26
REMARK 921   NORMALIZED FREE ENERGY PREDICTED BY IDOCK:   -6.27 KCAL/MOL
REMARK 922        TOTAL FREE ENERGY PREDICTED BY IDOCK:  -10.59 KCAL/MOL
REMARK 923 INTER-LIGAND FREE ENERGY PREDICTED BY IDOCK:   -9.21 KCAL/MOL
REMARK 924 INTRA-LIGAND FREE ENERGY PREDICTED BY IDOCK:   -1.39 KCAL/MOL
REMARK 927      BINDING AFFINITY PREDICTED BY RF-SCORE:    0.00 PKD
ROOT
HETATM    1  C   UNL     1      -9.942   9.356  68.707  1.00  0.00    -0.179 C  
HETATM    2  S   UNL     1      -8.447   8.630  69.322  1.00  0.00    -0.124 SA 
HETATM    3  C   UNL     1      -8.876   8.140  71.016  1.00  0.00    -0.143 C  
HETATM    4  C   UNL     1     -10.286   8.329  71.499  1.00  0.00    -0.277 C  
HETATM    5  CA  UNL     1     -10.239  10.836  68.169  1.00  0.00    -0.172 C  
HETATM    6  CA  UNL     1     -11.278   8.939  70.823  1.00  0.00    -0.272 C  
HETATM    7  C   UNL     1     -11.573  10.593  68.927  1.00  0.00    -0.249 C  
HETATM    8  C   UNL     1     -12.665   8.978  71.399  1.00  0.00    -0.304 C  
HETATM    9  N   UNL     1     -11.023   9.578  69.624  1.00  0.00    -0.232 N  
HETATM   10  OXT UNL     1     -13.120   8.028  72.018  1.00  0.00    -0.313 OA 
HETATM   11  O   UNL     1     -12.606  11.178  69.066  1.00  0.00    -0.370 OA 
HETATM   12  O   UNL     1     -13.398  10.081  71.187  1.00  0.00    -0.380 OA 
ENDROOT
BRANCH   4  13
HETATM   13  C   UNL     1     -10.445   7.872  72.952  1.00  0.00    -0.355 C  
BRANCH  13  14
HETATM   14  O   UNL     1      -9.841   6.586  73.193  1.00  0.00    -0.161 OA 
BRANCH  14  15
HETATM   15  C   UNL     1     -10.527   5.501  72.782  1.00  0.00    -0.212 C  
HETATM   16  O   UNL     1     -10.074   4.526  72.203  1.00  0.00    -0.183 OA 
HETATM   17  N   UNL     1     -11.844   5.653  73.057  1.00  0.00    -0.532 N  
HETATM   18  H2  UNL     1     -12.256   6.469  73.509  1.00  0.00     0.000 HD 
HETATM   19  H1  UNL     1     -12.363   4.832  72.746  1.00  0.00     0.000 HD 
ENDBRANCH  14  15
ENDBRANCH  13  14
ENDBRANCH   4  13
BRANCH   5  20
HETATM   20  N   UNL     1      -9.703  12.218  68.489  1.00  0.00    -0.340 N  
HETATM   21  H   UNL     1      -8.799  12.178  68.958  1.00  0.00     0.000 HD 
HETATM   22  C   UNL     1     -10.142  13.542  68.301  1.00  0.00    -0.247 C  
HETATM   23  O   UNL     1      -9.390  14.449  68.622  1.00  0.00    -0.201 OA 
BRANCH  22  24
HETATM   24  C   UNL     1     -11.568  13.889  67.905  1.00  0.00    -0.342 C  
BRANCH  24  25
HETATM   25  C   UNL     1     -11.998  13.718  66.522  1.00  0.00    -0.434 A  
HETATM   26  O   UNL     1     -12.512  12.534  66.062  1.00  0.00    -0.565 OA 
HETATM   27  C   UNL     1     -11.731  14.536  65.430  1.00  0.00    -0.354 A  
HETATM   28  C   UNL     1     -12.453  12.571  64.700  1.00  0.00    -0.463 A  
HETATM   29  C   UNL     1     -11.967  13.779  64.262  1.00  0.00    -0.481 A  
ENDBRANCH  24  25
BRANCH  24  30
HETATM   30  N   UNL     1     -12.440  14.521  68.633  1.00  0.00    -0.566 NA 
HETATM   31  H   UNL     1     -13.144  15.072  68.144  1.00  0.00     0.000 HD 
BRANCH  30  32
HETATM   32  O   UNL     1     -12.490  14.508  70.024  1.00  0.00    -0.334 OA 
HETATM   33  C   UNL     1     -12.341  15.692  70.773  1.00  0.00    -0.419 C  
ENDBRANCH  30  32
ENDBRANCH  24  30
ENDBRANCH  22  24
ENDBRANCH   5  20
TORSDOF 8
ENDMDL
MODEL       27
REMARK 921   NORMALIZED FREE ENERGY PREDICTED BY IDOCK:   -6.24 KCAL/MOL
REMARK 922        TOTAL FREE ENERGY PREDICTED BY IDOCK:  -10.56 KCAL/MOL
REMARK 923 INTER-LIGAND FREE ENERGY PREDICTED BY IDOCK:   -9.60 KCAL/MOL
REMARK 924 INTRA-LIGAND FREE ENERGY PREDICTED BY IDOCK:   -0.95 KCAL/MOL
REMARK 927      BINDING AFFINITY PREDICTED BY RF-SCORE:    0.00 PKD
ROOT
HETATM    1  C   UNL     1     -11.929  11.156  68.806  1.00  0.00    -0.268 C  
HETATM    2  S   UNL     1     -11.994  12.832  69.378  1.00  0.00    -0.218 SA 
HETATM    3  C   UNL     1     -11.281  13.780  68.004  1.00  0.00    -0.267 C  
HETATM    4  C   UNL     1     -10.899  13.064  66.740  1.00  0.00    -0.285 C  
HETATM    5  CA  UNL     1     -11.179   9.876  69.410  1.00  0.00    -0.153 C  
HETATM    6  CA  UNL     1     -10.934  11.733  66.544  1.00  0.00    -0.295 C  
HETATM    7  C   UNL     1     -10.940   9.594  67.901  1.00  0.00    -0.145 C  
HETATM    8  C   UNL     1     -10.604  11.165  65.193  1.00  0.00    -0.253 C  
HETATM    9  N   UNL     1     -11.221  10.875  67.589  1.00  0.00    -0.313 N  
HETATM   10  OXT UNL     1     -10.941  11.734  64.166  1.00  0.00    -0.324 OA 
HETATM   11  O   UNL     1     -10.463   8.710  67.252  1.00  0.00    -0.274 OA 
HETATM   12  O   UNL     1      -9.949   9.994  65.152  1.00  0.00    -0.323 OA 
ENDROOT
BRANCH   4  13
HETATM   13  C   UNL     1     -10.304  14.029  65.710  1.00  0.00    -0.319 C  
BRANCH  13  14
HETATM   14  O   UNL     1     -11.077  15.239  65.578  1.00  0.00    -0.337 OA 
BRANCH  14  15
HETATM   15  C   UNL     1     -11.635  15.480  64.376  1.00  0.00    -0.258 C  
HETATM   16  O   UNL     1     -11.593  16.526  63.747  1.00  0.00    -1.109 OA 
HETATM   17  N   UNL     1     -12.320  14.390  63.954  1.00  0.00    -1.023 N  
HETATM   18  H2  UNL     1     -12.401  13.515  64.472  1.00  0.00     0.000 HD 
HETATM   19  H1  UNL     1     -12.742  14.573  63.044  1.00  0.00     0.000 HD 
ENDBRANCH  14  15
ENDBRANCH  13  14
ENDBRANCH   4  13
BRANCH   5  20
HETATM   20  N   UNL     1      -9.896   9.655  70.189  1.00  0.00    -0.249 N  
HETATM   21  H   UNL     1      -9.101  10.124  69.756  1.00  0.00     0.000 HD 
HETATM   22  C   UNL     1      -9.530   8.966  71.360  1.00  0.00    -0.274 C  
HETATM   23  O   UNL     1      -8.379   9.075  71.756  1.00  0.00    -0.353 OA 
BRANCH  22  24
HETATM   24  C   UNL     1     -10.435   7.950  72.036  1.00  0.00    -0.231 C  
BRANCH  24  25
HETATM   25  C   UNL     1     -11.873   8.186  72.094  1.00  0.00    -0.359 A  
HETATM   26  O   UNL     1     -12.767   7.393  71.425  1.00  0.00    -0.352 OA 
HETATM   27  C   UNL     1     -12.542   9.317  72.549  1.00  0.00    -0.266 A  
HETATM   28  C   UNL     1     -13.945   8.077  71.362  1.00  0.00    -0.289 A  
HETATM   29  C   UNL     1     -13.854   9.274  72.030  1.00  0.00    -0.446 A  
ENDBRANCH  24  25
BRANCH  24  30
HETATM   30  N   UNL     1     -10.057   6.942  72.764  1.00  0.00    -0.170 NA 
HETATM   31  H   UNL     1      -9.995   6.033  72.308  1.00  0.00     0.000 HD 
BRANCH  30  32
HETATM   32  O   UNL     1      -9.730   7.001  74.117  1.00  0.00    -0.266 OA 
HETATM   33  C   UNL     1      -8.391   7.106  74.541  1.00  0.00    -0.184 C  
ENDBRANCH  30  32
ENDBRANCH  24  30
ENDBRANCH  22  24
ENDBRANCH   5  20
TORSDOF 8
ENDMDL
MODEL       28
REMARK 921   NORMALIZED FREE ENERGY PREDICTED BY IDOCK:   -6.21 KCAL/MOL
REMARK 922        TOTAL FREE ENERGY PREDICTED BY IDOCK:  -10.51 KCAL/MOL
REMARK 923 INTER-LIGAND FREE ENERGY PREDICTED BY IDOCK:   -9.24 KCAL/MOL
REMARK 924 INTRA-LIGAND FREE ENERGY PREDICTED BY IDOCK:   -1.28 KCAL/MOL
REMARK 927      BINDING AFFINITY PREDICTED BY RF-SCORE:    0.00 PKD
ROOT
HETATM    1  C   UNL     1     -11.411  12.986  69.857  1.00  0.00    -0.081 C  
HETATM    2  S   UNL     1     -12.635  13.131  71.131  1.00  0.00    -0.230 SA 
HETATM    3  C   UNL     1     -13.035  11.408  71.536  1.00  0.00    -0.399 C  
HETATM    4  C   UNL     1     -12.275  10.300  70.864  1.00  0.00    -0.465 C  
HETATM    5  CA  UNL     1     -11.416  13.506  68.342  1.00  0.00    -0.311 C  
HETATM    6  CA  UNL     1     -11.365  10.449  69.883  1.00  0.00    -0.302 C  
HETATM    7  C   UNL     1     -10.707  12.141  68.116  1.00  0.00    -0.211 C  
HETATM    8  C   UNL     1     -10.618   9.252  69.365  1.00  0.00    -0.223 C  
HETATM    9  N   UNL     1     -11.146  11.686  69.307  1.00  0.00    -0.244 N  
HETATM   10  OXT UNL     1     -10.264   8.354  70.113  1.00  0.00    -0.189 OA 
HETATM   11  O   UNL     1     -10.192  11.578  67.197  1.00  0.00    -0.198 OA 
HETATM   12  O   UNL     1     -10.328   9.217  68.055  1.00  0.00    -0.199 OA 
ENDROOT
BRANCH   4  13
HETATM   13  C   UNL     1     -12.766   8.925  71.325  1.00  0.00    -0.248 C  
BRANCH  13  14
HETATM   14  O   UNL     1     -12.381   8.629  72.681  1.00  0.00    -0.372 OA 
BRANCH  14  15
HETATM   15  C   UNL     1     -11.524   7.605  72.864  1.00  0.00    -0.290 C  
HETATM   16  O   UNL     1     -10.464   7.638  73.468  1.00  0.00    -0.343 OA 
HETATM   17  N   UNL     1     -11.977   6.500  72.224  1.00  0.00    -0.469 N  
HETATM   18  H2  UNL     1     -12.841   6.451  71.684  1.00  0.00     0.000 HD 
HETATM   19  H1  UNL     1     -11.328   5.726  72.362  1.00  0.00     0.000 HD 
ENDBRANCH  14  15
ENDBRANCH  13  14
ENDBRANCH   4  13
BRANCH   5  20
HETATM   20  N   UNL     1     -12.484  13.718  67.286  1.00  0.00    -0.396 N  
HETATM   21  H   UNL     1     -13.416  13.500  67.637  1.00  0.00     0.000 HD 
HETATM   22  C   UNL     1     -12.511  14.140  65.944  1.00  0.00    -0.453 C  
HETATM   23  O   UNL     1     -13.598  14.277  65.405  1.00  0.00    -0.516 OA 
BRANCH  22  24
HETATM   24  C   UNL     1     -11.260  14.240  65.087  1.00  0.00    -0.345 C  
BRANCH  24  25
HETATM   25  C   UNL     1     -10.150  15.081  65.521  1.00  0.00    -0.369 A  
HETATM   26  O   UNL     1      -9.053  14.565  66.158  1.00  0.00    -0.198 OA 
HETATM   27  C   UNL     1     -10.112  16.467  65.630  1.00  0.00    -0.314 A  
HETATM   28  C   UNL     1      -8.407  15.606  66.757  1.00  0.00    -0.278 A  
HETATM   29  C   UNL     1      -9.029  16.798  66.472  1.00  0.00    -0.304 A  
ENDBRANCH  24  25
BRANCH  24  30
HETATM   30  N   UNL     1     -11.118  13.800  63.872  1.00  0.00    -0.509 NA 
HETATM   31  H   UNL     1     -10.997  14.493  63.135  1.00  0.00     0.000 HD 
BRANCH  30  32
HETATM   32  O   UNL     1     -11.117  12.459  63.495  1.00  0.00    -0.435 OA 
HETATM   33  C   UNL     1     -10.006  11.630  63.746  1.00  0.00    -0.349 C  
ENDBRANCH  30  32
ENDBRANCH  24  30
ENDBRANCH  22  24
ENDBRANCH   5  20
TORSDOF 8
ENDMDL
MODEL       29
REMARK 921   NORMALIZED FREE ENERGY PREDICTED BY IDOCK:   -6.17 KCAL/MOL
REMARK 922        TOTAL FREE ENERGY PREDICTED BY IDOCK:  -10.45 KCAL/MOL
REMARK 923 INTER-LIGAND FREE ENERGY PREDICTED BY IDOCK:   -9.30 KCAL/MOL
REMARK 924 INTRA-LIGAND FREE ENERGY PREDICTED BY IDOCK:   -1.15 KCAL/MOL
REMARK 927      BINDING AFFINITY PREDICTED BY RF-SCORE:    0.00 PKD
ROOT
HETATM    1  C   UNL     1      -9.083   9.987  66.304  1.00  0.00    -0.151 C  
HETATM    2  S   UNL     1      -8.984  10.573  64.634  1.00  0.00    -0.214 SA 
HETATM    3  C   UNL     1     -10.327  11.789  64.529  1.00  0.00    -0.294 C  
HETATM    4  C   UNL     1     -11.123  12.112  65.761  1.00  0.00    -0.362 C  
HETATM    5  CA  UNL     1      -9.339   8.515  66.881  1.00  0.00    -0.172 C  
HETATM    6  CA  UNL     1     -11.012  11.501  66.956  1.00  0.00    -0.294 C  
HETATM    7  C   UNL     1     -10.164   9.319  67.924  1.00  0.00    -0.214 C  
HETATM    8  C   UNL     1     -11.817  11.991  68.126  1.00  0.00    -0.286 C  
HETATM    9  N   UNL     1     -10.203  10.391  67.106  1.00  0.00    -0.211 N  
HETATM   10  OXT UNL     1     -12.023  13.183  68.298  1.00  0.00    -0.343 OA 
HETATM   11  O   UNL     1     -10.760   9.071  68.929  1.00  0.00    -0.205 OA 
HETATM   12  O   UNL     1     -12.277  11.077  68.993  1.00  0.00    -0.483 OA 
ENDROOT
BRANCH   4  13
HETATM   13  C   UNL     1     -12.214  13.145  65.466  1.00  0.00    -0.461 C  
BRANCH  13  14
HETATM   14  O   UNL     1     -11.695  14.488  65.389  1.00  0.00    -0.350 OA 
BRANCH  14  15
HETATM   15  C   UNL     1     -11.945  15.176  64.258  1.00  0.00    -0.262 C  
HETATM   16  O   UNL     1     -11.754  16.367  64.070  1.00  0.00    -1.044 OA 
HETATM   17  N   UNL     1     -12.506  14.361  63.333  1.00  0.00    -1.068 N  
HETATM   18  H2  UNL     1     -12.709  13.371  63.472  1.00  0.00     0.000 HD 
HETATM   19  H1  UNL     1     -12.696  14.882  62.477  1.00  0.00     0.000 HD 
ENDBRANCH  14  15
ENDBRANCH  13  14
ENDBRANCH   4  13
BRANCH   5  20
HETATM   20  N   UNL     1     -10.126   7.305  66.415  1.00  0.00    -0.465 N  
HETATM   21  H   UNL     1     -10.409   7.387  65.439  1.00  0.00     0.000 HD 
HETATM   22  C   UNL     1     -10.565   6.099  66.993  1.00  0.00    -0.315 C  
HETATM   23  O   UNL     1     -11.127   5.287  66.275  1.00  0.00    -0.156 OA 
BRANCH  22  24
HETATM   24  C   UNL     1     -10.546   5.850  68.492  1.00  0.00    -0.252 C  
BRANCH  24  25
HETATM   25  C   UNL     1      -9.503   5.013  69.075  1.00  0.00    -0.137 A  
HETATM   26  O   UNL     1      -9.767   3.764  69.571  1.00  0.00    -0.189 OA 
HETATM   27  C   UNL     1      -8.224   5.384  69.473  1.00  0.00    -0.096 A  
HETATM   28  C   UNL     1      -8.715   3.415  70.366  1.00  0.00    -0.075 A  
HETATM   29  C   UNL     1      -7.743   4.386  70.348  1.00  0.00    -0.053 A  
ENDBRANCH  24  25
BRANCH  24  30
HETATM   30  N   UNL     1     -11.488   6.147  69.337  1.00  0.00    -0.457 NA 
HETATM   31  H   UNL     1     -12.412   6.350  68.955  1.00  0.00     0.000 HD 
BRANCH  30  32
HETATM   32  O   UNL     1     -11.341   6.211  70.720  1.00  0.00    -0.321 OA 
HETATM   33  C   UNL     1     -12.287   6.875  71.526  1.00  0.00    -0.376 C  
ENDBRANCH  30  32
ENDBRANCH  24  30
ENDBRANCH  22  24
ENDBRANCH   5  20
TORSDOF 8
ENDMDL
MODEL       30
REMARK 921   NORMALIZED FREE ENERGY PREDICTED BY IDOCK:   -6.15 KCAL/MOL
REMARK 922        TOTAL FREE ENERGY PREDICTED BY IDOCK:  -10.41 KCAL/MOL
REMARK 923 INTER-LIGAND FREE ENERGY PREDICTED BY IDOCK:   -9.11 KCAL/MOL
REMARK 924 INTRA-LIGAND FREE ENERGY PREDICTED BY IDOCK:   -1.30 KCAL/MOL
REMARK 927      BINDING AFFINITY PREDICTED BY RF-SCORE:    0.00 PKD
ROOT
HETATM    1  C   UNL     1     -10.479  12.747  68.231  1.00  0.00    -0.241 C  
HETATM    2  S   UNL     1     -11.910  12.243  69.147  1.00  0.00    -0.273 SA 
HETATM    3  C   UNL     1     -12.249  13.664  70.224  1.00  0.00    -0.353 C  
HETATM    4  C   UNL     1     -11.411  14.903  70.090  1.00  0.00    -0.299 C  
HETATM    5  CA  UNL     1      -9.015  12.101  68.143  1.00  0.00    -0.195 C  
HETATM    6  CA  UNL     1     -10.330  15.044  69.299  1.00  0.00    -0.246 C  
HETATM    7  C   UNL     1      -8.608  13.600  68.129  1.00  0.00    -0.176 C  
HETATM    8  C   UNL     1      -9.639  16.374  69.204  1.00  0.00    -0.249 C  
HETATM    9  N   UNL     1      -9.814  13.960  68.613  1.00  0.00    -0.209 N  
HETATM   10  OXT UNL     1     -10.273  17.419  69.213  1.00  0.00    -0.302 OA 
HETATM   11  O   UNL     1      -7.593  14.218  67.999  1.00  0.00    -0.115 OA 
HETATM   12  O   UNL     1      -8.303  16.376  69.078  1.00  0.00    -0.236 OA 
ENDROOT
BRANCH   4  13
HETATM   13  C   UNL     1     -11.840  15.979  71.091  1.00  0.00    -0.420 C  
BRANCH  13  14
HETATM   14  O   UNL     1     -11.958  15.467  72.433  1.00  0.00    -0.370 OA 
BRANCH  14  15
HETATM   15  C   UNL     1     -13.102  15.735  73.092  1.00  0.00    -0.564 C  
HETATM   16  O   UNL     1     -14.234  15.695  72.636  1.00  0.00    -0.546 OA 
HETATM   17  N   UNL     1     -12.829  16.120  74.361  1.00  0.00    -0.970 N  
HETATM   18  H2  UNL     1     -11.893  16.196  74.760  1.00  0.00     0.000 HD 
HETATM   19  H1  UNL     1     -13.695  16.323  74.859  1.00  0.00     0.000 HD 
ENDBRANCH  14  15
ENDBRANCH  13  14
ENDBRANCH   4  13
BRANCH   5  20
HETATM   20  N   UNL     1      -8.127  11.330  69.101  1.00  0.00    -0.363 N  
HETATM   21  H   UNL     1      -7.184  11.716  69.141  1.00  0.00     0.000 HD 
HETATM   22  C   UNL     1      -8.278  10.215  69.947  1.00  0.00    -0.109 C  
HETATM   23  O   UNL     1      -7.339   9.906  70.665  1.00  0.00    -0.278 OA 
BRANCH  22  24
HETATM   24  C   UNL     1      -9.468   9.274  69.865  1.00  0.00    -0.197 C  
BRANCH  24  25
HETATM   25  C   UNL     1     -10.239   8.974  71.066  1.00  0.00    -0.277 A  
HETATM   26  O   UNL     1      -9.791   8.095  72.016  1.00  0.00    -0.191 OA 
HETATM   27  C   UNL     1     -11.575   9.260  71.325  1.00  0.00    -0.419 A  
HETATM   28  C   UNL     1     -10.865   7.747  72.782  1.00  0.00    -0.379 A  
HETATM   29  C   UNL     1     -11.990   8.429  72.387  1.00  0.00    -0.451 A  
ENDBRANCH  24  25
BRANCH  24  30
HETATM   30  N   UNL     1      -9.790   8.523  68.854  1.00  0.00    -0.172 NA 
HETATM   31  H   UNL     1      -9.480   7.552  68.876  1.00  0.00     0.000 HD 
BRANCH  30  32
HETATM   32  O   UNL     1     -10.525   8.934  67.745  1.00  0.00    -0.237 OA 
HETATM   33  C   UNL     1     -10.002   8.825  66.441  1.00  0.00    -0.275 C  
ENDBRANCH  30  32
ENDBRANCH  24  30
ENDBRANCH  22  24
ENDBRANCH   5  20
TORSDOF 8
ENDMDL
MODEL       31
REMARK 921   NORMALIZED FREE ENERGY PREDICTED BY IDOCK:   -6.14 KCAL/MOL
REMARK 922        TOTAL FREE ENERGY PREDICTED BY IDOCK:  -10.40 KCAL/MOL
REMARK 923 INTER-LIGAND FREE ENERGY PREDICTED BY IDOCK:   -9.29 KCAL/MOL
REMARK 924 INTRA-LIGAND FREE ENERGY PREDICTED BY IDOCK:   -1.11 KCAL/MOL
REMARK 927      BINDING AFFINITY PREDICTED BY RF-SCORE:    0.00 PKD
ROOT
HETATM    1  C   UNL     1      -8.993  10.312  68.559  1.00  0.00    -0.134 C  
HETATM    2  S   UNL     1      -8.500  10.321  66.856  1.00  0.00    -0.127 SA 
HETATM    3  C   UNL     1      -9.675  11.463  66.077  1.00  0.00    -0.223 C  
HETATM    4  C   UNL     1     -10.675  12.185  66.935  1.00  0.00    -0.271 C  
HETATM    5  CA  UNL     1      -9.496   9.113  69.494  1.00  0.00    -0.168 C  
HETATM    6  CA  UNL     1     -10.869  11.994  68.254  1.00  0.00    -0.229 C  
HETATM    7  C   UNL     1     -10.441  10.228  70.019  1.00  0.00    -0.241 C  
HETATM    8  C   UNL     1     -11.849  12.853  69.000  1.00  0.00    -0.306 C  
HETATM    9  N   UNL     1     -10.213  10.976  68.921  1.00  0.00    -0.201 N  
HETATM   10  OXT UNL     1     -11.978  14.040  68.740  1.00  0.00    -0.338 OA 
HETATM   11  O   UNL     1     -11.252  10.332  70.891  1.00  0.00    -0.336 OA 
HETATM   12  O   UNL     1     -12.560  12.280  69.983  1.00  0.00    -0.014 OA 
ENDROOT
BRANCH   4  13
HETATM   13  C   UNL     1     -11.583  13.088  66.095  1.00  0.00    -0.366 C  
BRANCH  13  14
HETATM   14  O   UNL     1     -12.438  12.338  65.210  1.00  0.00    -0.585 OA 
BRANCH  14  15
HETATM   15  C   UNL     1     -12.387  12.650  63.900  1.00  0.00    -0.459 C  
HETATM   16  O   UNL     1     -12.581  13.748  63.403  1.00  0.00    -0.842 OA 
HETATM   17  N   UNL     1     -12.133  11.540  63.168  1.00  0.00    -0.933 N  
HETATM   18  H2  UNL     1     -12.000  10.604  63.551  1.00  0.00     0.000 HD 
HETATM   19  H1  UNL     1     -12.094  11.777  62.176  1.00  0.00     0.000 HD 
ENDBRANCH  14  15
ENDBRANCH  13  14
ENDBRANCH   4  13
BRANCH   5  20
HETATM   20  N   UNL     1     -10.277   7.833  69.265  1.00  0.00    -0.207 N  
HETATM   21  H   UNL     1     -10.376   7.618  68.273  1.00  0.00     0.000 HD 
HETATM   22  C   UNL     1     -10.901   6.869  70.079  1.00  0.00    -0.262 C  
HETATM   23  O   UNL     1     -11.387   5.887  69.539  1.00  0.00    -0.361 OA 
BRANCH  22  24
HETATM   24  C   UNL     1     -11.166   7.088  71.559  1.00  0.00    -0.249 C  
BRANCH  24  25
HETATM   25  C   UNL     1     -10.059   7.052  72.507  1.00  0.00    -0.177 A  
HETATM   26  O   UNL     1      -9.901   6.025  73.400  1.00  0.00    -0.155 OA 
HETATM   27  C   UNL     1      -9.197   8.082  72.864  1.00  0.00    -0.332 A  
HETATM   28  C   UNL     1      -9.041   6.459  74.366  1.00  0.00    -0.174 A  
HETATM   29  C   UNL     1      -8.589   7.726  74.087  1.00  0.00    -0.307 A  
ENDBRANCH  24  25
BRANCH  24  30
HETATM   30  N   UNL     1     -12.330   7.121  72.139  1.00  0.00    -0.482 NA 
HETATM   31  H   UNL     1     -12.369   6.857  73.122  1.00  0.00     0.000 HD 
BRANCH  30  32
HETATM   32  O   UNL     1     -13.526   7.487  71.527  1.00  0.00    -0.366 OA 
HETATM   33  C   UNL     1     -14.348   8.493  72.072  1.00  0.00    -0.447 C  
ENDBRANCH  30  32
ENDBRANCH  24  30
ENDBRANCH  22  24
ENDBRANCH   5  20
TORSDOF 8
ENDMDL
MODEL       32
REMARK 921   NORMALIZED FREE ENERGY PREDICTED BY IDOCK:   -6.11 KCAL/MOL
REMARK 922        TOTAL FREE ENERGY PREDICTED BY IDOCK:  -10.36 KCAL/MOL
REMARK 923 INTER-LIGAND FREE ENERGY PREDICTED BY IDOCK:   -9.42 KCAL/MOL
REMARK 924 INTRA-LIGAND FREE ENERGY PREDICTED BY IDOCK:   -0.94 KCAL/MOL
REMARK 927      BINDING AFFINITY PREDICTED BY RF-SCORE:    0.00 PKD
ROOT
HETATM    1  C   UNL     1      -8.814  15.559  67.530  1.00  0.00    -0.182 C  
HETATM    2  S   UNL     1      -8.566  15.804  69.268  1.00  0.00    -0.231 SA 
HETATM    3  C   UNL     1      -9.941  14.897  70.027  1.00  0.00     0.173 C  
HETATM    4  C   UNL     1     -10.876  14.113  69.151  1.00  0.00    -0.254 C  
HETATM    5  CA  UNL     1      -9.065  16.615  66.352  1.00  0.00    -0.292 C  
HETATM    6  CA  UNL     1     -10.866  14.092  67.805  1.00  0.00    -0.247 C  
HETATM    7  C   UNL     1     -10.030  15.497  65.870  1.00  0.00    -0.349 C  
HETATM    8  C   UNL     1     -11.811  13.190  67.062  1.00  0.00    -0.379 C  
HETATM    9  N   UNL     1     -10.030  14.932  67.094  1.00  0.00    -0.230 N  
HETATM   10  OXT UNL     1     -12.087  12.077  67.483  1.00  0.00    -0.555 OA 
HETATM   11  O   UNL     1     -10.718  15.305  64.912  1.00  0.00    -0.419 OA 
HETATM   12  O   UNL     1     -12.320  13.638  65.904  1.00  0.00    -0.438 OA 
ENDROOT
BRANCH   4  13
HETATM   13  C   UNL     1     -11.975  13.433  69.974  1.00  0.00    -0.337 C  
BRANCH  13  14
HETATM   14  O   UNL     1     -12.144  14.037  71.271  1.00  0.00    -0.336 OA 
BRANCH  14  15
HETATM   15  C   UNL     1     -13.406  14.163  71.726  1.00  0.00    -0.380 C  
HETATM   16  O   UNL     1     -13.942  13.488  72.592  1.00  0.00    -0.752 OA 
HETATM   17  N   UNL     1     -14.052  15.138  71.043  1.00  0.00    -0.726 N  
HETATM   18  H2  UNL     1     -13.642  15.695  70.293  1.00  0.00     0.000 HD 
HETATM   19  H1  UNL     1     -15.007  15.233  71.388  1.00  0.00     0.000 HD 
ENDBRANCH  14  15
ENDBRANCH  13  14
ENDBRANCH   4  13
BRANCH   5  20
HETATM   20  N   UNL     1      -9.745  17.968  66.254  1.00  0.00    -0.297 N  
HETATM   21  H   UNL     1     -10.648  17.907  65.785  1.00  0.00     0.000 HD 
HETATM   22  C   UNL     1      -9.441  19.284  66.649  1.00  0.00    -0.344 C  
HETATM   23  O   UNL     1     -10.288  20.147  66.475  1.00  0.00    -0.440 OA 
BRANCH  22  24
HETATM   24  C   UNL     1      -8.053  19.711  67.094  1.00  0.00    -0.282 C  
BRANCH  24  25
HETATM   25  C   UNL     1      -6.950  19.698  66.139  1.00  0.00    -0.250 A  
HETATM   26  O   UNL     1      -6.603  20.809  65.416  1.00  0.00    -0.228 OA 
HETATM   27  C   UNL     1      -6.285  18.600  65.606  1.00  0.00    -0.288 A  
HETATM   28  C   UNL     1      -5.828  20.387  64.376  1.00  0.00    -0.254 A  
HETATM   29  C   UNL     1      -5.615  19.031  64.441  1.00  0.00    -0.308 A  
ENDBRANCH  24  25
BRANCH  24  30
HETATM   30  N   UNL     1      -7.662  19.918  68.316  1.00  0.00    -0.290 NA 
HETATM   31  H   UNL     1      -8.361  20.248  68.981  1.00  0.00     0.000 HD 
BRANCH  30  32
HETATM   32  O   UNL     1      -6.368  19.726  68.794  1.00  0.00    -0.251 OA 
HETATM   33  C   UNL     1      -6.034  18.599  69.569  1.00  0.00    -0.256 C  
ENDBRANCH  30  32
ENDBRANCH  24  30
ENDBRANCH  22  24
ENDBRANCH   5  20
TORSDOF 8
ENDMDL
MODEL       33
REMARK 921   NORMALIZED FREE ENERGY PREDICTED BY IDOCK:   -6.11 KCAL/MOL
REMARK 922        TOTAL FREE ENERGY PREDICTED BY IDOCK:  -10.36 KCAL/MOL
REMARK 923 INTER-LIGAND FREE ENERGY PREDICTED BY IDOCK:   -9.52 KCAL/MOL
REMARK 924 INTRA-LIGAND FREE ENERGY PREDICTED BY IDOCK:   -0.83 KCAL/MOL
REMARK 927      BINDING AFFINITY PREDICTED BY RF-SCORE:    0.00 PKD
ROOT
HETATM    1  C   UNL     1      -9.230  15.521  65.958  1.00  0.00    -0.326 C  
HETATM    2  S   UNL     1      -8.545  14.989  67.504  1.00  0.00    -0.193 SA 
HETATM    3  C   UNL     1      -9.754  13.780  68.112  1.00  0.00    -0.227 C  
HETATM    4  C   UNL     1     -10.929  13.420  67.249  1.00  0.00    -0.286 C  
HETATM    5  CA  UNL     1      -9.685  16.975  65.463  1.00  0.00     0.251 C  
HETATM    6  CA  UNL     1     -11.251  13.992  66.073  1.00  0.00    -0.310 C  
HETATM    7  C   UNL     1     -10.817  16.140  64.803  1.00  0.00    -0.262 C  
HETATM    8  C   UNL     1     -12.412  13.467  65.277  1.00  0.00    -0.483 C  
HETATM    9  N   UNL     1     -10.557  15.095  65.614  1.00  0.00    -0.331 N  
HETATM   10  OXT UNL     1     -12.655  12.271  65.225  1.00  0.00    -0.583 OA 
HETATM   11  O   UNL     1     -11.731  16.357  64.064  1.00  0.00    -1.044 OA 
HETATM   12  O   UNL     1     -13.156  14.354  64.599  1.00  0.00    -0.481 OA 
ENDROOT
BRANCH   4  13
HETATM   13  C   UNL     1     -11.838  12.399  67.940  1.00  0.00    -0.308 C  
BRANCH  13  14
HETATM   14  O   UNL     1     -11.241  11.846  69.129  1.00  0.00    -0.235 OA 
BRANCH  14  15
HETATM   15  C   UNL     1     -11.512  10.555  69.406  1.00  0.00    -0.262 C  
HETATM   16  O   UNL     1     -11.731  10.074  70.507  1.00  0.00    -0.280 OA 
HETATM   17  N   UNL     1     -11.459   9.816  68.273  1.00  0.00    -0.479 N  
HETATM   18  H2  UNL     1     -11.246  10.183  67.345  1.00  0.00     0.000 HD 
HETATM   19  H1  UNL     1     -11.664   8.839  68.482  1.00  0.00     0.000 HD 
ENDBRANCH  14  15
ENDBRANCH  13  14
ENDBRANCH   4  13
BRANCH   5  20
HETATM   20  N   UNL     1     -10.269  18.201  66.139  1.00  0.00    -0.384 N  
HETATM   21  H   UNL     1     -10.730  18.821  65.473  1.00  0.00     0.000 HD 
HETATM   22  C   UNL     1     -10.335  18.697  67.454  1.00  0.00    -0.406 C  
HETATM   23  O   UNL     1     -10.980  19.715  67.654  1.00  0.00    -0.380 OA 
BRANCH  22  24
HETATM   24  C   UNL     1      -9.489  18.141  68.587  1.00  0.00    -0.316 C  
BRANCH  24  25
HETATM   25  C   UNL     1      -8.062  18.440  68.641  1.00  0.00    -0.297 A  
HETATM   26  O   UNL     1      -7.142  17.517  69.062  1.00  0.00    -0.249 OA 
HETATM   27  C   UNL     1      -7.440  19.681  68.567  1.00  0.00    -0.369 A  
HETATM   28  C   UNL     1      -5.997  18.196  69.360  1.00  0.00    -0.242 A  
HETATM   29  C   UNL     1      -6.135  19.535  69.084  1.00  0.00    -0.307 A  
ENDBRANCH  24  25
BRANCH  24  30
HETATM   30  N   UNL     1      -9.850  17.239  69.451  1.00  0.00    -0.060 NA 
HETATM   31  H   UNL     1      -9.138  16.894  70.093  1.00  0.00     0.000 HD 
BRANCH  30  32
HETATM   32  O   UNL     1     -11.131  16.706  69.573  1.00  0.00    -0.287 OA 
HETATM   33  C   UNL     1     -11.463  15.832  70.626  1.00  0.00    -0.390 C  
ENDBRANCH  30  32
ENDBRANCH  24  30
ENDBRANCH  22  24
ENDBRANCH   5  20
TORSDOF 8
ENDMDL
MODEL       34
REMARK 921   NORMALIZED FREE ENERGY PREDICTED BY IDOCK:   -6.10 KCAL/MOL
REMARK 922        TOTAL FREE ENERGY PREDICTED BY IDOCK:  -10.35 KCAL/MOL
REMARK 923 INTER-LIGAND FREE ENERGY PREDICTED BY IDOCK:   -8.25 KCAL/MOL
REMARK 924 INTRA-LIGAND FREE ENERGY PREDICTED BY IDOCK:   -2.10 KCAL/MOL
REMARK 927      BINDING AFFINITY PREDICTED BY RF-SCORE:    0.00 PKD
ROOT
HETATM    1  C   UNL     1     -11.394  12.061  63.842  1.00  0.00    -0.425 C  
HETATM    2  S   UNL     1      -9.786  11.659  63.214  1.00  0.00    -0.353 SA 
HETATM    3  C   UNL     1      -8.880  11.105  64.685  1.00  0.00     0.069 C  
HETATM    4  C   UNL     1      -9.602  11.007  65.998  1.00  0.00    -0.249 C  
HETATM    5  CA  UNL     1     -12.201  13.444  63.835  1.00  0.00    -0.415 C  
HETATM    6  CA  UNL     1     -10.869  11.396  66.234  1.00  0.00    -0.263 C  
HETATM    7  C   UNL     1     -12.617  12.940  65.245  1.00  0.00    -0.439 C  
HETATM    8  C   UNL     1     -11.489  11.157  67.581  1.00  0.00    -0.250 C  
HETATM    9  N   UNL     1     -11.592  12.065  65.264  1.00  0.00    -0.316 N  
HETATM   10  OXT UNL     1     -11.253  10.139  68.215  1.00  0.00    -0.255 OA 
HETATM   11  O   UNL     1     -13.360  13.304  66.107  1.00  0.00     0.313 OA 
HETATM   12  O   UNL     1     -12.334  12.086  68.054  1.00  0.00    -0.329 OA 
ENDROOT
BRANCH   4  13
HETATM   13  C   UNL     1      -8.667  10.538  67.117  1.00  0.00    -0.130 C  
BRANCH  13  14
HETATM   14  O   UNL     1      -8.092  11.637  67.851  1.00  0.00    -0.124 OA 
BRANCH  14  15
HETATM   15  C   UNL     1      -6.826  11.980  67.546  1.00  0.00    -0.128 C  
HETATM   16  O   UNL     1      -5.881  11.222  67.386  1.00  0.00    -0.050 OA 
HETATM   17  N   UNL     1      -6.711  13.328  67.487  1.00  0.00    -0.201 N  
HETATM   18  H2  UNL     1      -7.473  13.987  67.649  1.00  0.00     0.000 HD 
HETATM   19  H1  UNL     1      -5.752  13.588  67.256  1.00  0.00     0.000 HD 
ENDBRANCH  14  15
ENDBRANCH  13  14
ENDBRANCH   4  13
BRANCH   5  20
HETATM   20  N   UNL     1     -11.814  14.909  63.900  1.00  0.00    -0.831 N  
HETATM   21  H   UNL     1     -12.162  15.432  63.096  1.00  0.00     0.000 HD 
HETATM   22  C   UNL     1     -11.095  15.728  64.791  1.00  0.00    -0.400 C  
HETATM   23  O   UNL     1     -11.047  16.926  64.561  1.00  0.00    -1.054 OA 
BRANCH  22  24
HETATM   24  C   UNL     1     -10.223  15.168  65.902  1.00  0.00    -0.324 C  
BRANCH  24  25
HETATM   25  C   UNL     1     -10.754  15.057  67.255  1.00  0.00    -0.298 A  
HETATM   26  O   UNL     1     -11.845  15.777  67.668  1.00  0.00    -0.039 OA 
HETATM   27  C   UNL     1     -10.155  14.487  68.372  1.00  0.00    -0.241 A  
HETATM   28  C   UNL     1     -11.852  15.752  69.032  1.00  0.00    -0.355 A  
HETATM   29  C   UNL     1     -10.822  14.980  69.514  1.00  0.00    -0.272 A  
ENDBRANCH  24  25
BRANCH  24  30
HETATM   30  N   UNL     1      -8.945  14.936  65.839  1.00  0.00    -0.420 NA 
HETATM   31  H   UNL     1      -8.647  14.085  65.364  1.00  0.00     0.000 HD 
BRANCH  30  32
HETATM   32  O   UNL     1      -7.950  15.755  66.367  1.00  0.00    -0.214 OA 
HETATM   33  C   UNL     1      -7.943  17.143  66.130  1.00  0.00    -0.262 C  
ENDBRANCH  30  32
ENDBRANCH  24  30
ENDBRANCH  22  24
ENDBRANCH   5  20
TORSDOF 8
ENDMDL
MODEL       35
REMARK 921   NORMALIZED FREE ENERGY PREDICTED BY IDOCK:   -6.10 KCAL/MOL
REMARK 922        TOTAL FREE ENERGY PREDICTED BY IDOCK:  -10.35 KCAL/MOL
REMARK 923 INTER-LIGAND FREE ENERGY PREDICTED BY IDOCK:   -9.18 KCAL/MOL
REMARK 924 INTRA-LIGAND FREE ENERGY PREDICTED BY IDOCK:   -1.17 KCAL/MOL
REMARK 927      BINDING AFFINITY PREDICTED BY RF-SCORE:    0.00 PKD
ROOT
HETATM    1  C   UNL     1     -12.444  12.941  69.933  1.00  0.00     0.031 C  
HETATM    2  S   UNL     1     -12.110  14.320  70.996  1.00  0.00    -0.320 SA 
HETATM    3  C   UNL     1     -11.260  15.499  69.910  1.00  0.00    -0.316 C  
HETATM    4  C   UNL     1     -11.098  15.170  68.453  1.00  0.00    -0.286 C  
HETATM    5  CA  UNL     1     -11.975  11.412  70.029  1.00  0.00    -0.363 C  
HETATM    6  CA  UNL     1     -11.438  14.008  67.863  1.00  0.00    -0.316 C  
HETATM    7  C   UNL     1     -11.866  11.592  68.490  1.00  0.00    -0.297 C  
HETATM    8  C   UNL     1     -11.297  13.854  66.375  1.00  0.00    -0.328 C  
HETATM    9  N   UNL     1     -11.866  12.934  68.619  1.00  0.00    -0.319 N  
HETATM   10  OXT UNL     1     -11.540  14.780  65.616  1.00  0.00    -0.341 OA 
HETATM   11  O   UNL     1     -11.624  10.889  67.554  1.00  0.00    -0.526 OA 
HETATM   12  O   UNL     1     -10.922  12.654  65.905  1.00  0.00    -0.268 OA 
ENDROOT
BRANCH   4  13
HETATM   13  C   UNL     1     -10.346  16.278  67.710  1.00  0.00    -0.287 C  
BRANCH  13  14
HETATM   14  O   UNL     1     -11.005  17.555  67.812  1.00  0.00    -0.314 OA 
BRANCH  14  15
HETATM   15  C   UNL     1     -10.217  18.642  67.931  1.00  0.00    -0.392 C  
HETATM   16  O   UNL     1      -9.205  18.741  68.607  1.00  0.00    -0.342 OA 
HETATM   17  N   UNL     1     -10.734  19.671  67.218  1.00  0.00    -0.478 N  
HETATM   18  H2  UNL     1     -11.594  19.629  66.671  1.00  0.00     0.000 HD 
HETATM   19  H1  UNL     1     -10.137  20.493  67.309  1.00  0.00     0.000 HD 
ENDBRANCH  14  15
ENDBRANCH  13  14
ENDBRANCH   4  13
BRANCH   5  20
HETATM   20  N   UNL     1     -10.743  10.702  70.558  1.00  0.00    -0.352 N  
HETATM   21  H   UNL     1     -10.000  11.356  70.802  1.00  0.00     0.000 HD 
HETATM   22  C   UNL     1     -10.369   9.366  70.797  1.00  0.00    -0.298 C  
HETATM   23  O   UNL     1      -9.288   9.156  71.325  1.00  0.00    -0.254 OA 
BRANCH  22  24
HETATM   24  C   UNL     1     -11.153   8.182  70.254  1.00  0.00    -0.221 C  
BRANCH  24  25
HETATM   25  C   UNL     1     -10.702   7.509  69.041  1.00  0.00    -0.134 A  
HETATM   26  O   UNL     1     -10.118   8.191  68.007  1.00  0.00    -0.181 OA 
HETATM   27  C   UNL     1     -11.006   6.224  68.606  1.00  0.00    -0.423 A  
HETATM   28  C   UNL     1     -10.167   7.381  66.911  1.00  0.00    -0.276 A  
HETATM   29  C   UNL     1     -10.717   6.162  67.226  1.00  0.00    -0.414 A  
ENDBRANCH  24  25
BRANCH  24  30
HETATM   30  N   UNL     1     -12.329   7.790  70.644  1.00  0.00    -0.508 NA 
HETATM   31  H   UNL     1     -13.130   8.092  70.090  1.00  0.00     0.000 HD 
BRANCH  30  32
HETATM   32  O   UNL     1     -12.587   6.992  71.756  1.00  0.00    -0.344 OA 
HETATM   33  C   UNL     1     -11.588   6.169  72.311  1.00  0.00    -0.313 C  
ENDBRANCH  30  32
ENDBRANCH  24  30
ENDBRANCH  22  24
ENDBRANCH   5  20
TORSDOF 8
ENDMDL
MODEL       36
REMARK 921   NORMALIZED FREE ENERGY PREDICTED BY IDOCK:   -6.08 KCAL/MOL
REMARK 922        TOTAL FREE ENERGY PREDICTED BY IDOCK:  -10.32 KCAL/MOL
REMARK 923 INTER-LIGAND FREE ENERGY PREDICTED BY IDOCK:   -8.98 KCAL/MOL
REMARK 924 INTRA-LIGAND FREE ENERGY PREDICTED BY IDOCK:   -1.34 KCAL/MOL
REMARK 927      BINDING AFFINITY PREDICTED BY RF-SCORE:    0.00 PKD
ROOT
HETATM    1  C   UNL     1     -11.247  12.197  69.692  1.00  0.00    -0.067 C  
HETATM    2  S   UNL     1     -12.599  11.710  70.729  1.00  0.00    -0.212 SA 
HETATM    3  C   UNL     1     -12.253   9.966  71.091  1.00  0.00    -0.373 C  
HETATM    4  C   UNL     1     -10.980   9.350  70.584  1.00  0.00    -0.352 C  
HETATM    5  CA  UNL     1     -11.231  12.753  68.190  1.00  0.00    -0.272 C  
HETATM    6  CA  UNL     1     -10.082   9.944  69.775  1.00  0.00    -0.242 C  
HETATM    7  C   UNL     1      -9.964  11.856  68.118  1.00  0.00    -0.197 C  
HETATM    8  C   UNL     1      -8.808   9.233  69.418  1.00  0.00    -0.149 C  
HETATM    9  N   UNL     1     -10.345  11.183  69.222  1.00  0.00    -0.170 N  
HETATM   10  OXT UNL     1      -8.220   8.539  70.234  1.00  0.00    -0.106 OA 
HETATM   11  O   UNL     1      -9.108  11.634  67.314  1.00  0.00    -0.162 OA 
HETATM   12  O   UNL     1      -8.320   9.408  68.181  1.00  0.00    -0.117 OA 
ENDROOT
BRANCH   4  13
HETATM   13  C   UNL     1     -10.877   7.874  70.978  1.00  0.00    -0.235 C  
BRANCH  13  14
HETATM   14  O   UNL     1     -11.736   7.031  70.185  1.00  0.00    -0.267 OA 
BRANCH  14  15
HETATM   15  C   UNL     1     -11.142   6.064  69.458  1.00  0.00    -0.398 C  
HETATM   16  O   UNL     1     -10.478   5.132  69.886  1.00  0.00    -0.295 OA 
HETATM   17  N   UNL     1     -11.336   6.289  68.138  1.00  0.00    -0.514 N  
HETATM   18  H2  UNL     1     -11.856   7.076  67.749  1.00  0.00     0.000 HD 
HETATM   19  H1  UNL     1     -10.886   5.557  67.588  1.00  0.00     0.000 HD 
ENDBRANCH  14  15
ENDBRANCH  13  14
ENDBRANCH   4  13
BRANCH   5  20
HETATM   20  N   UNL     1     -12.092  12.536  66.959  1.00  0.00    -0.211 N  
HETATM   21  H   UNL     1     -12.918  11.974  67.165  1.00  0.00     0.000 HD 
HETATM   22  C   UNL     1     -12.035  12.915  65.605  1.00  0.00    -0.440 C  
HETATM   23  O   UNL     1     -12.978  12.622  64.885  1.00  0.00    -0.830 OA 
BRANCH  22  24
HETATM   24  C   UNL     1     -10.785  13.493  64.963  1.00  0.00    -0.357 C  
BRANCH  24  25
HETATM   25  C   UNL     1     -10.326  14.825  65.340  1.00  0.00    -0.386 A  
HETATM   26  O   UNL     1      -9.245  15.016  66.159  1.00  0.00    -0.292 OA 
HETATM   27  C   UNL     1     -10.993  16.036  65.201  1.00  0.00    -0.360 A  
HETATM   28  C   UNL     1      -9.308  16.298  66.618  1.00  0.00    -0.248 A  
HETATM   29  C   UNL     1     -10.376  16.964  66.067  1.00  0.00    -0.335 A  
ENDBRANCH  24  25
BRANCH  24  30
HETATM   30  N   UNL     1     -10.147  13.007  63.940  1.00  0.00    -0.757 NA 
HETATM   31  H   UNL     1      -9.529  13.638  63.431  1.00  0.00     0.000 HD 
BRANCH  30  32
HETATM   32  O   UNL     1     -10.238  11.695  63.481  1.00  0.00    -0.353 OA 
HETATM   33  C   UNL     1      -9.513  10.654  64.093  1.00  0.00    -0.281 C  
ENDBRANCH  30  32
ENDBRANCH  24  30
ENDBRANCH  22  24
ENDBRANCH   5  20
TORSDOF 8
ENDMDL
MODEL       37
REMARK 921   NORMALIZED FREE ENERGY PREDICTED BY IDOCK:   -6.07 KCAL/MOL
REMARK 922        TOTAL FREE ENERGY PREDICTED BY IDOCK:  -10.30 KCAL/MOL
REMARK 923 INTER-LIGAND FREE ENERGY PREDICTED BY IDOCK:   -8.83 KCAL/MOL
REMARK 924 INTRA-LIGAND FREE ENERGY PREDICTED BY IDOCK:   -1.47 KCAL/MOL
REMARK 927      BINDING AFFINITY PREDICTED BY RF-SCORE:    0.00 PKD
ROOT
HETATM    1  C   UNL     1     -10.602  15.898  69.738  1.00  0.00    -0.322 C  
HETATM    2  S   UNL     1     -12.258  15.298  69.941  1.00  0.00    -0.298 SA 
HETATM    3  C   UNL     1     -12.239  13.696  69.090  1.00  0.00    -0.224 C  
HETATM    4  C   UNL     1     -10.947  13.184  68.518  1.00  0.00    -0.289 C  
HETATM    5  CA  UNL     1     -10.052  17.223  69.026  1.00  0.00    -0.302 C  
HETATM    6  CA  UNL     1      -9.780  13.855  68.477  1.00  0.00    -0.202 C  
HETATM    7  C   UNL     1      -8.935  16.240  68.580  1.00  0.00    -0.232 C  
HETATM    8  C   UNL     1      -8.546  13.180  67.950  1.00  0.00    -0.185 C  
HETATM    9  N   UNL     1      -9.716  15.180  68.866  1.00  0.00    -0.216 N  
HETATM   10  OXT UNL     1      -8.326  11.999  68.172  1.00  0.00    -0.151 OA 
HETATM   11  O   UNL     1      -7.899  16.321  67.989  1.00  0.00    -0.145 OA 
HETATM   12  O   UNL     1      -7.677  13.927  67.252  1.00  0.00    -0.164 OA 
ENDROOT
BRANCH   4  13
HETATM   13  C   UNL     1     -11.139  11.829  67.831  1.00  0.00    -0.245 C  
BRANCH  13  14
HETATM   14  O   UNL     1     -12.128  11.878  66.784  1.00  0.00    -0.593 OA 
BRANCH  14  15
HETATM   15  C   UNL     1     -11.744  12.401  65.603  1.00  0.00    -0.414 C  
HETATM   16  O   UNL     1     -10.690  12.194  65.021  1.00  0.00    -0.277 OA 
HETATM   17  N   UNL     1     -12.686  13.259  65.146  1.00  0.00    -0.666 N  
HETATM   18  H2  UNL     1     -13.559  13.477  65.625  1.00  0.00     0.000 HD 
HETATM   19  H1  UNL     1     -12.394  13.655  64.252  1.00  0.00     0.000 HD 
ENDBRANCH  14  15
ENDBRANCH  13  14
ENDBRANCH   4  13
BRANCH   5  20
HETATM   20  N   UNL     1     -10.499  18.071  67.850  1.00  0.00    -0.395 N  
HETATM   21  H   UNL     1     -11.378  17.739  67.453  1.00  0.00     0.000 HD 
HETATM   22  C   UNL     1     -10.005  19.199  67.169  1.00  0.00    -0.356 C  
HETATM   23  O   UNL     1     -10.692  19.684  66.284  1.00  0.00    -0.460 OA 
BRANCH  22  24
HETATM   24  C   UNL     1      -8.587  19.714  67.351  1.00  0.00    -0.306 C  
BRANCH  24  25
HETATM   25  C   UNL     1      -7.636  19.622  66.249  1.00  0.00    -0.308 A  
HETATM   26  O   UNL     1      -7.302  18.423  65.675  1.00  0.00    -0.510 OA 
HETATM   27  C   UNL     1      -6.745  20.589  65.797  1.00  0.00    -0.254 A  
HETATM   28  C   UNL     1      -6.150  18.618  64.973  1.00  0.00    -0.231 A  
HETATM   29  C   UNL     1      -5.759  19.934  65.028  1.00  0.00    -0.228 A  
ENDBRANCH  24  25
BRANCH  24  30
HETATM   30  N   UNL     1      -8.032  20.073  68.470  1.00  0.00    -0.177 NA 
HETATM   31  H   UNL     1      -8.499  20.800  69.011  1.00  0.00     0.000 HD 
BRANCH  30  32
HETATM   32  O   UNL     1      -6.853  19.546  68.992  1.00  0.00    -0.319 OA 
HETATM   33  C   UNL     1      -5.906  20.369  69.632  1.00  0.00    -0.361 C  
ENDBRANCH  30  32
ENDBRANCH  24  30
ENDBRANCH  22  24
ENDBRANCH   5  20
TORSDOF 8
ENDMDL
MODEL       38
REMARK 921   NORMALIZED FREE ENERGY PREDICTED BY IDOCK:   -6.07 KCAL/MOL
REMARK 922        TOTAL FREE ENERGY PREDICTED BY IDOCK:  -10.30 KCAL/MOL
REMARK 923 INTER-LIGAND FREE ENERGY PREDICTED BY IDOCK:   -9.18 KCAL/MOL
REMARK 924 INTRA-LIGAND FREE ENERGY PREDICTED BY IDOCK:   -1.12 KCAL/MOL
REMARK 927      BINDING AFFINITY PREDICTED BY RF-SCORE:    0.00 PKD
ROOT
HETATM    1  C   UNL     1     -10.944  13.062  66.286  1.00  0.00    -0.284 C  
HETATM    2  S   UNL     1      -9.459  12.849  67.231  1.00  0.00    -0.224 SA 
HETATM    3  C   UNL     1      -8.586  14.425  67.015  1.00  0.00    -0.203 C  
HETATM    4  C   UNL     1      -9.249  15.531  66.243  1.00  0.00    -0.364 C  
HETATM    5  CA  UNL     1     -11.506  12.244  65.029  1.00  0.00    -0.336 C  
HETATM    6  CA  UNL     1     -10.419  15.443  65.583  1.00  0.00    -0.372 C  
HETATM    7  C   UNL     1     -11.930  13.672  64.585  1.00  0.00    -0.407 C  
HETATM    8  C   UNL     1     -11.002  16.661  64.925  1.00  0.00    -0.150 C  
HETATM    9  N   UNL     1     -11.067  14.228  65.459  1.00  0.00    -0.313 N  
HETATM   10  OXT UNL     1     -10.910  17.765  65.440  1.00  0.00    -0.550 OA 
HETATM   11  O   UNL     1     -12.558  14.145  63.685  1.00  0.00    -0.831 OA 
HETATM   12  O   UNL     1     -11.655  16.492  63.765  1.00  0.00    -1.109 OA 
ENDROOT
BRANCH   4  13
HETATM   13  C   UNL     1      -8.351  16.769  66.159  1.00  0.00    -0.266 C  
BRANCH  13  14
HETATM   14  O   UNL     1      -8.052  17.322  67.455  1.00  0.00    -0.183 OA 
BRANCH  14  15
HETATM   15  C   UNL     1      -8.856  18.308  67.900  1.00  0.00    -0.269 C  
HETATM   16  O   UNL     1      -9.964  18.179  68.397  1.00  0.00    -0.339 OA 
HETATM   17  N   UNL     1      -8.284  19.513  67.671  1.00  0.00    -0.289 N  
HETATM   18  H2  UNL     1      -7.376  19.654  67.228  1.00  0.00     0.000 HD 
HETATM   19  H1  UNL     1      -8.892  20.259  68.007  1.00  0.00     0.000 HD 
ENDBRANCH  14  15
ENDBRANCH  13  14
ENDBRANCH   4  13
BRANCH   5  20
HETATM   20  N   UNL     1     -10.876  11.503  63.865  1.00  0.00    -0.377 N  
HETATM   21  H   UNL     1     -11.330  11.727  62.980  1.00  0.00     0.000 HD 
HETATM   22  C   UNL     1      -9.823  10.585  63.701  1.00  0.00    -0.293 C  
HETATM   23  O   UNL     1      -9.526  10.245  62.566  1.00  0.00    -0.296 OA 
BRANCH  22  24
HETATM   24  C   UNL     1      -9.176   9.857  64.868  1.00  0.00    -0.246 C  
BRANCH  24  25
HETATM   25  C   UNL     1      -7.729   9.903  65.038  1.00  0.00    -0.133 A  
HETATM   26  O   UNL     1      -7.147  10.079  66.266  1.00  0.00    -0.096 OA 
HETATM   27  C   UNL     1      -6.751  10.057  64.062  1.00  0.00    -0.128 A  
HETATM   28  C   UNL     1      -5.854  10.455  66.050  1.00  0.00    -0.093 A  
HETATM   29  C   UNL     1      -5.565  10.469  64.707  1.00  0.00    -0.126 A  
ENDBRANCH  24  25
BRANCH  24  30
HETATM   30  N   UNL     1      -9.754   9.006  65.663  1.00  0.00    -0.462 NA 
HETATM   31  H   UNL     1      -9.763   8.028  65.375  1.00  0.00     0.000 HD 
BRANCH  30  32
HETATM   32  O   UNL     1     -10.361   9.320  66.877  1.00  0.00    -0.249 OA 
HETATM   33  C   UNL     1     -10.418   8.386  67.929  1.00  0.00    -0.193 C  
ENDBRANCH  30  32
ENDBRANCH  24  30
ENDBRANCH  22  24
ENDBRANCH   5  20
TORSDOF 8
ENDMDL
MODEL       39
REMARK 921   NORMALIZED FREE ENERGY PREDICTED BY IDOCK:   -6.02 KCAL/MOL
REMARK 922        TOTAL FREE ENERGY PREDICTED BY IDOCK:  -10.22 KCAL/MOL
REMARK 923 INTER-LIGAND FREE ENERGY PREDICTED BY IDOCK:   -8.86 KCAL/MOL
REMARK 924 INTRA-LIGAND FREE ENERGY PREDICTED BY IDOCK:   -1.37 KCAL/MOL
REMARK 927      BINDING AFFINITY PREDICTED BY RF-SCORE:    0.00 PKD
ROOT
HETATM    1  C   UNL     1      -9.296   9.839  65.763  1.00  0.00    -0.221 C  
HETATM    2  S   UNL     1      -9.409  10.244  64.041  1.00  0.00    -0.305 SA 
HETATM    3  C   UNL     1     -10.753  11.461  63.977  1.00  0.00    -0.387 C  
HETATM    4  C   UNL     1     -11.388  11.923  65.258  1.00  0.00    -0.333 C  
HETATM    5  CA  UNL     1      -9.478   8.438  66.519  1.00  0.00    -0.220 C  
HETATM    6  CA  UNL     1     -11.127  11.439  66.487  1.00  0.00    -0.251 C  
HETATM    7  C   UNL     1     -10.166   9.358  67.566  1.00  0.00    -0.231 C  
HETATM    8  C   UNL     1     -11.778  12.059  67.691  1.00  0.00    -0.294 C  
HETATM    9  N   UNL     1     -10.307  10.339  66.651  1.00  0.00    -0.230 N  
HETATM   10  OXT UNL     1     -11.961  13.265  67.761  1.00  0.00    -0.349 OA 
HETATM   11  O   UNL     1     -10.630   9.225  68.659  1.00  0.00    -0.215 OA 
HETATM   12  O   UNL     1     -12.126  11.247  68.700  1.00  0.00    -0.543 OA 
ENDROOT
BRANCH   4  13
HETATM   13  C   UNL     1     -12.507  12.934  64.995  1.00  0.00    -0.492 C  
BRANCH  13  14
HETATM   14  O   UNL     1     -12.165  13.878  63.961  1.00  0.00    -0.573 OA 
BRANCH  14  15
HETATM   15  C   UNL     1     -11.926  15.147  64.346  1.00  0.00    -0.310 C  
HETATM   16  O   UNL     1     -12.253  16.164  63.754  1.00  0.00    -0.934 OA 
HETATM   17  N   UNL     1     -11.205  15.157  65.492  1.00  0.00    -0.340 N  
HETATM   18  H2  UNL     1     -10.889  14.325  65.991  1.00  0.00     0.000 HD 
HETATM   19  H1  UNL     1     -11.024  16.118  65.783  1.00  0.00     0.000 HD 
ENDBRANCH  14  15
ENDBRANCH  13  14
ENDBRANCH   4  13
BRANCH   5  20
HETATM   20  N   UNL     1     -10.319   7.197  66.285  1.00  0.00    -0.412 N  
HETATM   21  H   UNL     1     -10.978   7.322  65.518  1.00  0.00     0.000 HD 
HETATM   22  C   UNL     1     -10.416   5.918  66.863  1.00  0.00    -0.286 C  
HETATM   23  O   UNL     1     -11.176   5.111  66.350  1.00  0.00     0.058 OA 
BRANCH  22  24
HETATM   24  C   UNL     1      -9.776   5.565  68.195  1.00  0.00    -0.132 C  
BRANCH  24  25
HETATM   25  C   UNL     1     -10.513   5.781  69.434  1.00  0.00    -0.290 A  
HETATM   26  O   UNL     1     -11.736   6.398  69.453  1.00  0.00    -0.327 OA 
HETATM   27  C   UNL     1     -10.049   5.683  70.741  1.00  0.00    -0.270 A  
HETATM   28  C   UNL     1     -11.973   6.785  70.739  1.00  0.00    -0.378 A  
HETATM   29  C   UNL     1     -10.956   6.379  71.569  1.00  0.00    -0.310 A  
ENDBRANCH  24  25
BRANCH  24  30
HETATM   30  N   UNL     1      -8.529   5.254  68.395  1.00  0.00    -0.096 NA 
HETATM   31  H   UNL     1      -7.910   5.993  68.726  1.00  0.00     0.000 HD 
BRANCH  30  32
HETATM   32  O   UNL     1      -7.969   3.995  68.193  1.00  0.00    -0.076 OA 
HETATM   33  C   UNL     1      -8.774   2.843  68.101  1.00  0.00    -0.106 C  
ENDBRANCH  30  32
ENDBRANCH  24  30
ENDBRANCH  22  24
ENDBRANCH   5  20
TORSDOF 8
ENDMDL
MODEL       40
REMARK 921   NORMALIZED FREE ENERGY PREDICTED BY IDOCK:   -6.01 KCAL/MOL
REMARK 922        TOTAL FREE ENERGY PREDICTED BY IDOCK:  -10.22 KCAL/MOL
REMARK 923 INTER-LIGAND FREE ENERGY PREDICTED BY IDOCK:   -9.42 KCAL/MOL
REMARK 924 INTRA-LIGAND FREE ENERGY PREDICTED BY IDOCK:   -0.79 KCAL/MOL
REMARK 927      BINDING AFFINITY PREDICTED BY RF-SCORE:    0.00 PKD
ROOT
HETATM    1  C   UNL     1      -9.418  10.434  66.683  1.00  0.00    -0.165 C  
HETATM    2  S   UNL     1      -9.543  10.217  64.928  1.00  0.00    -0.319 SA 
HETATM    3  C   UNL     1     -10.889  11.338  64.454  1.00  0.00    -0.303 C  
HETATM    4  C   UNL     1     -11.515  12.216  65.500  1.00  0.00    -0.394 C  
HETATM    5  CA  UNL     1      -9.594   9.384  67.880  1.00  0.00    -0.134 C  
HETATM    6  CA  UNL     1     -11.246  12.189  66.819  1.00  0.00    -0.322 C  
HETATM    7  C   UNL     1     -10.275  10.612  68.546  1.00  0.00    -0.175 C  
HETATM    8  C   UNL     1     -11.889  13.191  67.736  1.00  0.00    -0.348 C  
HETATM    9  N   UNL     1     -10.423  11.214  67.349  1.00  0.00    -0.209 N  
HETATM   10  OXT UNL     1     -12.072  14.346  67.384  1.00  0.00    -0.397 OA 
HETATM   11  O   UNL     1     -10.732  10.868  69.621  1.00  0.00    -0.238 OA 
HETATM   12  O   UNL     1     -12.229  12.780  68.967  1.00  0.00    -0.196 OA 
ENDROOT
BRANCH   4  13
HETATM   13  C   UNL     1     -12.637  13.075  64.909  1.00  0.00    -0.428 C  
BRANCH  13  14
HETATM   14  O   UNL     1     -12.180  13.909  63.826  1.00  0.00    -0.588 OA 
BRANCH  14  15
HETATM   15  C   UNL     1     -11.790  15.160  64.140  1.00  0.00    -0.148 C  
HETATM   16  O   UNL     1     -12.392  16.195  63.901  1.00  0.00    -0.895 OA 
HETATM   17  N   UNL     1     -10.573  15.132  64.733  1.00  0.00    -0.566 N  
HETATM   18  H2  UNL     1     -10.031  14.288  64.916  1.00  0.00     0.000 HD 
HETATM   19  H1  UNL     1     -10.278  16.080  64.970  1.00  0.00     0.000 HD 
ENDBRANCH  14  15
ENDBRANCH  13  14
ENDBRANCH   4  13
BRANCH   5  20
HETATM   20  N   UNL     1     -10.435   8.141  68.098  1.00  0.00    -0.325 N  
HETATM   21  H   UNL     1     -10.762   7.742  67.218  1.00  0.00     0.000 HD 
HETATM   22  C   UNL     1     -10.877   7.400  69.210  1.00  0.00    -0.137 C  
HETATM   23  O   UNL     1     -11.495   6.367  69.005  1.00  0.00    -0.337 OA 
BRANCH  22  24
HETATM   24  C   UNL     1     -10.792   7.924  70.634  1.00  0.00    -0.237 C  
BRANCH  24  25
HETATM   25  C   UNL     1     -12.015   8.235  71.366  1.00  0.00    -0.299 A  
HETATM   26  O   UNL     1     -13.096   7.394  71.365  1.00  0.00    -0.364 OA 
HETATM   27  C   UNL     1     -12.405   9.453  71.912  1.00  0.00    -0.450 A  
HETATM   28  C   UNL     1     -14.170   8.117  71.794  1.00  0.00    -0.462 A  
HETATM   29  C   UNL     1     -13.798   9.396  72.131  1.00  0.00    -0.433 A  
ENDBRANCH  24  25
BRANCH  24  30
HETATM   30  N   UNL     1      -9.719   8.323  71.248  1.00  0.00    -0.167 NA 
HETATM   31  H   UNL     1      -9.365   9.251  71.016  1.00  0.00     0.000 HD 
BRANCH  30  32
HETATM   32  O   UNL     1      -9.011   7.589  72.197  1.00  0.00    -0.125 OA 
HETATM   33  C   UNL     1      -8.996   7.969  73.553  1.00  0.00    -0.260 C  
ENDBRANCH  30  32
ENDBRANCH  24  30
ENDBRANCH  22  24
ENDBRANCH   5  20
TORSDOF 8
ENDMDL
MODEL       41
REMARK 921   NORMALIZED FREE ENERGY PREDICTED BY IDOCK:   -6.00 KCAL/MOL
REMARK 922        TOTAL FREE ENERGY PREDICTED BY IDOCK:  -10.20 KCAL/MOL
REMARK 923 INTER-LIGAND FREE ENERGY PREDICTED BY IDOCK:   -8.92 KCAL/MOL
REMARK 924 INTRA-LIGAND FREE ENERGY PREDICTED BY IDOCK:   -1.28 KCAL/MOL
REMARK 927      BINDING AFFINITY PREDICTED BY RF-SCORE:    0.00 PKD
ROOT
HETATM    1  C   UNL     1     -12.025  10.863  69.624  1.00  0.00    -0.343 C  
HETATM    2  S   UNL     1     -12.911  10.159  70.989  1.00  0.00    -0.379 SA 
HETATM    3  C   UNL     1     -13.381  11.604  71.982  1.00  0.00    -0.300 C  
HETATM    4  C   UNL     1     -13.056  12.980  71.475  1.00  0.00    -0.400 C  
HETATM    5  CA  UNL     1     -10.515  10.645  69.137  1.00  0.00    -0.222 C  
HETATM    6  CA  UNL     1     -12.337  13.267  70.373  1.00  0.00    -0.295 C  
HETATM    7  C   UNL     1     -10.632  12.169  68.855  1.00  0.00    -0.146 C  
HETATM    8  C   UNL     1     -12.165  14.695  69.941  1.00  0.00    -0.316 C  
HETATM    9  N   UNL     1     -11.708  12.262  69.662  1.00  0.00    -0.317 N  
HETATM   10  OXT UNL     1     -13.073  15.505  70.054  1.00  0.00    -0.088 OA 
HETATM   11  O   UNL     1      -9.946  13.009  68.353  1.00  0.00    -0.231 OA 
HETATM   12  O   UNL     1     -10.990  15.046  69.398  1.00  0.00    -0.244 OA 
ENDROOT
BRANCH   4  13
HETATM   13  C   UNL     1     -13.518  14.061  72.457  1.00  0.00    -0.558 C  
BRANCH  13  14
HETATM   14  O   UNL     1     -12.465  14.485  73.344  1.00  0.00    -0.360 OA 
BRANCH  14  15
HETATM   15  C   UNL     1     -12.350  15.808  73.568  1.00  0.00    -0.552 C  
HETATM   16  O   UNL     1     -12.721  16.417  74.560  1.00  0.00    -0.732 OA 
HETATM   17  N   UNL     1     -11.796  16.415  72.492  1.00  0.00    -0.529 N  
HETATM   18  H2  UNL     1     -11.508  15.940  71.637  1.00  0.00     0.000 HD 
HETATM   19  H1  UNL     1     -11.710  17.417  72.662  1.00  0.00     0.000 HD 
ENDBRANCH  14  15
ENDBRANCH  13  14
ENDBRANCH   4  13
BRANCH   5  20
HETATM   20  N   UNL     1      -9.199  10.344  69.830  1.00  0.00    -0.411 N  
HETATM   21  H   UNL     1      -8.518  11.091  69.696  1.00  0.00     0.000 HD 
HETATM   22  C   UNL     1      -8.684   9.293  70.610  1.00  0.00    -0.234 C  
HETATM   23  O   UNL     1      -7.569   9.425  71.091  1.00  0.00    -0.306 OA 
BRANCH  22  24
HETATM   24  C   UNL     1      -9.364   7.937  70.717  1.00  0.00    -0.157 C  
BRANCH  24  25
HETATM   25  C   UNL     1      -9.767   7.231  69.507  1.00  0.00    -0.158 A  
HETATM   26  O   UNL     1      -9.307   7.592  68.268  1.00  0.00    -0.141 OA 
HETATM   27  C   UNL     1     -10.815   6.333  69.343  1.00  0.00    -0.404 A  
HETATM   28  C   UNL     1     -10.135   7.020  67.348  1.00  0.00    -0.195 A  
HETATM   29  C   UNL     1     -11.088   6.244  67.961  1.00  0.00    -0.365 A  
ENDBRANCH  24  25
BRANCH  24  30
HETATM   30  N   UNL     1      -9.819   7.385  71.802  1.00  0.00    -0.167 NA 
HETATM   31  H   UNL     1     -10.831   7.366  71.928  1.00  0.00     0.000 HD 
BRANCH  30  32
HETATM   32  O   UNL     1      -9.040   6.817  72.807  1.00  0.00    -0.135 OA 
HETATM   33  C   UNL     1      -9.382   6.959  74.166  1.00  0.00    -0.235 C  
ENDBRANCH  30  32
ENDBRANCH  24  30
ENDBRANCH  22  24
ENDBRANCH   5  20
TORSDOF 8
ENDMDL
MODEL       42
REMARK 921   NORMALIZED FREE ENERGY PREDICTED BY IDOCK:   -5.99 KCAL/MOL
REMARK 922        TOTAL FREE ENERGY PREDICTED BY IDOCK:  -10.19 KCAL/MOL
REMARK 923 INTER-LIGAND FREE ENERGY PREDICTED BY IDOCK:   -8.84 KCAL/MOL
REMARK 924 INTRA-LIGAND FREE ENERGY PREDICTED BY IDOCK:   -1.36 KCAL/MOL
REMARK 927      BINDING AFFINITY PREDICTED BY RF-SCORE:    0.00 PKD
ROOT
HETATM    1  C   UNL     1     -11.218  12.847  69.283  1.00  0.00    -0.190 C  
HETATM    2  S   UNL     1     -12.538  13.110  70.437  1.00  0.00    -0.041 SA 
HETATM    3  C   UNL     1     -12.657  11.528  71.317  1.00  0.00    -0.347 C  
HETATM    4  C   UNL     1     -11.667  10.441  71.010  1.00  0.00    -0.430 C  
HETATM    5  CA  UNL     1     -11.204  12.909  67.683  1.00  0.00    -0.278 C  
HETATM    6  CA  UNL     1     -10.728  10.476  70.045  1.00  0.00    -0.224 C  
HETATM    7  C   UNL     1     -10.253  11.696  67.876  1.00  0.00    -0.189 C  
HETATM    8  C   UNL     1      -9.748   9.346  69.910  1.00  0.00    -0.212 C  
HETATM    9  N   UNL     1     -10.690  11.520  69.139  1.00  0.00    -0.200 N  
HETATM   10  OXT UNL     1      -9.296   8.779  70.893  1.00  0.00    -0.176 OA 
HETATM   11  O   UNL     1      -9.581  11.004  67.169  1.00  0.00    -0.167 OA 
HETATM   12  O   UNL     1      -9.362   9.000  68.673  1.00  0.00    -0.137 OA 
ENDROOT
BRANCH   4  13
HETATM   13  C   UNL     1     -11.941   9.183  71.840  1.00  0.00    -0.373 C  
BRANCH  13  14
HETATM   14  O   UNL     1     -12.726   8.211  71.123  1.00  0.00    -0.243 OA 
BRANCH  14  15
HETATM   15  C   UNL     1     -12.309   6.930  71.175  1.00  0.00    -0.370 C  
HETATM   16  O   UNL     1     -12.376   6.178  72.134  1.00  0.00    -0.299 OA 
HETATM   17  N   UNL     1     -11.737   6.581  69.999  1.00  0.00    -0.584 N  
HETATM   18  H2  UNL     1     -11.636   7.196  69.192  1.00  0.00     0.000 HD 
HETATM   19  H1  UNL     1     -11.421   5.611  70.038  1.00  0.00     0.000 HD 
ENDBRANCH  14  15
ENDBRANCH  13  14
ENDBRANCH   4  13
BRANCH   5  20
HETATM   20  N   UNL     1     -12.214  12.609  66.591  1.00  0.00    -0.174 N  
HETATM   21  H   UNL     1     -13.112  12.313  66.973  1.00  0.00     0.000 HD 
HETATM   22  C   UNL     1     -12.221  12.637  65.184  1.00  0.00    -0.481 C  
HETATM   23  O   UNL     1     -13.273  12.404  64.609  1.00  0.00    -0.822 OA 
BRANCH  22  24
HETATM   24  C   UNL     1     -10.952  12.750  64.356  1.00  0.00    -0.361 C  
BRANCH  24  25
HETATM   25  C   UNL     1     -10.347  11.550  63.790  1.00  0.00    -0.399 A  
HETATM   26  O   UNL     1     -10.354  10.351  64.453  1.00  0.00    -0.304 OA 
HETATM   27  C   UNL     1      -9.474  11.451  62.713  1.00  0.00    -0.314 A  
HETATM   28  C   UNL     1      -9.410   9.560  63.867  1.00  0.00     0.091 A  
HETATM   29  C   UNL     1      -8.831  10.198  62.798  1.00  0.00    -0.236 A  
ENDBRANCH  24  25
BRANCH  24  30
HETATM   30  N   UNL     1     -10.199  13.802  64.236  1.00  0.00    -0.737 NA 
HETATM   31  H   UNL     1      -9.417  13.746  63.584  1.00  0.00     0.000 HD 
BRANCH  30  32
HETATM   32  O   UNL     1     -10.372  15.001  64.923  1.00  0.00    -0.383 OA 
HETATM   33  C   UNL     1      -9.394  15.479  65.817  1.00  0.00    -0.257 C  
ENDBRANCH  30  32
ENDBRANCH  24  30
ENDBRANCH  22  24
ENDBRANCH   5  20
TORSDOF 8
ENDMDL
MODEL       43
REMARK 921   NORMALIZED FREE ENERGY PREDICTED BY IDOCK:   -5.96 KCAL/MOL
REMARK 922        TOTAL FREE ENERGY PREDICTED BY IDOCK:  -10.14 KCAL/MOL
REMARK 923 INTER-LIGAND FREE ENERGY PREDICTED BY IDOCK:   -9.51 KCAL/MOL
REMARK 924 INTRA-LIGAND FREE ENERGY PREDICTED BY IDOCK:   -0.64 KCAL/MOL
REMARK 927      BINDING AFFINITY PREDICTED BY RF-SCORE:    0.00 PKD
ROOT
HETATM    1  C   UNL     1      -9.940  14.060  66.438  1.00  0.00    -0.294 C  
HETATM    2  S   UNL     1      -8.540  13.309  67.223  1.00  0.00    -0.200 SA 
HETATM    3  C   UNL     1      -8.471  11.654  66.481  1.00  0.00    -0.141 C  
HETATM    4  C   UNL     1      -9.443  11.298  65.392  1.00  0.00    -0.251 C  
HETATM    5  CA  UNL     1     -11.299  14.637  67.059  1.00  0.00    -0.355 C  
HETATM    6  CA  UNL     1     -10.463  12.064  64.961  1.00  0.00    -0.287 C  
HETATM    7  C   UNL     1     -11.887  13.996  65.771  1.00  0.00    -0.383 C  
HETATM    8  C   UNL     1     -11.302  11.611  63.800  1.00  0.00    -0.393 C  
HETATM    9  N   UNL     1     -10.780  13.243  65.610  1.00  0.00    -0.278 N  
HETATM   10  OXT UNL     1     -10.806  11.025  62.851  1.00  0.00     0.076 OA 
HETATM   11  O   UNL     1     -12.956  13.953  65.239  1.00  0.00    -0.747 OA 
HETATM   12  O   UNL     1     -12.612  11.899  63.829  1.00  0.00    -0.464 OA 
ENDROOT
BRANCH   4  13
HETATM   13  C   UNL     1      -9.236   9.860  64.908  1.00  0.00    -0.246 C  
BRANCH  13  14
HETATM   14  O   UNL     1      -8.846   8.971  65.973  1.00  0.00    -0.153 OA 
BRANCH  14  15
HETATM   15  C   UNL     1      -9.826   8.271  66.576  1.00  0.00    -0.253 C  
HETATM   16  O   UNL     1     -10.591   8.677  67.437  1.00  0.00    -0.274 OA 
HETATM   17  N   UNL     1      -9.827   6.993  66.128  1.00  0.00    -0.413 N  
HETATM   18  H2  UNL     1      -9.181   6.616  65.435  1.00  0.00     0.000 HD 
HETATM   19  H1  UNL     1     -10.570   6.463  66.585  1.00  0.00     0.000 HD 
ENDBRANCH  14  15
ENDBRANCH  13  14
ENDBRANCH   4  13
BRANCH   5  20
HETATM   20  N   UNL     1     -12.163  14.286  68.256  1.00  0.00    -0.591 N  
HETATM   21  H   UNL     1     -12.873  13.592  68.023  1.00  0.00     0.000 HD 
HETATM   22  C   UNL     1     -12.230  14.678  69.605  1.00  0.00    -0.283 C  
HETATM   23  O   UNL     1     -13.030  14.108  70.332  1.00  0.00    -0.278 OA 
BRANCH  22  24
HETATM   24  C   UNL     1     -11.501  15.897  70.146  1.00  0.00    -0.361 C  
BRANCH  24  25
HETATM   25  C   UNL     1     -10.387  16.466  69.398  1.00  0.00    -0.290 A  
HETATM   26  O   UNL     1      -9.128  15.927  69.446  1.00  0.00    -0.250 OA 
HETATM   27  C   UNL     1     -10.309  17.710  68.781  1.00  0.00    -0.348 A  
HETATM   28  C   UNL     1      -8.266  16.873  68.976  1.00  0.00    -0.153 A  
HETATM   29  C   UNL     1      -8.944  17.995  68.566  1.00  0.00    -0.297 A  
ENDBRANCH  24  25
BRANCH  24  30
HETATM   30  N   UNL     1     -11.629  16.410  71.334  1.00  0.00    -0.597 NA 
HETATM   31  H   UNL     1     -11.729  17.422  71.398  1.00  0.00     0.000 HD 
BRANCH  30  32
HETATM   32  O   UNL     1     -11.640  15.691  72.526  1.00  0.00    -0.439 OA 
HETATM   33  C   UNL     1     -12.309  16.176  73.667  1.00  0.00    -0.562 C  
ENDBRANCH  30  32
ENDBRANCH  24  30
ENDBRANCH  22  24
ENDBRANCH   5  20
TORSDOF 8
ENDMDL
MODEL       44
REMARK 921   NORMALIZED FREE ENERGY PREDICTED BY IDOCK:   -5.96 KCAL/MOL
REMARK 922        TOTAL FREE ENERGY PREDICTED BY IDOCK:  -10.14 KCAL/MOL
REMARK 923 INTER-LIGAND FREE ENERGY PREDICTED BY IDOCK:   -8.66 KCAL/MOL
REMARK 924 INTRA-LIGAND FREE ENERGY PREDICTED BY IDOCK:   -1.47 KCAL/MOL
REMARK 927      BINDING AFFINITY PREDICTED BY RF-SCORE:    0.00 PKD
ROOT
HETATM    1  C   UNL     1     -10.643   9.680  68.019  1.00  0.00    -0.243 C  
HETATM    2  S   UNL     1      -9.223   8.685  67.651  1.00  0.00    -0.134 SA 
HETATM    3  C   UNL     1      -8.989   7.703  69.158  1.00  0.00    -0.135 C  
HETATM    4  C   UNL     1      -9.984   7.826  70.277  1.00  0.00    -0.189 C  
HETATM    5  CA  UNL     1     -10.814  11.272  68.083  1.00  0.00    -0.217 C  
HETATM    6  CA  UNL     1     -11.012   8.694  70.328  1.00  0.00    -0.236 C  
HETATM    7  C   UNL     1     -11.720  10.893  69.288  1.00  0.00    -0.324 C  
HETATM    8  C   UNL     1     -11.980   8.644  71.476  1.00  0.00    -0.306 C  
HETATM    9  N   UNL     1     -11.158   9.669  69.359  1.00  0.00    -0.186 N  
HETATM   10  OXT UNL     1     -12.322   7.581  71.970  1.00  0.00    -0.298 OA 
HETATM   11  O   UNL     1     -12.443  11.475  70.040  1.00  0.00    -0.213 OA 
HETATM   12  O   UNL     1     -12.477   9.807  71.923  1.00  0.00    -0.381 OA 
ENDROOT
BRANCH   4  13
HETATM   13  C   UNL     1      -9.606   6.933  71.462  1.00  0.00    -0.162 C  
BRANCH  13  14
HETATM   14  O   UNL     1      -8.495   7.457  72.215  1.00  0.00    -0.109 OA 
BRANCH  14  15
HETATM   15  C   UNL     1      -8.746   7.860  73.476  1.00  0.00    -0.261 C  
HETATM   16  O   UNL     1      -8.061   8.609  74.154  1.00  0.00    -0.373 OA 
HETATM   17  N   UNL     1      -9.873   7.267  73.938  1.00  0.00    -0.342 N  
HETATM   18  H2  UNL     1     -10.447   6.611  73.408  1.00  0.00     0.000 HD 
HETATM   19  H1  UNL     1     -10.063   7.572  74.892  1.00  0.00     0.000 HD 
ENDBRANCH  14  15
ENDBRANCH  13  14
ENDBRANCH   4  13
BRANCH   5  20
HETATM   20  N   UNL     1      -9.910  12.431  68.456  1.00  0.00    -0.341 N  
HETATM   21  H   UNL     1      -8.945  12.133  68.595  1.00  0.00     0.000 HD 
HETATM   22  C   UNL     1     -10.070  13.815  68.659  1.00  0.00    -0.193 C  
HETATM   23  O   UNL     1      -9.072  14.484  68.878  1.00  0.00    -0.180 OA 
BRANCH  22  24
HETATM   24  C   UNL     1     -11.431  14.473  68.811  1.00  0.00    -0.294 C  
BRANCH  24  25
HETATM   25  C   UNL     1     -11.924  14.820  70.139  1.00  0.00    -0.312 A  
HETATM   26  O   UNL     1     -13.248  14.711  70.474  1.00  0.00    -0.301 OA 
HETATM   27  C   UNL     1     -11.275  15.535  71.139  1.00  0.00    -0.423 A  
HETATM   28  C   UNL     1     -13.441  15.450  71.604  1.00  0.00    -0.502 A  
HETATM   29  C   UNL     1     -12.257  15.988  72.046  1.00  0.00    -0.582 A  
ENDBRANCH  24  25
BRANCH  24  30
HETATM   30  N   UNL     1     -12.334  14.603  67.885  1.00  0.00    -0.588 NA 
HETATM   31  H   UNL     1     -12.950  15.414  67.943  1.00  0.00     0.000 HD 
BRANCH  30  32
HETATM   32  O   UNL     1     -12.530  13.728  66.820  1.00  0.00    -0.366 OA 
HETATM   33  C   UNL     1     -12.472  14.176  65.485  1.00  0.00    -0.476 C  
ENDBRANCH  30  32
ENDBRANCH  24  30
ENDBRANCH  22  24
ENDBRANCH   5  20
TORSDOF 8
ENDMDL
MODEL       45
REMARK 921   NORMALIZED FREE ENERGY PREDICTED BY IDOCK:   -5.93 KCAL/MOL
REMARK 922        TOTAL FREE ENERGY PREDICTED BY IDOCK:  -10.10 KCAL/MOL
REMARK 923 INTER-LIGAND FREE ENERGY PREDICTED BY IDOCK:   -8.82 KCAL/MOL
REMARK 924 INTRA-LIGAND FREE ENERGY PREDICTED BY IDOCK:   -1.27 KCAL/MOL
REMARK 927      BINDING AFFINITY PREDICTED BY RF-SCORE:    0.00 PKD
ROOT
HETATM    1  C   UNL     1     -10.941  13.751  67.237  1.00  0.00    -0.292 C  
HETATM    2  S   UNL     1      -9.509  13.877  68.274  1.00  0.00    -0.214 SA 
HETATM    3  C   UNL     1      -8.661  15.356  67.654  1.00  0.00    -0.167 C  
HETATM    4  C   UNL     1      -9.303  16.167  66.564  1.00  0.00    -0.296 C  
HETATM    5  CA  UNL     1     -11.411  12.585  66.245  1.00  0.00    -0.370 C  
HETATM    6  CA  UNL     1     -10.431  15.848  65.902  1.00  0.00    -0.359 C  
HETATM    7  C   UNL     1     -11.841  13.807  65.387  1.00  0.00    -0.358 C  
HETATM    8  C   UNL     1     -11.003  16.801  64.892  1.00  0.00    -0.087 C  
HETATM    9  N   UNL     1     -11.043  14.624  66.103  1.00  0.00    -0.329 N  
HETATM   10  OXT UNL     1     -10.965  18.009  65.069  1.00  0.00    -0.748 OA 
HETATM   11  O   UNL     1     -12.427  13.977  64.359  1.00  0.00    -0.623 OA 
HETATM   12  O   UNL     1     -11.583  16.280  63.800  1.00  0.00    -0.952 OA 
ENDROOT
BRANCH   4  13
HETATM   13  C   UNL     1      -8.430  17.362  66.168  1.00  0.00    -0.163 C  
BRANCH  13  14
HETATM   14  O   UNL     1      -8.148  18.231  67.283  1.00  0.00    -0.225 OA 
BRANCH  14  15
HETATM   15  C   UNL     1      -8.597  19.498  67.198  1.00  0.00    -0.297 C  
HETATM   16  O   UNL     1      -7.953  20.481  66.869  1.00  0.00    -0.303 OA 
HETATM   17  N   UNL     1      -9.893  19.559  67.589  1.00  0.00    -0.344 N  
HETATM   18  H2  UNL     1     -10.447  18.762  67.901  1.00  0.00     0.000 HD 
HETATM   19  H1  UNL     1     -10.232  20.519  67.525  1.00  0.00     0.000 HD 
ENDBRANCH  14  15
ENDBRANCH  13  14
ENDBRANCH   4  13
BRANCH   5  20
HETATM   20  N   UNL     1     -10.698  11.566  65.377  1.00  0.00    -0.285 N  
HETATM   21  H   UNL     1     -10.524  11.920  64.437  1.00  0.00     0.000 HD 
HETATM   22  C   UNL     1     -10.218  10.253  65.545  1.00  0.00    -0.238 C  
HETATM   23  O   UNL     1      -9.598   9.745  64.623  1.00  0.00    -0.286 OA 
BRANCH  22  24
HETATM   24  C   UNL     1     -10.601   9.381  66.729  1.00  0.00    -0.139 C  
BRANCH  24  25
HETATM   25  C   UNL     1     -10.275   9.814  68.083  1.00  0.00    -0.186 A  
HETATM   26  O   UNL     1      -9.018   9.672  68.608  1.00  0.00    -0.126 OA 
HETATM   27  C   UNL     1     -11.147  10.151  69.112  1.00  0.00    -0.257 A  
HETATM   28  C   UNL     1      -9.130   9.802  69.961  1.00  0.00    -0.223 A  
HETATM   29  C   UNL     1     -10.425  10.084  70.322  1.00  0.00    -0.331 A  
ENDBRANCH  24  25
BRANCH  24  30
HETATM   30  N   UNL     1     -11.034   8.157  66.678  1.00  0.00    -0.115 NA 
HETATM   31  H   UNL     1     -11.723   7.934  65.960  1.00  0.00     0.000 HD 
BRANCH  30  32
HETATM   32  O   UNL     1     -10.636   7.124  67.524  1.00  0.00    -0.230 OA 
HETATM   33  C   UNL     1     -10.474   5.809  67.046  1.00  0.00    -0.280 C  
ENDBRANCH  30  32
ENDBRANCH  24  30
ENDBRANCH  22  24
ENDBRANCH   5  20
TORSDOF 8
ENDMDL
MODEL       46
REMARK 921   NORMALIZED FREE ENERGY PREDICTED BY IDOCK:   -5.84 KCAL/MOL
REMARK 922        TOTAL FREE ENERGY PREDICTED BY IDOCK:   -9.97 KCAL/MOL
REMARK 923 INTER-LIGAND FREE ENERGY PREDICTED BY IDOCK:   -8.55 KCAL/MOL
REMARK 924 INTRA-LIGAND FREE ENERGY PREDICTED BY IDOCK:   -1.42 KCAL/MOL
REMARK 927      BINDING AFFINITY PREDICTED BY RF-SCORE:    0.00 PKD
ROOT
HETATM    1  C   UNL     1     -11.331  11.905  63.764  1.00  0.00    -0.448 C  
HETATM    2  S   UNL     1      -9.777  11.445  63.047  1.00  0.00    -0.317 SA 
HETATM    3  C   UNL     1      -8.825  10.817  64.459  1.00  0.00    -0.131 C  
HETATM    4  C   UNL     1      -9.485  10.722  65.805  1.00  0.00    -0.244 C  
HETATM    5  CA  UNL     1     -12.073  13.323  63.826  1.00  0.00    -0.482 C  
HETATM    6  CA  UNL     1     -10.720  11.163  66.112  1.00  0.00    -0.225 C  
HETATM    7  C   UNL     1     -12.441  12.807  65.245  1.00  0.00    -0.465 C  
HETATM    8  C   UNL     1     -11.282  10.921  67.484  1.00  0.00    -0.293 C  
HETATM    9  N   UNL     1     -11.458  11.886  65.194  1.00  0.00    -0.284 N  
HETATM   10  OXT UNL     1     -11.063   9.880  68.084  1.00  0.00    -0.239 OA 
HETATM   11  O   UNL     1     -13.123  13.184  66.151  1.00  0.00     0.086 OA 
HETATM   12  O   UNL     1     -12.059  11.877  68.017  1.00  0.00    -0.541 OA 
ENDROOT
BRANCH   4  13
HETATM   13  C   UNL     1      -8.519  10.186  66.865  1.00  0.00    -0.126 C  
BRANCH  13  14
HETATM   14  O   UNL     1      -8.002   8.883  66.529  1.00  0.00    -0.101 OA 
BRANCH  14  15
HETATM   15  C   UNL     1      -8.200   7.898  67.426  1.00  0.00    -0.123 C  
HETATM   16  O   UNL     1      -7.354   7.374  68.135  1.00  0.00    -0.094 OA 
HETATM   17  N   UNL     1      -9.496   7.507  67.409  1.00  0.00    -0.138 N  
HETATM   18  H2  UNL     1     -10.217   7.902  66.806  1.00  0.00     0.000 HD 
HETATM   19  H1  UNL     1      -9.646   6.761  68.088  1.00  0.00     0.000 HD 
ENDBRANCH  14  15
ENDBRANCH  13  14
ENDBRANCH   4  13
BRANCH   5  20
HETATM   20  N   UNL     1     -11.615  14.768  63.901  1.00  0.00    -0.560 N  
HETATM   21  H   UNL     1     -11.846  15.286  63.053  1.00  0.00     0.000 HD 
HETATM   22  C   UNL     1     -10.952  15.571  64.847  1.00  0.00    -0.436 C  
HETATM   23  O   UNL     1     -10.815  16.759  64.598  1.00  0.00    -0.835 OA 
BRANCH  22  24
HETATM   24  C   UNL     1     -10.236  14.997  66.058  1.00  0.00    -0.301 C  
BRANCH  24  25
HETATM   25  C   UNL     1     -10.498  15.546  67.383  1.00  0.00    -0.281 A  
HETATM   26  O   UNL     1     -11.456  15.021  68.210  1.00  0.00    -0.305 OA 
HETATM   27  C   UNL     1     -10.083  16.765  67.908  1.00  0.00    -0.284 A  
HETATM   28  C   UNL     1     -11.717  15.955  69.169  1.00  0.00    -0.363 A  
HETATM   29  C   UNL     1     -10.905  17.053  69.018  1.00  0.00    -0.206 A  
ENDBRANCH  24  25
BRANCH  24  30
HETATM   30  N   UNL     1      -9.236  14.167  66.042  1.00  0.00    -0.513 NA 
HETATM   31  H   UNL     1      -8.941  13.807  65.135  1.00  0.00     0.000 HD 
BRANCH  30  32
HETATM   32  O   UNL     1      -8.533  13.728  67.162  1.00  0.00    -0.202 OA 
HETATM   33  C   UNL     1      -7.221  14.169  67.420  1.00  0.00    -0.101 C  
ENDBRANCH  30  32
ENDBRANCH  24  30
ENDBRANCH  22  24
ENDBRANCH   5  20
TORSDOF 8
ENDMDL
MODEL       47
REMARK 921   NORMALIZED FREE ENERGY PREDICTED BY IDOCK:   -5.82 KCAL/MOL
REMARK 922        TOTAL FREE ENERGY PREDICTED BY IDOCK:   -9.93 KCAL/MOL
REMARK 923 INTER-LIGAND FREE ENERGY PREDICTED BY IDOCK:   -8.98 KCAL/MOL
REMARK 924 INTRA-LIGAND FREE ENERGY PREDICTED BY IDOCK:   -0.95 KCAL/MOL
REMARK 927      BINDING AFFINITY PREDICTED BY RF-SCORE:    0.00 PKD
ROOT
HETATM    1  C   UNL     1     -10.780  14.864  69.272  1.00  0.00    -0.249 C  
HETATM    2  S   UNL     1     -12.155  13.988  68.575  1.00  0.00    -0.196 SA 
HETATM    3  C   UNL     1     -11.424  13.088  67.180  1.00  0.00    -0.331 C  
HETATM    4  C   UNL     1      -9.941  13.163  66.954  1.00  0.00    -0.245 C  
HETATM    5  CA  UNL     1     -10.535  16.435  69.468  1.00  0.00    -0.301 C  
HETATM    6  CA  UNL     1      -9.075  13.936  67.638  1.00  0.00    -0.197 C  
HETATM    7  C   UNL     1      -9.089  16.021  69.076  1.00  0.00    -0.242 C  
HETATM    8  C   UNL     1      -7.603  13.842  67.357  1.00  0.00    -0.137 C  
HETATM    9  N   UNL     1      -9.533  14.857  68.562  1.00  0.00    -0.204 N  
HETATM   10  OXT UNL     1      -7.074  12.771  67.100  1.00  0.00    -0.116 OA 
HETATM   11  O   UNL     1      -8.026  16.563  69.001  1.00  0.00    -0.237 OA 
HETATM   12  O   UNL     1      -6.881  14.971  67.426  1.00  0.00    -0.184 OA 
ENDROOT
BRANCH   4  13
HETATM   13  C   UNL     1      -9.521  12.352  65.725  1.00  0.00    -0.086 C  
BRANCH  13  14
HETATM   14  O   UNL     1     -10.220  12.759  64.532  1.00  0.00    -0.334 OA 
BRANCH  14  15
HETATM   15  C   UNL     1     -10.252  11.879  63.512  1.00  0.00    -0.457 C  
HETATM   16  O   UNL     1      -9.304  11.505  62.840  1.00  0.00    -0.363 OA 
HETATM   17  N   UNL     1     -11.525  11.481  63.280  1.00  0.00    -0.852 N  
HETATM   18  H2  UNL     1     -12.341  11.801  63.802  1.00  0.00     0.000 HD 
HETATM   19  H1  UNL     1     -11.549  10.815  62.508  1.00  0.00     0.000 HD 
ENDBRANCH  14  15
ENDBRANCH  13  14
ENDBRANCH   4  13
BRANCH   5  20
HETATM   20  N   UNL     1     -10.941  17.684  68.710  1.00  0.00    -0.187 N  
HETATM   21  H   UNL     1     -11.704  18.179  69.172  1.00  0.00     0.000 HD 
HETATM   22  C   UNL     1     -10.530  18.331  67.530  1.00  0.00    -0.411 C  
HETATM   23  O   UNL     1     -11.044  19.404  67.252  1.00  0.00    -0.458 OA 
BRANCH  22  24
HETATM   24  C   UNL     1      -9.633  17.669  66.498  1.00  0.00    -0.292 C  
BRANCH  24  25
HETATM   25  C   UNL     1      -8.316  18.228  66.217  1.00  0.00    -0.203 A  
HETATM   26  O   UNL     1      -7.334  17.500  65.599  1.00  0.00    -0.436 OA 
HETATM   27  C   UNL     1      -7.747  19.390  66.727  1.00  0.00    -0.272 A  
HETATM   28  C   UNL     1      -6.152  18.142  65.826  1.00  0.00    -0.239 A  
HETATM   29  C   UNL     1      -6.353  19.306  66.528  1.00  0.00    -0.197 A  
ENDBRANCH  24  25
BRANCH  24  30
HETATM   30  N   UNL     1      -9.975  16.734  65.661  1.00  0.00    -0.575 NA 
HETATM   31  H   UNL     1      -9.531  15.824  65.770  1.00  0.00     0.000 HD 
BRANCH  30  32
HETATM   32  O   UNL     1     -10.899  16.875  64.628  1.00  0.00    -0.864 OA 
HETATM   33  C   UNL     1     -11.796  15.839  64.304  1.00  0.00    -0.118 C  
ENDBRANCH  30  32
ENDBRANCH  24  30
ENDBRANCH  22  24
ENDBRANCH   5  20
TORSDOF 8
ENDMDL
MODEL       48
REMARK 921   NORMALIZED FREE ENERGY PREDICTED BY IDOCK:   -5.78 KCAL/MOL
REMARK 922        TOTAL FREE ENERGY PREDICTED BY IDOCK:   -9.87 KCAL/MOL
REMARK 923 INTER-LIGAND FREE ENERGY PREDICTED BY IDOCK:   -8.54 KCAL/MOL
REMARK 924 INTRA-LIGAND FREE ENERGY PREDICTED BY IDOCK:   -1.33 KCAL/MOL
REMARK 927      BINDING AFFINITY PREDICTED BY RF-SCORE:    0.00 PKD
ROOT
HETATM    1  C   UNL     1     -11.504  11.340  68.860  1.00  0.00    -0.297 C  
HETATM    2  S   UNL     1     -11.476  13.081  69.192  1.00  0.00    -0.299 SA 
HETATM    3  C   UNL     1     -10.889  13.803  67.634  1.00  0.00    -0.254 C  
HETATM    4  C   UNL     1     -10.654  12.905  66.452  1.00  0.00    -0.285 C  
HETATM    5  CA  UNL     1     -10.722  10.131  69.563  1.00  0.00    -0.249 C  
HETATM    6  CA  UNL     1     -10.737  11.561  66.452  1.00  0.00    -0.273 C  
HETATM    7  C   UNL     1     -10.645   9.633  68.093  1.00  0.00    -0.226 C  
HETATM    8  C   UNL     1     -10.558  10.799  65.169  1.00  0.00    -0.169 C  
HETATM    9  N   UNL     1     -10.931  10.868  67.632  1.00  0.00    -0.272 N  
HETATM   10  OXT UNL     1     -10.989  11.232  64.111  1.00  0.00    -0.372 OA 
HETATM   11  O   UNL     1     -10.256   8.652  67.533  1.00  0.00    -0.209 OA 
HETATM   12  O   UNL     1      -9.936   9.613  65.230  1.00  0.00    -0.295 OA 
ENDROOT
BRANCH   4  13
HETATM   13  C   UNL     1     -10.150  13.696  65.241  1.00  0.00    -0.275 C  
BRANCH  13  14
HETATM   14  O   UNL     1     -11.052  14.753  64.859  1.00  0.00    -0.374 OA 
BRANCH  14  15
HETATM   15  C   UNL     1     -12.300  14.392  64.503  1.00  0.00    -0.418 C  
HETATM   16  O   UNL     1     -13.297  14.415  65.209  1.00  0.00    -0.574 OA 
HETATM   17  N   UNL     1     -12.306  13.934  63.229  1.00  0.00    -1.148 N  
HETATM   18  H2  UNL     1     -11.485  13.871  62.627  1.00  0.00     0.000 HD 
HETATM   19  H1  UNL     1     -13.251  13.661  62.960  1.00  0.00     0.000 HD 
ENDBRANCH  14  15
ENDBRANCH  13  14
ENDBRANCH   4  13
BRANCH   5  20
HETATM   20  N   UNL     1      -9.370   9.978  70.234  1.00  0.00    -0.376 N  
HETATM   21  H   UNL     1      -8.798  10.816  70.137  1.00  0.00     0.000 HD 
HETATM   22  C   UNL     1      -8.708   8.968  70.957  1.00  0.00    -0.222 C  
HETATM   23  O   UNL     1      -7.617   9.226  71.440  1.00  0.00    -0.329 OA 
BRANCH  22  24
HETATM   24  C   UNL     1      -9.195   7.529  70.996  1.00  0.00    -0.152 C  
BRANCH  24  25
HETATM   25  C   UNL     1     -10.609   7.248  71.216  1.00  0.00    -0.220 A  
HETATM   26  O   UNL     1     -11.420   6.774  70.218  1.00  0.00    -0.326 OA 
HETATM   27  C   UNL     1     -11.409   7.638  72.284  1.00  0.00    -0.355 A  
HETATM   28  C   UNL     1     -12.709   6.980  70.613  1.00  0.00     0.036 A  
HETATM   29  C   UNL     1     -12.754   7.521  71.874  1.00  0.00    -0.318 A  
ENDBRANCH  24  25
BRANCH  24  30
HETATM   30  N   UNL     1      -8.453   6.463  71.046  1.00  0.00    -0.126 NA 
HETATM   31  H   UNL     1      -8.087   6.190  71.957  1.00  0.00     0.000 HD 
BRANCH  30  32
HETATM   32  O   UNL     1      -8.116   5.663  69.957  1.00  0.00    -0.101 OA 
HETATM   33  C   UNL     1      -8.514   4.314  69.890  1.00  0.00    -0.061 C  
ENDBRANCH  30  32
ENDBRANCH  24  30
ENDBRANCH  22  24
ENDBRANCH   5  20
TORSDOF 8
ENDMDL
MODEL       49
REMARK 921   NORMALIZED FREE ENERGY PREDICTED BY IDOCK:   -5.77 KCAL/MOL
REMARK 922        TOTAL FREE ENERGY PREDICTED BY IDOCK:   -9.87 KCAL/MOL
REMARK 923 INTER-LIGAND FREE ENERGY PREDICTED BY IDOCK:   -7.95 KCAL/MOL
REMARK 924 INTRA-LIGAND FREE ENERGY PREDICTED BY IDOCK:   -1.92 KCAL/MOL
REMARK 927      BINDING AFFINITY PREDICTED BY RF-SCORE:    0.00 PKD
ROOT
HETATM    1  C   UNL     1      -7.846  12.157  67.695  1.00  0.00    -0.153 C  
HETATM    2  S   UNL     1      -9.046  13.431  67.413  1.00  0.00    -0.227 SA 
HETATM    3  C   UNL     1     -10.533  12.808  68.245  1.00  0.00    -0.241 C  
HETATM    4  C   UNL     1     -10.458  11.520  69.015  1.00  0.00    -0.175 C  
HETATM    5  CA  UNL     1      -7.029  11.246  66.661  1.00  0.00    -0.129 C  
HETATM    6  CA  UNL     1      -9.396  10.695  69.073  1.00  0.00    -0.180 C  
HETATM    7  C   UNL     1      -7.297  10.174  67.753  1.00  0.00    -0.088 C  
HETATM    8  C   UNL     1      -9.437   9.481  69.956  1.00  0.00    -0.232 C  
HETATM    9  N   UNL     1      -8.283  10.924  68.285  1.00  0.00    -0.121 N  
HETATM   10  OXT UNL     1      -9.988   9.508  71.046  1.00  0.00    -0.278 OA 
HETATM   11  O   UNL     1      -6.979   9.038  67.945  1.00  0.00    -0.076 OA 
HETATM   12  O   UNL     1      -8.822   8.371  69.520  1.00  0.00    -0.142 OA 
ENDROOT
BRANCH   4  13
HETATM   13  C   UNL     1     -11.813  11.156  69.629  1.00  0.00    -0.348 C  
BRANCH  13  14
HETATM   14  O   UNL     1     -12.308  12.179  70.516  1.00  0.00    -0.332 OA 
BRANCH  14  15
HETATM   15  C   UNL     1     -13.018  11.770  71.586  1.00  0.00    -0.362 C  
HETATM   16  O   UNL     1     -13.631  12.477  72.370  1.00  0.00    -0.521 OA 
HETATM   17  N   UNL     1     -12.922  10.426  71.720  1.00  0.00    -0.454 N  
HETATM   18  H2  UNL     1     -12.391   9.813  71.102  1.00  0.00     0.000 HD 
HETATM   19  H1  UNL     1     -13.460  10.117  72.530  1.00  0.00     0.000 HD 
ENDBRANCH  14  15
ENDBRANCH  13  14
ENDBRANCH   4  13
BRANCH   5  20
HETATM   20  N   UNL     1      -7.311  10.671  65.287  1.00  0.00    -0.336 N  
HETATM   21  H   UNL     1      -6.485  10.686  64.689  1.00  0.00     0.000 HD 
HETATM   22  C   UNL     1      -8.428  10.121  64.629  1.00  0.00    -0.173 C  
HETATM   23  O   UNL     1      -8.269   9.665  63.507  1.00  0.00    -0.136 OA 
BRANCH  22  24
HETATM   24  C   UNL     1      -9.844  10.246  65.167  1.00  0.00    -0.321 C  
BRANCH  24  25
HETATM   25  C   UNL     1     -10.659  11.398  64.800  1.00  0.00    -0.316 A  
HETATM   26  O   UNL     1     -11.774  11.755  65.512  1.00  0.00    -0.277 OA 
HETATM   27  C   UNL     1     -10.646  12.119  63.611  1.00  0.00    -0.504 A  
HETATM   28  C   UNL     1     -12.504  12.595  64.723  1.00  0.00    -0.484 A  
HETATM   29  C   UNL     1     -11.857  12.839  63.536  1.00  0.00    -0.618 A  
ENDBRANCH  24  25
BRANCH  24  30
HETATM   30  N   UNL     1     -10.382   9.521  66.102  1.00  0.00    -0.187 NA 
HETATM   31  H   UNL     1     -11.183   9.914  66.596  1.00  0.00     0.000 HD 
BRANCH  30  32
HETATM   32  O   UNL     1      -9.956   8.251  66.484  1.00  0.00    -0.259 OA 
HETATM   33  C   UNL     1     -10.863   7.292  66.975  1.00  0.00    -0.280 C  
ENDBRANCH  30  32
ENDBRANCH  24  30
ENDBRANCH  22  24
ENDBRANCH   5  20
TORSDOF 8
ENDMDL
MODEL       50
REMARK 921   NORMALIZED FREE ENERGY PREDICTED BY IDOCK:   -5.75 KCAL/MOL
REMARK 922        TOTAL FREE ENERGY PREDICTED BY IDOCK:   -9.83 KCAL/MOL
REMARK 923 INTER-LIGAND FREE ENERGY PREDICTED BY IDOCK:   -8.99 KCAL/MOL
REMARK 924 INTRA-LIGAND FREE ENERGY PREDICTED BY IDOCK:   -0.84 KCAL/MOL
REMARK 927      BINDING AFFINITY PREDICTED BY RF-SCORE:    0.00 PKD
ROOT
HETATM    1  C   UNL     1     -11.112  10.948  68.292  1.00  0.00    -0.266 C  
HETATM    2  S   UNL     1     -10.108   9.498  68.108  1.00  0.00    -0.192 SA 
HETATM    3  C   UNL     1     -10.321   8.629  69.687  1.00  0.00    -0.213 C  
HETATM    4  C   UNL     1     -11.275   9.183  70.707  1.00  0.00    -0.336 C  
HETATM    5  CA  UNL     1     -10.722  12.500  68.244  1.00  0.00    -0.228 C  
HETATM    6  CA  UNL     1     -11.938  10.352  70.616  1.00  0.00    -0.351 C  
HETATM    7  C   UNL     1     -11.772  12.561  69.388  1.00  0.00    -0.322 C  
HETATM    8  C   UNL     1     -12.928  10.736  71.678  1.00  0.00    -0.476 C  
HETATM    9  N   UNL     1     -11.678  11.230  69.581  1.00  0.00    -0.317 N  
HETATM   10  OXT UNL     1     -13.649   9.901  72.204  1.00  0.00    -0.409 OA 
HETATM   11  O   UNL     1     -12.291  13.418  70.039  1.00  0.00    -0.296 OA 
HETATM   12  O   UNL     1     -13.016  12.033  72.009  1.00  0.00    -0.385 OA 
ENDROOT
BRANCH   4  13
HETATM   13  C   UNL     1     -11.303   8.320  71.972  1.00  0.00    -0.325 C  
BRANCH  13  14
HETATM   14  O   UNL     1     -10.131   8.503  72.789  1.00  0.00    -0.255 OA 
BRANCH  14  15
HETATM   15  C   UNL     1      -9.840   7.524  73.668  1.00  0.00    -0.293 C  
HETATM   16  O   UNL     1     -10.503   6.524  73.894  1.00  0.00    -0.310 OA 
HETATM   17  N   UNL     1      -8.700   7.822  74.335  1.00  0.00    -0.427 N  
HETATM   18  H2  UNL     1      -8.142   8.664  74.193  1.00  0.00     0.000 HD 
HETATM   19  H1  UNL     1      -8.480   7.081  75.001  1.00  0.00     0.000 HD 
ENDBRANCH  14  15
ENDBRANCH  13  14
ENDBRANCH   4  13
BRANCH   5  20
HETATM   20  N   UNL     1      -9.494  13.307  68.622  1.00  0.00    -0.394 N  
HETATM   21  H   UNL     1      -8.871  12.787  69.239  1.00  0.00     0.000 HD 
HETATM   22  C   UNL     1      -9.002  14.594  68.336  1.00  0.00    -0.180 C  
HETATM   23  O   UNL     1      -7.897  14.895  68.761  1.00  0.00    -0.132 OA 
BRANCH  22  24
HETATM   24  C   UNL     1      -9.853  15.679  67.697  1.00  0.00    -0.227 C  
BRANCH  24  25
HETATM   25  C   UNL     1      -9.604  17.079  68.020  1.00  0.00    -0.260 A  
HETATM   26  O   UNL     1     -10.372  17.763  68.925  1.00  0.00    -0.368 OA 
HETATM   27  C   UNL     1      -8.812  17.993  67.334  1.00  0.00    -0.245 A  
HETATM   28  C   UNL     1     -10.147  19.093  68.721  1.00  0.00    -0.375 A  
HETATM   29  C   UNL     1      -9.203  19.286  67.742  1.00  0.00    -0.367 A  
ENDBRANCH  24  25
BRANCH  24  30
HETATM   30  N   UNL     1     -10.944  15.502  67.013  1.00  0.00    -0.311 NA 
HETATM   31  H   UNL     1     -11.829  15.609  67.507  1.00  0.00     0.000 HD 
BRANCH  30  32
HETATM   32  O   UNL     1     -11.004  15.178  65.659  1.00  0.00    -0.334 OA 
HETATM   33  C   UNL     1     -12.046  14.384  65.143  1.00  0.00    -0.395 C  
ENDBRANCH  30  32
ENDBRANCH  24  30
ENDBRANCH  22  24
ENDBRANCH   5  20
TORSDOF 8
ENDMDL
MODEL       51
REMARK 921   NORMALIZED FREE ENERGY PREDICTED BY IDOCK:   -5.74 KCAL/MOL
REMARK 922        TOTAL FREE ENERGY PREDICTED BY IDOCK:   -9.82 KCAL/MOL
REMARK 923 INTER-LIGAND FREE ENERGY PREDICTED BY IDOCK:   -8.60 KCAL/MOL
REMARK 924 INTRA-LIGAND FREE ENERGY PREDICTED BY IDOCK:   -1.22 KCAL/MOL
REMARK 927      BINDING AFFINITY PREDICTED BY RF-SCORE:    0.00 PKD
ROOT
HETATM    1  C   UNL     1      -9.428  10.526  68.332  1.00  0.00    -0.157 C  
HETATM    2  S   UNL     1      -9.281  10.586  66.566  1.00  0.00    -0.164 SA 
HETATM    3  C   UNL     1     -10.510  11.828  66.078  1.00  0.00    -0.246 C  
HETATM    4  C   UNL     1     -11.272  12.564  67.143  1.00  0.00    -0.352 C  
HETATM    5  CA  UNL     1      -9.812   9.314  69.306  1.00  0.00    -0.172 C  
HETATM    6  CA  UNL     1     -11.214  12.322  68.466  1.00  0.00    -0.271 C  
HETATM    7  C   UNL     1     -10.562  10.455  70.048  1.00  0.00    -0.229 C  
HETATM    8  C   UNL     1     -11.971  13.200  69.422  1.00  0.00    -0.291 C  
HETATM    9  N   UNL     1     -10.507  11.240  68.953  1.00  0.00    -0.207 N  
HETATM   10  OXT UNL     1     -12.071  14.403  69.234  1.00  0.00    -0.322 OA 
HETATM   11  O   UNL     1     -11.176  10.564  71.068  1.00  0.00    -0.187 OA 
HETATM   12  O   UNL     1     -12.509  12.622  70.507  1.00  0.00    -0.284 OA 
ENDROOT
BRANCH   4  13
HETATM   13  C   UNL     1     -12.269  13.555  66.533  1.00  0.00    -0.380 C  
BRANCH  13  14
HETATM   14  O   UNL     1     -11.622  14.559  65.727  1.00  0.00    -0.347 OA 
BRANCH  14  15
HETATM   15  C   UNL     1     -12.035  14.677  64.449  1.00  0.00    -0.437 C  
HETATM   16  O   UNL     1     -12.541  13.804  63.762  1.00  0.00    -0.712 OA 
HETATM   17  N   UNL     1     -11.763  15.919  63.986  1.00  0.00    -0.937 N  
HETATM   18  H2  UNL     1     -11.311  16.659  64.525  1.00  0.00     0.000 HD 
HETATM   19  H1  UNL     1     -12.075  16.008  63.019  1.00  0.00     0.000 HD 
ENDBRANCH  14  15
ENDBRANCH  13  14
ENDBRANCH   4  13
BRANCH   5  20
HETATM   20  N   UNL     1     -10.705   8.092  69.194  1.00  0.00    -0.380 N  
HETATM   21  H   UNL     1     -11.244   8.092  68.329  1.00  0.00     0.000 HD 
HETATM   22  C   UNL     1     -10.975   6.961  69.986  1.00  0.00    -0.279 C  
HETATM   23  O   UNL     1     -11.718   6.104  69.531  1.00  0.00    -0.298 OA 
BRANCH  22  24
HETATM   24  C   UNL     1     -10.548   6.852  71.440  1.00  0.00    -0.219 C  
BRANCH  24  25
HETATM   25  C   UNL     1     -10.385   5.538  72.051  1.00  0.00    -0.213 A  
HETATM   26  O   UNL     1      -9.631   4.554  71.468  1.00  0.00    -0.145 OA 
HETATM   27  C   UNL     1     -11.119   4.973  73.088  1.00  0.00    -0.395 A  
HETATM   28  C   UNL     1      -9.982   3.374  72.056  1.00  0.00    -0.152 A  
HETATM   29  C   UNL     1     -10.906   3.579  73.052  1.00  0.00    -0.200 A  
ENDBRANCH  24  25
BRANCH  24  30
HETATM   30  N   UNL     1     -10.485   7.823  72.302  1.00  0.00    -0.228 NA 
HETATM   31  H   UNL     1     -11.292   8.442  72.368  1.00  0.00     0.000 HD 
BRANCH  30  32
HETATM   32  O   UNL     1      -9.407   8.087  73.142  1.00  0.00    -0.247 OA 
HETATM   33  C   UNL     1      -8.104   8.249  72.632  1.00  0.00    -0.152 C  
ENDBRANCH  30  32
ENDBRANCH  24  30
ENDBRANCH  22  24
ENDBRANCH   5  20
TORSDOF 8
ENDMDL
MODEL       52
REMARK 921   NORMALIZED FREE ENERGY PREDICTED BY IDOCK:   -5.74 KCAL/MOL
REMARK 922        TOTAL FREE ENERGY PREDICTED BY IDOCK:   -9.82 KCAL/MOL
REMARK 923 INTER-LIGAND FREE ENERGY PREDICTED BY IDOCK:   -8.46 KCAL/MOL
REMARK 924 INTRA-LIGAND FREE ENERGY PREDICTED BY IDOCK:   -1.36 KCAL/MOL
REMARK 927      BINDING AFFINITY PREDICTED BY RF-SCORE:    0.00 PKD
ROOT
HETATM    1  C   UNL     1     -11.939  10.637  69.779  1.00  0.00    -0.291 C  
HETATM    2  S   UNL     1     -12.811  10.042  71.203  1.00  0.00    -0.392 SA 
HETATM    3  C   UNL     1     -13.286  11.559  72.077  1.00  0.00    -0.292 C  
HETATM    4  C   UNL     1     -12.974  12.891  71.458  1.00  0.00    -0.388 C  
HETATM    5  CA  UNL     1     -10.430  10.391  69.302  1.00  0.00    -0.234 C  
HETATM    6  CA  UNL     1     -12.264  13.092  70.331  1.00  0.00    -0.316 C  
HETATM    7  C   UNL     1     -10.560  11.886  68.897  1.00  0.00    -0.173 C  
HETATM    8  C   UNL     1     -12.106  14.481  69.783  1.00  0.00    -0.331 C  
HETATM    9  N   UNL     1     -11.632  12.037  69.701  1.00  0.00    -0.307 N  
HETATM   10  OXT UNL     1     -13.019  15.291  69.836  1.00  0.00    -0.087 OA 
HETATM   11  O   UNL     1      -9.883  12.687  68.324  1.00  0.00    -0.223 OA 
HETATM   12  O   UNL     1     -10.936  14.795  69.206  1.00  0.00    -0.244 OA 
ENDROOT
BRANCH   4  13
HETATM   13  C   UNL     1     -13.439  14.045  72.351  1.00  0.00    -0.539 C  
BRANCH  13  14
HETATM   14  O   UNL     1     -12.367  14.595  73.142  1.00  0.00    -0.305 OA 
BRANCH  14  15
HETATM   15  C   UNL     1     -12.416  15.915  73.406  1.00  0.00    -0.541 C  
HETATM   16  O   UNL     1     -12.871  16.444  74.409  1.00  0.00    -0.700 OA 
HETATM   17  N   UNL     1     -11.926  16.618  72.357  1.00  0.00    -0.551 N  
HETATM   18  H2  UNL     1     -11.570  16.207  71.494  1.00  0.00     0.000 HD 
HETATM   19  H1  UNL     1     -11.964  17.617  72.557  1.00  0.00     0.000 HD 
ENDBRANCH  14  15
ENDBRANCH  13  14
ENDBRANCH   4  13
BRANCH   5  20
HETATM   20  N   UNL     1      -9.108  10.156  70.009  1.00  0.00    -0.390 N  
HETATM   21  H   UNL     1      -8.529  10.995  70.022  1.00  0.00     0.000 HD 
HETATM   22  C   UNL     1      -8.482   9.071  70.650  1.00  0.00    -0.196 C  
HETATM   23  O   UNL     1      -7.410   9.269  71.201  1.00  0.00    -0.228 OA 
BRANCH  22  24
HETATM   24  C   UNL     1      -8.977   7.641  70.520  1.00  0.00    -0.151 C  
BRANCH  24  25
HETATM   25  C   UNL     1     -10.076   7.175  71.358  1.00  0.00    -0.188 A  
HETATM   26  O   UNL     1     -10.267   7.643  72.631  1.00  0.00    -0.220 OA 
HETATM   27  C   UNL     1     -10.893   6.066  71.169  1.00  0.00    -0.338 A  
HETATM   28  C   UNL     1     -11.100   6.766  73.262  1.00  0.00    -0.135 A  
HETATM   29  C   UNL     1     -11.503   5.770  72.407  1.00  0.00    -0.343 A  
ENDBRANCH  24  25
BRANCH  24  30
HETATM   30  N   UNL     1      -8.400   6.680  69.861  1.00  0.00    -0.130 NA 
HETATM   31  H   UNL     1      -7.817   6.034  70.390  1.00  0.00     0.000 HD 
BRANCH  30  32
HETATM   32  O   UNL     1      -8.514   6.461  68.490  1.00  0.00    -0.119 OA 
HETATM   33  C   UNL     1      -9.232   5.361  67.982  1.00  0.00    -0.110 C  
ENDBRANCH  30  32
ENDBRANCH  24  30
ENDBRANCH  22  24
ENDBRANCH   5  20
TORSDOF 8
ENDMDL
MODEL       53
REMARK 921   NORMALIZED FREE ENERGY PREDICTED BY IDOCK:   -5.73 KCAL/MOL
REMARK 922        TOTAL FREE ENERGY PREDICTED BY IDOCK:   -9.81 KCAL/MOL
REMARK 923 INTER-LIGAND FREE ENERGY PREDICTED BY IDOCK:   -8.81 KCAL/MOL
REMARK 924 INTRA-LIGAND FREE ENERGY PREDICTED BY IDOCK:   -1.00 KCAL/MOL
REMARK 927      BINDING AFFINITY PREDICTED BY RF-SCORE:    0.00 PKD
ROOT
HETATM    1  C   UNL     1     -12.218  11.901  69.506  1.00  0.00    -0.136 C  
HETATM    2  S   UNL     1     -12.314  13.344  70.531  1.00  0.00    -0.285 SA 
HETATM    3  C   UNL     1     -11.577  14.646  69.505  1.00  0.00    -0.310 C  
HETATM    4  C   UNL     1     -11.156  14.322  68.099  1.00  0.00    -0.275 C  
HETATM    5  CA  UNL     1     -11.470  10.503  69.739  1.00  0.00    -0.294 C  
HETATM    6  CA  UNL     1     -11.173  13.102  67.530  1.00  0.00    -0.282 C  
HETATM    7  C   UNL     1     -11.191  10.664  68.219  1.00  0.00    -0.301 C  
HETATM    8  C   UNL     1     -10.804  12.944  66.083  1.00  0.00    -0.279 C  
HETATM    9  N   UNL     1     -11.477  11.981  68.279  1.00  0.00    -0.279 N  
HETATM   10  OXT UNL     1     -11.121  13.783  65.253  1.00  0.00    -0.299 OA 
HETATM   11  O   UNL     1     -10.690  10.004  67.359  1.00  0.00    -0.268 OA 
HETATM   12  O   UNL     1     -10.137  11.836  65.726  1.00  0.00    -0.221 OA 
ENDROOT
BRANCH   4  13
HETATM   13  C   UNL     1     -10.546  15.543  67.404  1.00  0.00    -0.292 C  
BRANCH  13  14
HETATM   14  O   UNL     1     -10.949  16.784  68.015  1.00  0.00    -0.356 OA 
BRANCH  14  15
HETATM   15  C   UNL     1     -10.533  17.921  67.423  1.00  0.00    -0.383 C  
HETATM   16  O   UNL     1     -10.529  18.162  66.226  1.00  0.00    -0.392 OA 
HETATM   17  N   UNL     1     -10.053  18.780  68.353  1.00  0.00    -0.382 N  
HETATM   18  H2  UNL     1     -10.013  18.594  69.355  1.00  0.00     0.000 HD 
HETATM   19  H1  UNL     1      -9.738  19.640  67.904  1.00  0.00     0.000 HD 
ENDBRANCH  14  15
ENDBRANCH  13  14
ENDBRANCH   4  13
BRANCH   5  20
HETATM   20  N   UNL     1     -10.205  10.072  70.457  1.00  0.00    -0.396 N  
HETATM   21  H   UNL     1      -9.398  10.626  70.172  1.00  0.00     0.000 HD 
HETATM   22  C   UNL     1      -9.868   9.101  71.418  1.00  0.00    -0.284 C  
HETATM   23  O   UNL     1      -8.724   9.088  71.847  1.00  0.00    -0.363 OA 
BRANCH  22  24
HETATM   24  C   UNL     1     -10.795   7.957  71.794  1.00  0.00    -0.237 C  
BRANCH  24  25
HETATM   25  C   UNL     1     -10.778   6.724  71.016  1.00  0.00    -0.231 A  
HETATM   26  O   UNL     1     -10.128   5.600  71.450  1.00  0.00    -0.186 OA 
HETATM   27  C   UNL     1     -11.129   6.542  69.682  1.00  0.00    -0.435 A  
HETATM   28  C   UNL     1      -9.970   4.782  70.371  1.00  0.00    -0.245 A  
HETATM   29  C   UNL     1     -10.559   5.324  69.254  1.00  0.00    -0.188 A  
ENDBRANCH  24  25
BRANCH  24  30
HETATM   30  N   UNL     1     -11.778   8.007  72.643  1.00  0.00    -0.517 NA 
HETATM   31  H   UNL     1     -11.539   8.041  73.634  1.00  0.00     0.000 HD 
BRANCH  30  32
HETATM   32  O   UNL     1     -13.131   8.018  72.313  1.00  0.00    -0.237 OA 
HETATM   33  C   UNL     1     -13.891   9.201  72.384  1.00  0.00    -0.457 C  
ENDBRANCH  30  32
ENDBRANCH  24  30
ENDBRANCH  22  24
ENDBRANCH   5  20
TORSDOF 8
ENDMDL
MODEL       54
REMARK 921   NORMALIZED FREE ENERGY PREDICTED BY IDOCK:   -5.72 KCAL/MOL
REMARK 922        TOTAL FREE ENERGY PREDICTED BY IDOCK:   -9.79 KCAL/MOL
REMARK 923 INTER-LIGAND FREE ENERGY PREDICTED BY IDOCK:   -8.74 KCAL/MOL
REMARK 924 INTRA-LIGAND FREE ENERGY PREDICTED BY IDOCK:   -1.05 KCAL/MOL
REMARK 927      BINDING AFFINITY PREDICTED BY RF-SCORE:    0.00 PKD
ROOT
HETATM    1  C   UNL     1      -8.626  12.297  67.629  1.00  0.00    -0.169 C  
HETATM    2  S   UNL     1      -7.491  11.091  68.260  1.00  0.00    -0.097 SA 
HETATM    3  C   UNL     1      -7.652   9.706  67.099  1.00  0.00    -0.091 C  
HETATM    4  C   UNL     1      -8.543   9.855  65.898  1.00  0.00    -0.149 C  
HETATM    5  CA  UNL     1      -9.913  12.971  68.303  1.00  0.00    -0.235 C  
HETATM    6  CA  UNL     1      -9.343  10.905  65.634  1.00  0.00    -0.207 C  
HETATM    7  C   UNL     1     -10.460  12.821  66.857  1.00  0.00    -0.240 C  
HETATM    8  C   UNL     1     -10.116  10.953  64.346  1.00  0.00    -0.339 C  
HETATM    9  N   UNL     1      -9.505  11.917  66.560  1.00  0.00    -0.212 N  
HETATM   10  OXT UNL     1      -9.634  10.538  63.303  1.00  0.00    -0.292 OA 
HETATM   11  O   UNL     1     -11.450  13.144  66.270  1.00  0.00    -0.309 OA 
HETATM   12  O   UNL     1     -11.343  11.495  64.375  1.00  0.00    -0.299 OA 
ENDROOT
BRANCH   4  13
HETATM   13  C   UNL     1      -8.558   8.579  65.051  1.00  0.00    -0.135 C  
BRANCH  13  14
HETATM   14  O   UNL     1      -8.483   7.384  65.854  1.00  0.00    -0.139 OA 
BRANCH  14  15
HETATM   15  C   UNL     1      -9.638   6.730  66.086  1.00  0.00     0.047 C  
HETATM   16  O   UNL     1     -10.568   7.112  66.778  1.00  0.00    -0.288 OA 
HETATM   17  N   UNL     1      -9.619   5.523  65.473  1.00  0.00    -0.365 N  
HETATM   18  H2  UNL     1      -8.843   5.162  64.916  1.00  0.00     0.000 HD 
HETATM   19  H1  UNL     1     -10.493   5.027  65.648  1.00  0.00     0.000 HD 
ENDBRANCH  14  15
ENDBRANCH  13  14
ENDBRANCH   4  13
BRANCH   5  20
HETATM   20  N   UNL     1     -10.958  12.517  69.304  1.00  0.00    -0.441 N  
HETATM   21  H   UNL     1     -11.019  11.501  69.358  1.00  0.00     0.000 HD 
HETATM   22  C   UNL     1     -11.865  13.147  70.177  1.00  0.00    -0.257 C  
HETATM   23  O   UNL     1     -12.525  12.445  70.928  1.00  0.00    -0.371 OA 
BRANCH  22  24
HETATM   24  C   UNL     1     -12.197  14.628  70.091  1.00  0.00    -0.335 C  
BRANCH  24  25
HETATM   25  C   UNL     1     -12.482  15.378  71.308  1.00  0.00    -0.397 A  
HETATM   26  O   UNL     1     -11.485  15.862  72.114  1.00  0.00    -0.399 OA 
HETATM   27  C   UNL     1     -13.690  15.492  71.987  1.00  0.00    -0.599 A  
HETATM   28  C   UNL     1     -12.049  16.161  73.319  1.00  0.00    -0.501 A  
HETATM   29  C   UNL     1     -13.404  15.938  73.295  1.00  0.00    -0.660 A  
ENDBRANCH  24  25
BRANCH  24  30
HETATM   30  N   UNL     1     -12.454  15.300  69.009  1.00  0.00    -0.577 NA 
HETATM   31  H   UNL     1     -13.430  15.376  68.726  1.00  0.00     0.000 HD 
BRANCH  30  32
HETATM   32  O   UNL     1     -11.506  15.925  68.203  1.00  0.00    -0.350 OA 
HETATM   33  C   UNL     1     -10.535  16.787  68.750  1.00  0.00    -0.338 C  
ENDBRANCH  30  32
ENDBRANCH  24  30
ENDBRANCH  22  24
ENDBRANCH   5  20
TORSDOF 8
ENDMDL
MODEL       55
REMARK 921   NORMALIZED FREE ENERGY PREDICTED BY IDOCK:   -5.71 KCAL/MOL
REMARK 922        TOTAL FREE ENERGY PREDICTED BY IDOCK:   -9.77 KCAL/MOL
REMARK 923 INTER-LIGAND FREE ENERGY PREDICTED BY IDOCK:   -8.87 KCAL/MOL
REMARK 924 INTRA-LIGAND FREE ENERGY PREDICTED BY IDOCK:   -0.90 KCAL/MOL
REMARK 927      BINDING AFFINITY PREDICTED BY RF-SCORE:    0.00 PKD
ROOT
HETATM    1  C   UNL     1     -11.963  12.477  68.883  1.00  0.00    -0.236 C  
HETATM    2  S   UNL     1     -11.834  14.012  69.761  1.00  0.00    -0.340 SA 
HETATM    3  C   UNL     1     -10.943  15.090  68.606  1.00  0.00    -0.257 C  
HETATM    4  C   UNL     1     -10.602  14.576  67.236  1.00  0.00    -0.280 C  
HETATM    5  CA  UNL     1     -11.415  11.017  69.248  1.00  0.00    -0.300 C  
HETATM    6  CA  UNL     1     -10.803  13.322  66.791  1.00  0.00    -0.281 C  
HETATM    7  C   UNL     1     -11.149  10.989  67.717  1.00  0.00    -0.295 C  
HETATM    8  C   UNL     1     -10.490  12.974  65.363  1.00  0.00    -0.296 C  
HETATM    9  N   UNL     1     -11.245  12.332  67.649  1.00  0.00    -0.271 N  
HETATM   10  OXT UNL     1     -10.705  13.764  64.457  1.00  0.00    -0.408 OA 
HETATM   11  O   UNL     1     -10.763  10.184  66.922  1.00  0.00    -0.226 OA 
HETATM   12  O   UNL     1      -9.993  11.753  65.113  1.00  0.00    -0.244 OA 
ENDROOT
BRANCH   4  13
HETATM   13  C   UNL     1      -9.841  15.625  66.419  1.00  0.00    -0.274 C  
BRANCH  13  14
HETATM   14  O   UNL     1     -10.091  16.968  66.878  1.00  0.00    -0.280 OA 
BRANCH  14  15
HETATM   15  C   UNL     1      -9.043  17.815  66.888  1.00  0.00    -0.258 C  
HETATM   16  O   UNL     1      -8.609  18.451  65.940  1.00  0.00    -0.503 OA 
HETATM   17  N   UNL     1      -8.475  17.838  68.116  1.00  0.00    -0.254 N  
HETATM   18  H2  UNL     1      -8.794  17.294  68.918  1.00  0.00     0.000 HD 
HETATM   19  H1  UNL     1      -7.682  18.479  68.123  1.00  0.00     0.000 HD 
ENDBRANCH  14  15
ENDBRANCH  13  14
ENDBRANCH   4  13
BRANCH   5  20
HETATM   20  N   UNL     1     -10.208  10.483  69.995  1.00  0.00    -0.434 N  
HETATM   21  H   UNL     1      -9.416  11.123  69.948  1.00  0.00     0.000 HD 
HETATM   22  C   UNL     1      -9.909   9.325  70.738  1.00  0.00    -0.283 C  
HETATM   23  O   UNL     1      -8.821   9.260  71.289  1.00  0.00    -0.290 OA 
BRANCH  22  24
HETATM   24  C   UNL     1     -10.788   8.086  70.722  1.00  0.00    -0.232 C  
BRANCH  24  25
HETATM   25  C   UNL     1     -12.096   8.117  71.366  1.00  0.00    -0.297 A  
HETATM   26  O   UNL     1     -13.014   7.115  71.195  1.00  0.00    -0.366 OA 
HETATM   27  C   UNL     1     -12.727   9.191  71.983  1.00  0.00    -0.473 A  
HETATM   28  C   UNL     1     -14.224   7.605  71.589  1.00  0.00    -0.454 A  
HETATM   29  C   UNL     1     -14.102   8.885  72.071  1.00  0.00    -0.477 A  
ENDBRANCH  24  25
BRANCH  24  30
HETATM   30  N   UNL     1     -10.433   6.891  70.352  1.00  0.00    -0.202 NA 
HETATM   31  H   UNL     1     -10.540   6.140  71.033  1.00  0.00     0.000 HD 
BRANCH  30  32
HETATM   32  O   UNL     1      -9.917   6.553  69.104  1.00  0.00    -0.142 OA 
HETATM   33  C   UNL     1     -10.473   7.071  67.918  1.00  0.00    -0.214 C  
ENDBRANCH  30  32
ENDBRANCH  24  30
ENDBRANCH  22  24
ENDBRANCH   5  20
TORSDOF 8
ENDMDL
MODEL       56
REMARK 921   NORMALIZED FREE ENERGY PREDICTED BY IDOCK:   -5.70 KCAL/MOL
REMARK 922        TOTAL FREE ENERGY PREDICTED BY IDOCK:   -9.77 KCAL/MOL
REMARK 923 INTER-LIGAND FREE ENERGY PREDICTED BY IDOCK:   -8.79 KCAL/MOL
REMARK 924 INTRA-LIGAND FREE ENERGY PREDICTED BY IDOCK:   -0.98 KCAL/MOL
REMARK 927      BINDING AFFINITY PREDICTED BY RF-SCORE:    0.00 PKD
ROOT
HETATM    1  C   UNL     1     -10.947   9.773  68.116  1.00  0.00    -0.175 C  
HETATM    2  S   UNL     1      -9.845   8.406  68.358  1.00  0.00    -0.182 SA 
HETATM    3  C   UNL     1      -9.973   8.065  70.136  1.00  0.00    -0.191 C  
HETATM    4  C   UNL     1     -10.949   8.849  70.965  1.00  0.00    -0.341 C  
HETATM    5  CA  UNL     1     -10.670  11.254  67.572  1.00  0.00    -0.232 C  
HETATM    6  CA  UNL     1     -11.696   9.885  70.538  1.00  0.00    -0.295 C  
HETATM    7  C   UNL     1     -11.706  11.603  68.677  1.00  0.00    -0.325 C  
HETATM    8  C   UNL     1     -12.696  10.520  71.462  1.00  0.00    -0.452 C  
HETATM    9  N   UNL     1     -11.513  10.409  69.272  1.00  0.00    -0.237 N  
HETATM   10  OXT UNL     1     -13.348   9.848  72.247  1.00  0.00    -0.435 OA 
HETATM   11  O   UNL     1     -12.276  12.586  69.045  1.00  0.00    -0.185 OA 
HETATM   12  O   UNL     1     -12.872  11.847  71.374  1.00  0.00    -0.389 OA 
ENDROOT
BRANCH   4  13
HETATM   13  C   UNL     1     -10.898   8.427  72.437  1.00  0.00    -0.346 C  
BRANCH  13  14
HETATM   14  O   UNL     1     -11.506   7.140  72.662  1.00  0.00    -0.280 OA 
BRANCH  14  15
HETATM   15  C   UNL     1     -10.761   6.214  73.297  1.00  0.00    -0.260 C  
HETATM   16  O   UNL     1     -10.369   6.259  74.452  1.00  0.00    -0.323 OA 
HETATM   17  N   UNL     1     -10.443   5.210  72.446  1.00  0.00    -0.210 N  
HETATM   18  H2  UNL     1     -10.728   5.161  71.467  1.00  0.00     0.000 HD 
HETATM   19  H1  UNL     1      -9.879   4.509  72.927  1.00  0.00     0.000 HD 
ENDBRANCH  14  15
ENDBRANCH  13  14
ENDBRANCH   4  13
BRANCH   5  20
HETATM   20  N   UNL     1      -9.498  12.215  67.635  1.00  0.00    -0.182 N  
HETATM   21  H   UNL     1      -8.796  11.917  68.311  1.00  0.00     0.000 HD 
HETATM   22  C   UNL     1      -9.139  13.416  66.995  1.00  0.00    -0.243 C  
HETATM   23  O   UNL     1      -8.042  13.894  67.242  1.00  0.00    -0.178 OA 
BRANCH  22  24
HETATM   24  C   UNL     1     -10.119  14.237  66.174  1.00  0.00    -0.313 C  
BRANCH  24  25
HETATM   25  C   UNL     1     -10.928  13.588  65.149  1.00  0.00    -0.320 A  
HETATM   26  O   UNL     1     -10.466  12.517  64.429  1.00  0.00    -0.317 OA 
HETATM   27  C   UNL     1     -12.093  14.052  64.549  1.00  0.00    -0.484 A  
HETATM   28  C   UNL     1     -11.266  12.395  63.331  1.00  0.00    -0.422 A  
HETATM   29  C   UNL     1     -12.275  13.326  63.353  1.00  0.00    -0.476 A  
ENDBRANCH  24  25
BRANCH  24  30
HETATM   30  N   UNL     1     -10.200  15.534  66.138  1.00  0.00    -0.286 NA 
HETATM   31  H   UNL     1     -11.037  15.961  66.532  1.00  0.00     0.000 HD 
BRANCH  30  32
HETATM   32  O   UNL     1      -9.237  16.388  65.605  1.00  0.00    -0.465 OA 
HETATM   33  C   UNL     1      -8.700  17.447  66.363  1.00  0.00    -0.242 C  
ENDBRANCH  30  32
ENDBRANCH  24  30
ENDBRANCH  22  24
ENDBRANCH   5  20
TORSDOF 8
ENDMDL
MODEL       57
REMARK 921   NORMALIZED FREE ENERGY PREDICTED BY IDOCK:   -5.70 KCAL/MOL
REMARK 922        TOTAL FREE ENERGY PREDICTED BY IDOCK:   -9.77 KCAL/MOL
REMARK 923 INTER-LIGAND FREE ENERGY PREDICTED BY IDOCK:   -8.88 KCAL/MOL
REMARK 924 INTRA-LIGAND FREE ENERGY PREDICTED BY IDOCK:   -0.89 KCAL/MOL
REMARK 927      BINDING AFFINITY PREDICTED BY RF-SCORE:    0.00 PKD
ROOT
HETATM    1  C   UNL     1     -10.253  15.149  69.112  1.00  0.00    -0.249 C  
HETATM    2  S   UNL     1     -11.821  15.406  69.896  1.00  0.00    -0.374 SA 
HETATM    3  C   UNL     1     -12.524  13.736  70.001  1.00  0.00    -0.240 C  
HETATM    4  C   UNL     1     -11.702  12.564  69.545  1.00  0.00    -0.375 C  
HETATM    5  CA  UNL     1      -9.669  15.720  67.734  1.00  0.00    -0.216 C  
HETATM    6  CA  UNL     1     -10.495  12.629  68.951  1.00  0.00    -0.080 C  
HETATM    7  C   UNL     1      -9.080  14.284  67.657  1.00  0.00    -0.192 C  
HETATM    8  C   UNL     1      -9.750  11.365  68.627  1.00  0.00    -0.176 C  
HETATM    9  N   UNL     1      -9.955  13.847  68.585  1.00  0.00    -0.218 N  
HETATM   10  OXT UNL     1      -9.781  10.402  69.378  1.00  0.00    -0.217 OA 
HETATM   11  O   UNL     1      -8.341  13.692  66.929  1.00  0.00    -0.129 OA 
HETATM   12  O   UNL     1      -9.025  11.340  67.498  1.00  0.00    -0.139 OA 
ENDROOT
BRANCH   4  13
HETATM   13  C   UNL     1     -12.471  11.249  69.699  1.00  0.00    -0.094 C  
BRANCH  13  14
HETATM   14  O   UNL     1     -12.967  11.054  71.038  1.00  0.00    -0.347 OA 
BRANCH  14  15
HETATM   15  C   UNL     1     -13.035   9.785  71.486  1.00  0.00    -0.407 C  
HETATM   16  O   UNL     1     -13.577   9.401  72.511  1.00  0.00    -0.459 OA 
HETATM   17  N   UNL     1     -12.358   8.961  70.653  1.00  0.00    -0.486 N  
HETATM   18  H2  UNL     1     -11.868   9.257  69.809  1.00  0.00     0.000 HD 
HETATM   19  H1  UNL     1     -12.410   8.000  70.993  1.00  0.00     0.000 HD 
ENDBRANCH  14  15
ENDBRANCH  13  14
ENDBRANCH   4  13
BRANCH   5  20
HETATM   20  N   UNL     1     -10.270  16.108  66.396  1.00  0.00    -0.293 N  
HETATM   21  H   UNL     1     -10.567  15.292  65.861  1.00  0.00     0.000 HD 
HETATM   22  C   UNL     1     -10.519  17.310  65.709  1.00  0.00    -0.229 C  
HETATM   23  O   UNL     1     -11.115  17.252  64.644  1.00  0.00    -1.052 OA 
BRANCH  22  24
HETATM   24  C   UNL     1      -9.916  18.640  66.130  1.00  0.00    -0.330 C  
BRANCH  24  25
HETATM   25  C   UNL     1      -8.468  18.814  66.121  1.00  0.00    -0.162 A  
HETATM   26  O   UNL     1      -7.886  20.045  65.972  1.00  0.00    -0.328 OA 
HETATM   27  C   UNL     1      -7.485  17.842  65.980  1.00  0.00    -0.284 A  
HETATM   28  C   UNL     1      -6.584  19.836  65.624  1.00  0.00    -0.255 A  
HETATM   29  C   UNL     1      -6.291  18.494  65.603  1.00  0.00    -0.309 A  
ENDBRANCH  24  25
BRANCH  24  30
HETATM   30  N   UNL     1     -10.542  19.626  66.700  1.00  0.00    -0.477 NA 
HETATM   31  H   UNL     1     -11.233  20.126  66.142  1.00  0.00     0.000 HD 
BRANCH  30  32
HETATM   32  O   UNL     1     -10.346  20.057  68.010  1.00  0.00    -0.410 OA 
HETATM   33  C   UNL     1     -10.016  19.150  69.036  1.00  0.00    -0.357 C  
ENDBRANCH  30  32
ENDBRANCH  24  30
ENDBRANCH  22  24
ENDBRANCH   5  20
TORSDOF 8
ENDMDL
MODEL       58
REMARK 921   NORMALIZED FREE ENERGY PREDICTED BY IDOCK:   -5.69 KCAL/MOL
REMARK 922        TOTAL FREE ENERGY PREDICTED BY IDOCK:   -9.75 KCAL/MOL
REMARK 923 INTER-LIGAND FREE ENERGY PREDICTED BY IDOCK:   -8.38 KCAL/MOL
REMARK 924 INTRA-LIGAND FREE ENERGY PREDICTED BY IDOCK:   -1.37 KCAL/MOL
REMARK 927      BINDING AFFINITY PREDICTED BY RF-SCORE:    0.00 PKD
ROOT
HETATM    1  C   UNL     1      -9.194  15.482  65.760  1.00  0.00    -0.181 C  
HETATM    2  S   UNL     1      -8.303  15.000  67.215  1.00  0.00    -0.217 SA 
HETATM    3  C   UNL     1      -9.340  13.699  67.939  1.00  0.00    -0.206 C  
HETATM    4  C   UNL     1     -10.573  13.251  67.207  1.00  0.00    -0.250 C  
HETATM    5  CA  UNL     1      -9.812  16.898  65.336  1.00  0.00     0.307 C  
HETATM    6  CA  UNL     1     -11.066  13.800  66.081  1.00  0.00    -0.296 C  
HETATM    7  C   UNL     1     -10.943  15.979  64.795  1.00  0.00    -0.356 C  
HETATM    8  C   UNL     1     -12.264  13.189  65.411  1.00  0.00    -0.461 C  
HETATM    9  N   UNL     1     -10.514  14.956  65.561  1.00  0.00    -0.332 N  
HETATM   10  OXT UNL     1     -12.420  11.978  65.373  1.00  0.00    -0.421 OA 
HETATM   11  O   UNL     1     -11.947  16.127  64.164  1.00  0.00    -0.774 OA 
HETATM   12  O   UNL     1     -13.145  14.018  64.830  1.00  0.00    -0.693 OA 
ENDROOT
BRANCH   4  13
HETATM   13  C   UNL     1     -11.319  12.161  67.983  1.00  0.00    -0.295 C  
BRANCH  13  14
HETATM   14  O   UNL     1     -11.525  12.513  69.365  1.00  0.00    -0.270 OA 
BRANCH  14  15
HETATM   15  C   UNL     1     -11.900  11.523  70.198  1.00  0.00    -0.356 C  
HETATM   16  O   UNL     1     -12.594  11.632  71.197  1.00  0.00    -0.385 OA 
HETATM   17  N   UNL     1     -11.349  10.350  69.804  1.00  0.00    -0.270 N  
HETATM   18  H2  UNL     1     -10.739  10.234  68.995  1.00  0.00     0.000 HD 
HETATM   19  H1  UNL     1     -11.633   9.601  70.435  1.00  0.00     0.000 HD 
ENDBRANCH  14  15
ENDBRANCH  13  14
ENDBRANCH   4  13
BRANCH   5  20
HETATM   20  N   UNL     1     -10.410  18.073  66.086  1.00  0.00    -0.396 N  
HETATM   21  H   UNL     1     -10.767  18.787  65.453  1.00  0.00     0.000 HD 
HETATM   22  C   UNL     1     -10.594  18.423  67.436  1.00  0.00    -0.413 C  
HETATM   23  O   UNL     1     -11.210  19.447  67.687  1.00  0.00    -0.274 OA 
BRANCH  22  24
HETATM   24  C   UNL     1      -9.901  17.697  68.578  1.00  0.00    -0.346 C  
BRANCH  24  25
HETATM   25  C   UNL     1     -10.610  16.656  69.312  1.00  0.00    -0.343 A  
HETATM   26  O   UNL     1     -11.777  16.108  68.850  1.00  0.00    -0.357 OA 
HETATM   27  C   UNL     1     -10.429  16.258  70.632  1.00  0.00     0.461 A  
HETATM   28  C   UNL     1     -12.371  15.477  69.902  1.00  0.00    -0.277 A  
HETATM   29  C   UNL     1     -11.586  15.552  71.027  1.00  0.00    -0.424 A  
ENDBRANCH  24  25
BRANCH  24  30
HETATM   30  N   UNL     1      -8.771  18.027  69.130  1.00  0.00     0.031 NA 
HETATM   31  H   UNL     1      -8.638  17.777  70.109  1.00  0.00     0.000 HD 
BRANCH  30  32
HETATM   32  O   UNL     1      -7.727  18.694  68.494  1.00  0.00    -0.298 OA 
HETATM   33  C   UNL     1      -6.519  18.969  69.164  1.00  0.00    -0.286 C  
ENDBRANCH  30  32
ENDBRANCH  24  30
ENDBRANCH  22  24
ENDBRANCH   5  20
TORSDOF 8
ENDMDL
MODEL       59
REMARK 921   NORMALIZED FREE ENERGY PREDICTED BY IDOCK:   -5.68 KCAL/MOL
REMARK 922        TOTAL FREE ENERGY PREDICTED BY IDOCK:   -9.74 KCAL/MOL
REMARK 923 INTER-LIGAND FREE ENERGY PREDICTED BY IDOCK:   -8.53 KCAL/MOL
REMARK 924 INTRA-LIGAND FREE ENERGY PREDICTED BY IDOCK:   -1.21 KCAL/MOL
REMARK 927      BINDING AFFINITY PREDICTED BY RF-SCORE:    0.00 PKD
ROOT
HETATM    1  C   UNL     1      -9.256  10.697  67.531  1.00  0.00    -0.143 C  
HETATM    2  S   UNL     1      -9.168  10.854  65.768  1.00  0.00    -0.207 SA 
HETATM    3  C   UNL     1     -10.411  12.120  65.390  1.00  0.00    -0.270 C  
HETATM    4  C   UNL     1     -11.137  12.796  66.518  1.00  0.00    -0.321 C  
HETATM    5  CA  UNL     1      -9.608   9.434  68.450  1.00  0.00    -0.146 C  
HETATM    6  CA  UNL     1     -11.035  12.483  67.824  1.00  0.00    -0.234 C  
HETATM    7  C   UNL     1     -10.331  10.532  69.278  1.00  0.00    -0.227 C  
HETATM    8  C   UNL     1     -11.757  13.306  68.852  1.00  0.00    -0.327 C  
HETATM    9  N   UNL     1     -10.312  11.375  68.227  1.00  0.00    -0.186 N  
HETATM   10  OXT UNL     1     -11.863  14.517  68.733  1.00  0.00    -0.308 OA 
HETATM   11  O   UNL     1     -10.911  10.584  70.322  1.00  0.00    -0.292 OA 
HETATM   12  O   UNL     1     -12.260  12.669  69.920  1.00  0.00    -0.258 OA 
ENDROOT
BRANCH   4  13
HETATM   13  C   UNL     1     -12.152  13.818  65.998  1.00  0.00    -0.436 C  
BRANCH  13  14
HETATM   14  O   UNL     1     -11.522  15.018  65.506  1.00  0.00    -0.336 OA 
BRANCH  14  15
HETATM   15  C   UNL     1     -11.852  15.416  64.262  1.00  0.00    -0.199 C  
HETATM   16  O   UNL     1     -11.688  16.527  63.783  1.00  0.00    -1.086 OA 
HETATM   17  N   UNL     1     -12.458  14.405  63.596  1.00  0.00    -1.086 N  
HETATM   18  H2  UNL     1     -12.639  13.477  63.981  1.00  0.00     0.000 HD 
HETATM   19  H1  UNL     1     -12.708  14.706  62.654  1.00  0.00     0.000 HD 
ENDBRANCH  14  15
ENDBRANCH  13  14
ENDBRANCH   4  13
BRANCH   5  20
HETATM   20  N   UNL     1     -10.506   8.219  68.301  1.00  0.00    -0.321 N  
HETATM   21  H   UNL     1     -11.280   8.393  67.661  1.00  0.00     0.000 HD 
HETATM   22  C   UNL     1     -10.537   6.914  68.826  1.00  0.00    -0.220 C  
HETATM   23  O   UNL     1     -11.390   6.146  68.409  1.00  0.00    -0.271 OA 
BRANCH  22  24
HETATM   24  C   UNL     1      -9.693   6.483  70.014  1.00  0.00    -0.165 C  
BRANCH  24  25
HETATM   25  C   UNL     1      -9.935   7.072  71.326  1.00  0.00    -0.189 A  
HETATM   26  O   UNL     1      -9.214   8.142  71.787  1.00  0.00    -0.145 OA 
HETATM   27  C   UNL     1     -10.664   6.544  72.385  1.00  0.00    -0.253 A  
HETATM   28  C   UNL     1      -9.400   8.203  73.136  1.00  0.00    -0.258 A  
HETATM   29  C   UNL     1     -10.276   7.231  73.555  1.00  0.00    -0.404 A  
ENDBRANCH  24  25
BRANCH  24  30
HETATM   30  N   UNL     1      -8.612   5.762  69.973  1.00  0.00    -0.126 NA 
HETATM   31  H   UNL     1      -8.686   4.791  70.274  1.00  0.00     0.000 HD 
BRANCH  30  32
HETATM   32  O   UNL     1      -7.361   6.207  69.552  1.00  0.00    -0.075 OA 
HETATM   33  C   UNL     1      -6.272   6.275  70.442  1.00  0.00    -0.035 C  
ENDBRANCH  30  32
ENDBRANCH  24  30
ENDBRANCH  22  24
ENDBRANCH   5  20
TORSDOF 8
ENDMDL
MODEL       60
REMARK 921   NORMALIZED FREE ENERGY PREDICTED BY IDOCK:   -5.67 KCAL/MOL
REMARK 922        TOTAL FREE ENERGY PREDICTED BY IDOCK:   -9.72 KCAL/MOL
REMARK 923 INTER-LIGAND FREE ENERGY PREDICTED BY IDOCK:   -9.14 KCAL/MOL
REMARK 924 INTRA-LIGAND FREE ENERGY PREDICTED BY IDOCK:   -0.58 KCAL/MOL
REMARK 927      BINDING AFFINITY PREDICTED BY RF-SCORE:    0.00 PKD
ROOT
HETATM    1  C   UNL     1      -9.789  14.152  66.445  1.00  0.00    -0.296 C  
HETATM    2  S   UNL     1     -10.780  15.453  65.763  1.00  0.00    -0.362 SA 
HETATM    3  C   UNL     1      -9.756  16.934  65.992  1.00  0.00    -0.233 C  
HETATM    4  C   UNL     1      -8.375  16.789  66.563  1.00  0.00    -0.320 C  
HETATM    5  CA  UNL     1     -10.078  13.146  67.658  1.00  0.00    -0.221 C  
HETATM    6  CA  UNL     1      -7.830  15.652  67.036  1.00  0.00    -0.231 C  
HETATM    7  C   UNL     1      -8.566  13.395  67.918  1.00  0.00    -0.184 C  
HETATM    8  C   UNL     1      -6.401  15.641  67.499  1.00  0.00    -0.151 C  
HETATM    9  N   UNL     1      -8.589  14.503  67.151  1.00  0.00    -0.213 N  
HETATM   10  OXT UNL     1      -5.543  16.292  66.921  1.00  0.00    -0.347 OA 
HETATM   11  O   UNL     1      -7.739  12.972  68.670  1.00  0.00    -0.127 OA 
HETATM   12  O   UNL     1      -6.092  14.870  68.552  1.00  0.00    -0.084 OA 
ENDROOT
BRANCH   4  13
HETATM   13  C   UNL     1      -7.678  18.147  66.692  1.00  0.00    -0.236 C  
BRANCH  13  14
HETATM   14  O   UNL     1      -8.392  19.199  66.012  1.00  0.00    -0.429 OA 
BRANCH  14  15
HETATM   15  C   UNL     1      -8.607  20.336  66.702  1.00  0.00    -0.223 C  
HETATM   16  O   UNL     1      -9.667  20.715  67.176  1.00  0.00    -0.454 OA 
HETATM   17  N   UNL     1      -7.467  21.064  66.764  1.00  0.00    -0.559 N  
HETATM   18  H2  UNL     1      -6.576  20.791  66.349  1.00  0.00     0.000 HD 
HETATM   19  H1  UNL     1      -7.630  21.925  67.285  1.00  0.00     0.000 HD 
ENDBRANCH  14  15
ENDBRANCH  13  14
ENDBRANCH   4  13
BRANCH   5  20
HETATM   20  N   UNL     1     -10.852  13.233  68.959  1.00  0.00    -0.390 N  
HETATM   21  H   UNL     1     -10.668  14.105  69.455  1.00  0.00     0.000 HD 
HETATM   22  C   UNL     1     -11.758  12.411  69.655  1.00  0.00    -0.307 C  
HETATM   23  O   UNL     1     -12.267  12.850  70.675  1.00  0.00    -0.372 OA 
BRANCH  22  24
HETATM   24  C   UNL     1     -11.979  10.949  69.306  1.00  0.00    -0.310 C  
BRANCH  24  25
HETATM   25  C   UNL     1     -12.239   9.982  70.366  1.00  0.00    -0.170 A  
HETATM   26  O   UNL     1     -13.392  10.008  71.106  1.00  0.00    -0.380 OA 
HETATM   27  C   UNL     1     -11.343   9.113  70.978  1.00  0.00    -0.377 A  
HETATM   28  C   UNL     1     -13.170   9.259  72.224  1.00  0.00    -0.460 A  
HETATM   29  C   UNL     1     -11.917   8.697  72.198  1.00  0.00    -0.449 A  
ENDBRANCH  24  25
BRANCH  24  30
HETATM   30  N   UNL     1     -11.773  10.391  68.150  1.00  0.00    -0.743 NA 
HETATM   31  H   UNL     1     -12.567  10.328  67.513  1.00  0.00     0.000 HD 
BRANCH  30  32
HETATM   32  O   UNL     1     -10.559   9.871  67.710  1.00  0.00    -0.226 OA 
HETATM   33  C   UNL     1     -10.495   8.649  67.013  1.00  0.00    -0.284 C  
ENDBRANCH  30  32
ENDBRANCH  24  30
ENDBRANCH  22  24
ENDBRANCH   5  20
TORSDOF 8
ENDMDL
MODEL       61
REMARK 921   NORMALIZED FREE ENERGY PREDICTED BY IDOCK:   -5.65 KCAL/MOL
REMARK 922        TOTAL FREE ENERGY PREDICTED BY IDOCK:   -9.68 KCAL/MOL
REMARK 923 INTER-LIGAND FREE ENERGY PREDICTED BY IDOCK:   -7.49 KCAL/MOL
REMARK 924 INTRA-LIGAND FREE ENERGY PREDICTED BY IDOCK:   -2.20 KCAL/MOL
REMARK 927      BINDING AFFINITY PREDICTED BY RF-SCORE:    0.00 PKD
ROOT
HETATM    1  C   UNL     1      -8.393   8.858  70.677  1.00  0.00    -0.166 C  
HETATM    2  S   UNL     1      -7.709   8.719  69.047  1.00  0.00    -0.092 SA 
HETATM    3  C   UNL     1      -9.026   9.360  67.976  1.00  0.00    -0.127 C  
HETATM    4  C   UNL     1     -10.274   9.916  68.600  1.00  0.00    -0.197 C  
HETATM    5  CA  UNL     1      -8.692   7.737  71.781  1.00  0.00    -0.119 C  
HETATM    6  CA  UNL     1     -10.577   9.899  69.912  1.00  0.00    -0.273 C  
HETATM    7  C   UNL     1      -9.945   8.628  72.009  1.00  0.00    -0.329 C  
HETATM    8  C   UNL     1     -11.827  10.573  70.401  1.00  0.00    -0.340 C  
HETATM    9  N   UNL     1      -9.776   9.219  70.810  1.00  0.00    -0.268 N  
HETATM   10  OXT UNL     1     -12.215  11.622  69.910  1.00  0.00    -0.283 OA 
HETATM   11  O   UNL     1     -10.858   8.651  72.780  1.00  0.00    -0.154 OA 
HETATM   12  O   UNL     1     -12.488   9.999  71.418  1.00  0.00    -0.347 OA 
ENDROOT
BRANCH   4  13
HETATM   13  C   UNL     1     -11.267  10.391  67.535  1.00  0.00    -0.179 C  
BRANCH  13  14
HETATM   14  O   UNL     1     -10.827  11.590  66.867  1.00  0.00    -0.256 OA 
BRANCH  14  15
HETATM   15  C   UNL     1     -11.767  12.516  66.591  1.00  0.00    -0.387 C  
HETATM   16  O   UNL     1     -12.477  12.562  65.599  1.00  0.00    -0.648 OA 
HETATM   17  N   UNL     1     -11.794  13.456  67.565  1.00  0.00    -0.365 N  
HETATM   18  H2  UNL     1     -11.191  13.462  68.388  1.00  0.00     0.000 HD 
HETATM   19  H1  UNL     1     -12.505  14.156  67.355  1.00  0.00     0.000 HD 
ENDBRANCH  14  15
ENDBRANCH  13  14
ENDBRANCH   4  13
BRANCH   5  20
HETATM   20  N   UNL     1      -9.093   6.275  71.742  1.00  0.00    -0.144 N  
HETATM   21  H   UNL     1      -8.451   5.688  72.274  1.00  0.00     0.000 HD 
HETATM   22  C   UNL     1     -10.129   5.526  71.153  1.00  0.00    -0.207 C  
HETATM   23  O   UNL     1     -10.192   4.332  71.407  1.00  0.00    -0.152 OA 
BRANCH  22  24
HETATM   24  C   UNL     1     -11.042   6.086  70.076  1.00  0.00    -0.381 C  
BRANCH  24  25
HETATM   25  C   UNL     1     -10.591   6.120  68.689  1.00  0.00    -0.270 A  
HETATM   26  O   UNL     1     -11.411   6.523  67.668  1.00  0.00    -0.268 OA 
HETATM   27  C   UNL     1      -9.457   5.533  68.138  1.00  0.00    -0.133 A  
HETATM   28  C   UNL     1     -10.851   6.086  66.504  1.00  0.00    -0.120 A  
HETATM   29  C   UNL     1      -9.652   5.458  66.742  1.00  0.00    -0.155 A  
ENDBRANCH  24  25
BRANCH  24  30
HETATM   30  N   UNL     1     -12.149   6.740  70.265  1.00  0.00    -0.617 NA 
HETATM   31  H   UNL     1     -12.443   7.384  69.531  1.00  0.00     0.000 HD 
BRANCH  30  32
HETATM   32  O   UNL     1     -12.967   6.635  71.387  1.00  0.00    -0.250 OA 
HETATM   33  C   UNL     1     -14.264   7.185  71.401  1.00  0.00    -0.260 C  
ENDBRANCH  30  32
ENDBRANCH  24  30
ENDBRANCH  22  24
ENDBRANCH   5  20
TORSDOF 8
ENDMDL
MODEL       62
REMARK 921   NORMALIZED FREE ENERGY PREDICTED BY IDOCK:   -5.65 KCAL/MOL
REMARK 922        TOTAL FREE ENERGY PREDICTED BY IDOCK:   -9.68 KCAL/MOL
REMARK 923 INTER-LIGAND FREE ENERGY PREDICTED BY IDOCK:   -8.22 KCAL/MOL
REMARK 924 INTRA-LIGAND FREE ENERGY PREDICTED BY IDOCK:   -1.46 KCAL/MOL
REMARK 927      BINDING AFFINITY PREDICTED BY RF-SCORE:    0.00 PKD
ROOT
HETATM    1  C   UNL     1     -10.440  12.225  65.109  1.00  0.00    -0.288 C  
HETATM    2  S   UNL     1     -12.096  12.821  65.322  1.00  0.00    -0.472 SA 
HETATM    3  C   UNL     1     -12.017  13.754  66.876  1.00  0.00    -0.421 C  
HETATM    4  C   UNL     1     -10.694  13.914  67.570  1.00  0.00    -0.271 C  
HETATM    5  CA  UNL     1      -9.874  10.730  65.008  1.00  0.00    -0.288 C  
HETATM    6  CA  UNL     1      -9.535  13.334  67.204  1.00  0.00    -0.240 C  
HETATM    7  C   UNL     1      -8.724  11.356  65.845  1.00  0.00    -0.101 C  
HETATM    8  C   UNL     1      -8.268  13.656  67.946  1.00  0.00    -0.171 C  
HETATM    9  N   UNL     1      -9.505  12.401  66.185  1.00  0.00    -0.228 N  
HETATM   10  OXT UNL     1      -8.045  14.785  68.356  1.00  0.00    -0.131 OA 
HETATM   11  O   UNL     1      -7.663  10.995  66.260  1.00  0.00    -0.158 OA 
HETATM   12  O   UNL     1      -7.377  12.668  68.116  1.00  0.00    -0.092 OA 
ENDROOT
BRANCH   4  13
HETATM   13  C   UNL     1     -10.836  14.716  68.867  1.00  0.00    -0.250 C  
BRANCH  13  14
HETATM   14  O   UNL     1     -12.172  15.221  69.058  1.00  0.00    -0.239 OA 
BRANCH  14  15
HETATM   15  C   UNL     1     -12.476  15.697  70.281  1.00  0.00    -0.334 C  
HETATM   16  O   UNL     1     -11.735  16.314  71.031  1.00  0.00    -0.403 OA 
HETATM   17  N   UNL     1     -13.742  15.350  70.613  1.00  0.00    -0.841 N  
HETATM   18  H2  UNL     1     -14.373  14.807  70.023  1.00  0.00     0.000 HD 
HETATM   19  H1  UNL     1     -13.972  15.710  71.539  1.00  0.00     0.000 HD 
ENDBRANCH  14  15
ENDBRANCH  13  14
ENDBRANCH   4  13
BRANCH   5  20
HETATM   20  N   UNL     1     -10.276   9.391  65.596  1.00  0.00    -0.270 N  
HETATM   21  H   UNL     1     -10.376   8.673  64.879  1.00  0.00     0.000 HD 
HETATM   22  C   UNL     1     -10.545   8.892  66.884  1.00  0.00    -0.184 C  
HETATM   23  O   UNL     1     -10.769   7.697  67.004  1.00  0.00    -0.348 OA 
BRANCH  22  24
HETATM   24  C   UNL     1     -10.762   9.793  68.088  1.00  0.00    -0.233 C  
BRANCH  24  25
HETATM   25  C   UNL     1      -9.938   9.622  69.279  1.00  0.00    -0.191 A  
HETATM   26  O   UNL     1      -8.729  10.251  69.422  1.00  0.00    -0.163 OA 
HETATM   27  C   UNL     1     -10.056   8.662  70.277  1.00  0.00    -0.206 A  
HETATM   28  C   UNL     1      -8.056   9.608  70.419  1.00  0.00    -0.168 A  
HETATM   29  C   UNL     1      -8.827   8.613  70.969  1.00  0.00    -0.235 A  
ENDBRANCH  24  25
BRANCH  24  30
HETATM   30  N   UNL     1     -11.755  10.612  68.272  1.00  0.00    -0.731 NA 
HETATM   31  H   UNL     1     -11.966  11.267  67.521  1.00  0.00     0.000 HD 
BRANCH  30  32
HETATM   32  O   UNL     1     -12.555  10.667  69.411  1.00  0.00    -0.279 OA 
HETATM   33  C   UNL     1     -12.400  11.691  70.364  1.00  0.00    -0.288 C  
ENDBRANCH  30  32
ENDBRANCH  24  30
ENDBRANCH  22  24
ENDBRANCH   5  20
TORSDOF 8
ENDMDL
MODEL       63
REMARK 921   NORMALIZED FREE ENERGY PREDICTED BY IDOCK:   -5.63 KCAL/MOL
REMARK 922        TOTAL FREE ENERGY PREDICTED BY IDOCK:   -9.66 KCAL/MOL
REMARK 923 INTER-LIGAND FREE ENERGY PREDICTED BY IDOCK:   -8.55 KCAL/MOL
REMARK 924 INTRA-LIGAND FREE ENERGY PREDICTED BY IDOCK:   -1.11 KCAL/MOL
REMARK 927      BINDING AFFINITY PREDICTED BY RF-SCORE:    0.00 PKD
ROOT
HETATM    1  C   UNL     1     -10.687  11.718  65.539  1.00  0.00    -0.279 C  
HETATM    2  S   UNL     1     -10.004  10.904  64.120  1.00  0.00    -0.371 SA 
HETATM    3  C   UNL     1      -9.252   9.404  64.811  1.00  0.00    -0.156 C  
HETATM    4  C   UNL     1      -9.411   9.110  66.275  1.00  0.00    -0.299 C  
HETATM    5  CA  UNL     1     -10.382  13.162  66.161  1.00  0.00    -0.284 C  
HETATM    6  CA  UNL     1      -9.985   9.919  67.186  1.00  0.00    -0.200 C  
HETATM    7  C   UNL     1     -10.552  12.370  67.487  1.00  0.00    -0.219 C  
HETATM    8  C   UNL     1     -10.151   9.454  68.604  1.00  0.00    -0.190 C  
HETATM    9  N   UNL     1     -10.377  11.199  66.841  1.00  0.00    -0.222 N  
HETATM   10  OXT UNL     1     -10.431   8.293  68.861  1.00  0.00    -0.221 OA 
HETATM   11  O   UNL     1     -10.575  12.633  68.652  1.00  0.00    -0.235 OA 
HETATM   12  O   UNL     1     -10.010  10.364  69.580  1.00  0.00    -0.227 OA 
ENDROOT
BRANCH   4  13
HETATM   13  C   UNL     1      -8.696   7.814  66.666  1.00  0.00    -0.140 C  
BRANCH  13  14
HETATM   14  O   UNL     1      -9.180   6.674  65.929  1.00  0.00    -0.099 OA 
BRANCH  14  15
HETATM   15  C   UNL     1      -9.938   5.787  66.602  1.00  0.00    -0.176 C  
HETATM   16  O   UNL     1      -9.617   4.657  66.937  1.00  0.00    -0.153 OA 
HETATM   17  N   UNL     1     -11.168   6.304  66.829  1.00  0.00    -0.746 N  
HETATM   18  H2  UNL     1     -11.477   7.230  66.533  1.00  0.00     0.000 HD 
HETATM   19  H1  UNL     1     -11.742   5.632  67.339  1.00  0.00     0.000 HD 
ENDBRANCH  14  15
ENDBRANCH  13  14
ENDBRANCH   4  13
BRANCH   5  20
HETATM   20  N   UNL     1      -9.159  14.056  66.242  1.00  0.00    -0.490 N  
HETATM   21  H   UNL     1      -8.295  13.517  66.279  1.00  0.00     0.000 HD 
HETATM   22  C   UNL     1      -8.920  15.442  66.280  1.00  0.00    -0.306 C  
HETATM   23  O   UNL     1      -7.761  15.827  66.262  1.00  0.00     0.009 OA 
BRANCH  22  24
HETATM   24  C   UNL     1     -10.018  16.461  66.537  1.00  0.00    -0.282 C  
BRANCH  24  25
HETATM   25  C   UNL     1     -10.771  16.416  67.785  1.00  0.00    -0.328 A  
HETATM   26  O   UNL     1     -10.281  16.948  68.948  1.00  0.00    -0.276 OA 
HETATM   27  C   UNL     1     -11.889  15.647  68.088  1.00  0.00    -0.096 A  
HETATM   28  C   UNL     1     -11.012  16.421  69.972  1.00  0.00    -0.318 A  
HETATM   29  C   UNL     1     -12.007  15.603  69.494  1.00  0.00    -0.363 A  
ENDBRANCH  24  25
BRANCH  24  30
HETATM   30  N   UNL     1     -10.521  17.290  65.671  1.00  0.00    -0.590 NA 
HETATM   31  H   UNL     1     -10.506  18.281  65.910  1.00  0.00     0.000 HD 
BRANCH  30  32
HETATM   32  O   UNL     1     -11.078  16.937  64.445  1.00  0.00    -1.128 OA 
HETATM   33  C   UNL     1     -11.760  15.716  64.276  1.00  0.00    -0.169 C  
ENDBRANCH  30  32
ENDBRANCH  24  30
ENDBRANCH  22  24
ENDBRANCH   5  20
TORSDOF 8
ENDMDL
MODEL       64
REMARK 921   NORMALIZED FREE ENERGY PREDICTED BY IDOCK:   -5.62 KCAL/MOL
REMARK 922        TOTAL FREE ENERGY PREDICTED BY IDOCK:   -9.64 KCAL/MOL
REMARK 923 INTER-LIGAND FREE ENERGY PREDICTED BY IDOCK:   -7.55 KCAL/MOL
REMARK 924 INTRA-LIGAND FREE ENERGY PREDICTED BY IDOCK:   -2.10 KCAL/MOL
REMARK 927      BINDING AFFINITY PREDICTED BY RF-SCORE:    0.00 PKD
ROOT
HETATM    1  C   UNL     1      -8.476   9.090  70.590  1.00  0.00    -0.196 C  
HETATM    2  S   UNL     1      -7.420   8.309  69.400  1.00  0.00    -0.092 SA 
HETATM    3  C   UNL     1      -8.328   8.491  67.839  1.00  0.00    -0.126 C  
HETATM    4  C   UNL     1      -9.615   9.266  67.825  1.00  0.00    -0.167 C  
HETATM    5  CA  UNL     1      -9.185   8.502  71.901  1.00  0.00    -0.255 C  
HETATM    6  CA  UNL     1     -10.244   9.774  68.903  1.00  0.00    -0.200 C  
HETATM    7  C   UNL     1     -10.334   9.427  71.411  1.00  0.00    -0.256 C  
HETATM    8  C   UNL     1     -11.483  10.604  68.726  1.00  0.00    -0.262 C  
HETATM    9  N   UNL     1      -9.790   9.493  70.178  1.00  0.00    -0.228 N  
HETATM   10  OXT UNL     1     -11.598  11.378  67.788  1.00  0.00    -0.445 OA 
HETATM   11  O   UNL     1     -11.403   9.767  71.821  1.00  0.00    -0.298 OA 
HETATM   12  O   UNL     1     -12.449  10.488  69.650  1.00  0.00    -0.208 OA 
ENDROOT
BRANCH   4  13
HETATM   13  C   UNL     1     -10.235   9.295  66.425  1.00  0.00    -0.228 C  
BRANCH  13  14
HETATM   14  O   UNL     1      -9.333   9.823  65.434  1.00  0.00    -0.212 OA 
BRANCH  14  15
HETATM   15  C   UNL     1      -9.790  10.831  64.666  1.00  0.00    -0.307 C  
HETATM   16  O   UNL     1      -9.994  11.983  65.017  1.00  0.00    -0.255 OA 
HETATM   17  N   UNL     1     -10.056  10.380  63.417  1.00  0.00    -0.464 N  
HETATM   18  H2  UNL     1      -9.928   9.418  63.103  1.00  0.00     0.000 HD 
HETATM   19  H1  UNL     1     -10.402  11.143  62.836  1.00  0.00     0.000 HD 
ENDBRANCH  14  15
ENDBRANCH  13  14
ENDBRANCH   4  13
BRANCH   5  20
HETATM   20  N   UNL     1      -9.742   7.149  72.301  1.00  0.00    -0.153 N  
HETATM   21  H   UNL     1      -9.264   6.766  73.116  1.00  0.00     0.000 HD 
HETATM   22  C   UNL     1     -10.753   6.291  71.829  1.00  0.00    -0.236 C  
HETATM   23  O   UNL     1     -10.993   5.278  72.468  1.00  0.00    -0.236 OA 
BRANCH  22  24
HETATM   24  C   UNL     1     -11.414   6.466  70.472  1.00  0.00    -0.379 C  
BRANCH  24  25
HETATM   25  C   UNL     1     -10.716   6.039  69.265  1.00  0.00    -0.332 A  
HETATM   26  O   UNL     1     -11.185   6.334  68.012  1.00  0.00    -0.323 OA 
HETATM   27  C   UNL     1      -9.701   5.096  69.145  1.00  0.00    -0.232 A  
HETATM   28  C   UNL     1     -10.554   5.498  67.138  1.00  0.00    -0.240 A  
HETATM   29  C   UNL     1      -9.639   4.707  67.790  1.00  0.00    -0.203 A  
ENDBRANCH  24  25
BRANCH  24  30
HETATM   30  N   UNL     1     -12.492   7.147  70.220  1.00  0.00    -0.486 NA 
HETATM   31  H   UNL     1     -12.433   7.869  69.503  1.00  0.00     0.000 HD 
BRANCH  30  32
HETATM   32  O   UNL     1     -13.723   6.972  70.849  1.00  0.00    -0.075 OA 
HETATM   33  C   UNL     1     -14.253   7.956  71.705  1.00  0.00    -0.451 C  
ENDBRANCH  30  32
ENDBRANCH  24  30
ENDBRANCH  22  24
ENDBRANCH   5  20
TORSDOF 8
ENDMDL
MODEL       65
REMARK 921   NORMALIZED FREE ENERGY PREDICTED BY IDOCK:   -5.60 KCAL/MOL
REMARK 922        TOTAL FREE ENERGY PREDICTED BY IDOCK:   -9.61 KCAL/MOL
REMARK 923 INTER-LIGAND FREE ENERGY PREDICTED BY IDOCK:   -8.03 KCAL/MOL
REMARK 924 INTRA-LIGAND FREE ENERGY PREDICTED BY IDOCK:   -1.57 KCAL/MOL
REMARK 927      BINDING AFFINITY PREDICTED BY RF-SCORE:    0.00 PKD
ROOT
HETATM    1  C   UNL     1     -10.632  12.484  65.721  1.00  0.00    -0.270 C  
HETATM    2  S   UNL     1     -11.983  13.154  64.788  1.00  0.00    -0.415 SA 
HETATM    3  C   UNL     1     -11.725  14.947  64.893  1.00  0.00    -0.371 C  
HETATM    4  C   UNL     1     -10.503  15.474  65.589  1.00  0.00    -0.393 C  
HETATM    5  CA  UNL     1     -10.625  11.565  67.033  1.00  0.00    -0.242 C  
HETATM    6  CA  UNL     1      -9.594  14.737  66.257  1.00  0.00    -0.312 C  
HETATM    7  C   UNL     1      -9.412  12.473  67.379  1.00  0.00    -0.184 C  
HETATM    8  C   UNL     1      -8.372  15.394  66.831  1.00  0.00    -0.255 C  
HETATM    9  N   UNL     1      -9.801  13.387  66.467  1.00  0.00    -0.279 N  
HETATM   10  OXT UNL     1      -7.803  16.300  66.241  1.00  0.00    -0.269 OA 
HETATM   11  O   UNL     1      -8.591  12.524  68.246  1.00  0.00    -0.180 OA 
HETATM   12  O   UNL     1      -7.907  14.932  68.002  1.00  0.00    -0.114 OA 
ENDROOT
BRANCH   4  13
HETATM   13  C   UNL     1     -10.473  17.005  65.586  1.00  0.00    -0.216 C  
BRANCH  13  14
HETATM   14  O   UNL     1     -10.853  17.566  66.858  1.00  0.00    -0.190 OA 
BRANCH  14  15
HETATM   15  C   UNL     1     -10.316  18.757  67.186  1.00  0.00    -0.404 C  
HETATM   16  O   UNL     1     -10.789  19.587  67.947  1.00  0.00    -0.376 OA 
HETATM   17  N   UNL     1      -9.166  18.953  66.499  1.00  0.00    -0.324 N  
HETATM   18  H2  UNL     1      -8.764  18.295  65.832  1.00  0.00     0.000 HD 
HETATM   19  H1  UNL     1      -8.760  19.856  66.747  1.00  0.00     0.000 HD 
ENDBRANCH  14  15
ENDBRANCH  13  14
ENDBRANCH   4  13
BRANCH   5  20
HETATM   20  N   UNL     1     -11.527  11.420  68.243  1.00  0.00    -0.278 N  
HETATM   21  H   UNL     1     -12.300  12.085  68.225  1.00  0.00     0.000 HD 
HETATM   22  C   UNL     1     -11.565  10.598  69.385  1.00  0.00    -0.280 C  
HETATM   23  O   UNL     1     -12.518  10.705  70.141  1.00  0.00    -0.322 OA 
BRANCH  22  24
HETATM   24  C   UNL     1     -10.391   9.735  69.817  1.00  0.00    -0.246 C  
BRANCH  24  25
HETATM   25  C   UNL     1     -10.597   8.317  70.091  1.00  0.00    -0.233 A  
HETATM   26  O   UNL     1     -10.665   7.386  69.088  1.00  0.00    -0.217 OA 
HETATM   27  C   UNL     1     -11.015   7.721  71.275  1.00  0.00    -0.259 A  
HETATM   28  C   UNL     1     -11.231   6.264  69.618  1.00  0.00    -0.437 A  
HETATM   29  C   UNL     1     -11.477   6.425  70.960  1.00  0.00    -0.394 A  
ENDBRANCH  24  25
BRANCH  24  30
HETATM   30  N   UNL     1      -9.212  10.154  70.169  1.00  0.00    -0.369 NA 
HETATM   31  H   UNL     1      -9.168  10.975  70.771  1.00  0.00     0.000 HD 
BRANCH  30  32
HETATM   32  O   UNL     1      -8.004   9.573  69.792  1.00  0.00    -0.101 OA 
HETATM   33  C   UNL     1      -7.046   9.190  70.751  1.00  0.00    -0.102 C  
ENDBRANCH  30  32
ENDBRANCH  24  30
ENDBRANCH  22  24
ENDBRANCH   5  20
TORSDOF 8
ENDMDL
MODEL       66
REMARK 921   NORMALIZED FREE ENERGY PREDICTED BY IDOCK:   -5.58 KCAL/MOL
REMARK 922        TOTAL FREE ENERGY PREDICTED BY IDOCK:   -9.59 KCAL/MOL
REMARK 923 INTER-LIGAND FREE ENERGY PREDICTED BY IDOCK:   -8.29 KCAL/MOL
REMARK 924 INTRA-LIGAND FREE ENERGY PREDICTED BY IDOCK:   -1.29 KCAL/MOL
REMARK 927      BINDING AFFINITY PREDICTED BY RF-SCORE:    0.00 PKD
ROOT
HETATM    1  C   UNL     1      -9.878  12.079  67.676  1.00  0.00    -0.189 C  
HETATM    2  S   UNL     1     -11.637  11.990  67.881  1.00  0.00    -0.325 SA 
HETATM    3  C   UNL     1     -12.068  13.612  68.572  1.00  0.00    -0.286 C  
HETATM    4  C   UNL     1     -10.994  14.649  68.736  1.00  0.00    -0.268 C  
HETATM    5  CA  UNL     1      -8.708  11.190  68.312  1.00  0.00    -0.151 C  
HETATM    6  CA  UNL     1      -9.679  14.467  68.512  1.00  0.00    -0.225 C  
HETATM    7  C   UNL     1      -8.002  12.573  68.366  1.00  0.00    -0.139 C  
HETATM    8  C   UNL     1      -8.730  15.625  68.635  1.00  0.00    -0.193 C  
HETATM    9  N   UNL     1      -9.182  13.210  68.221  1.00  0.00    -0.209 N  
HETATM   10  OXT UNL     1      -9.050  16.747  68.275  1.00  0.00    -0.215 OA 
HETATM   11  O   UNL     1      -6.918  12.978  68.661  1.00  0.00    -0.092 OA 
HETATM   12  O   UNL     1      -7.506  15.379  69.128  1.00  0.00    -0.155 OA 
ENDROOT
BRANCH   4  13
HETATM   13  C   UNL     1     -11.551  15.939  69.346  1.00  0.00    -0.349 C  
BRANCH  13  14
HETATM   14  O   UNL     1     -11.273  16.046  70.756  1.00  0.00    -0.356 OA 
BRANCH  14  15
HETATM   15  C   UNL     1     -12.319  15.927  71.596  1.00  0.00    -0.459 C  
HETATM   16  O   UNL     1     -13.425  15.482  71.328  1.00  0.00    -0.502 OA 
HETATM   17  N   UNL     1     -11.999  16.429  72.812  1.00  0.00    -0.542 N  
HETATM   18  H2  UNL     1     -11.096  16.837  73.056  1.00  0.00     0.000 HD 
HETATM   19  H1  UNL     1     -12.791  16.339  73.447  1.00  0.00     0.000 HD 
ENDBRANCH  14  15
ENDBRANCH  13  14
ENDBRANCH   4  13
BRANCH   5  20
HETATM   20  N   UNL     1      -8.514  10.456  69.625  1.00  0.00    -0.353 N  
HETATM   21  H   UNL     1      -7.605  10.655  70.043  1.00  0.00     0.000 HD 
HETATM   22  C   UNL     1      -9.274   9.570  70.411  1.00  0.00    -0.253 C  
HETATM   23  O   UNL     1      -8.821   9.226  71.493  1.00  0.00    -0.317 OA 
BRANCH  22  24
HETATM   24  C   UNL     1     -10.523   8.876  69.895  1.00  0.00    -0.214 C  
BRANCH  24  25
HETATM   25  C   UNL     1     -10.407   7.830  68.886  1.00  0.00    -0.213 A  
HETATM   26  O   UNL     1      -9.853   8.067  67.655  1.00  0.00    -0.151 OA 
HETATM   27  C   UNL     1     -11.033   6.589  68.856  1.00  0.00    -0.376 A  
HETATM   28  C   UNL     1     -10.232   7.042  66.838  1.00  0.00    -0.248 A  
HETATM   29  C   UNL     1     -10.971   6.112  67.529  1.00  0.00    -0.404 A  
ENDBRANCH  24  25
BRANCH  24  30
HETATM   30  N   UNL     1     -11.753   9.238  70.111  1.00  0.00    -0.465 NA 
HETATM   31  H   UNL     1     -12.305   9.524  69.303  1.00  0.00     0.000 HD 
BRANCH  30  32
HETATM   32  O   UNL     1     -12.379   9.267  71.355  1.00  0.00    -0.311 OA 
HETATM   33  C   UNL     1     -13.681   8.759  71.530  1.00  0.00    -0.338 C  
ENDBRANCH  30  32
ENDBRANCH  24  30
ENDBRANCH  22  24
ENDBRANCH   5  20
TORSDOF 8
ENDMDL
MODEL       67
REMARK 921   NORMALIZED FREE ENERGY PREDICTED BY IDOCK:   -5.57 KCAL/MOL
REMARK 922        TOTAL FREE ENERGY PREDICTED BY IDOCK:   -9.57 KCAL/MOL
REMARK 923 INTER-LIGAND FREE ENERGY PREDICTED BY IDOCK:   -8.33 KCAL/MOL
REMARK 924 INTRA-LIGAND FREE ENERGY PREDICTED BY IDOCK:   -1.24 KCAL/MOL
REMARK 927      BINDING AFFINITY PREDICTED BY RF-SCORE:    0.00 PKD
ROOT
HETATM    1  C   UNL     1     -11.570  11.319  68.830  1.00  0.00    -0.316 C  
HETATM    2  S   UNL     1     -11.572  13.044  69.239  1.00  0.00    -0.310 SA 
HETATM    3  C   UNL     1     -10.977  13.843  67.721  1.00  0.00    -0.256 C  
HETATM    4  C   UNL     1     -10.715  13.002  66.504  1.00  0.00    -0.290 C  
HETATM    5  CA  UNL     1     -10.778  10.092  69.488  1.00  0.00    -0.249 C  
HETATM    6  CA  UNL     1     -10.777  11.659  66.443  1.00  0.00    -0.272 C  
HETATM    7  C   UNL     1     -10.677   9.661  67.998  1.00  0.00    -0.232 C  
HETATM    8  C   UNL     1     -10.572  10.957  65.131  1.00  0.00    -0.198 C  
HETATM    9  N   UNL     1     -10.975  10.911  67.589  1.00  0.00    -0.272 N  
HETATM   10  OXT UNL     1     -10.996  11.430  64.087  1.00  0.00    -0.357 OA 
HETATM   11  O   UNL     1     -10.266   8.712  67.400  1.00  0.00    -0.220 OA 
HETATM   12  O   UNL     1      -9.932   9.778  65.147  1.00  0.00    -0.309 OA 
ENDROOT
BRANCH   4  13
HETATM   13  C   UNL     1     -10.207  13.853  65.337  1.00  0.00    -0.337 C  
BRANCH  13  14
HETATM   14  O   UNL     1     -11.167  14.845  64.920  1.00  0.00    -0.378 OA 
BRANCH  14  15
HETATM   15  C   UNL     1     -12.352  14.395  64.465  1.00  0.00    -0.418 C  
HETATM   16  O   UNL     1     -13.391  14.302  65.100  1.00  0.00    -0.626 OA 
HETATM   17  N   UNL     1     -12.234  13.994  63.177  1.00  0.00    -1.003 N  
HETATM   18  H2  UNL     1     -11.373  14.028  62.631  1.00  0.00     0.000 HD 
HETATM   19  H1  UNL     1     -13.132  13.653  62.833  1.00  0.00     0.000 HD 
ENDBRANCH  14  15
ENDBRANCH  13  14
ENDBRANCH   4  13
BRANCH   5  20
HETATM   20  N   UNL     1      -9.433   9.928  70.169  1.00  0.00    -0.363 N  
HETATM   21  H   UNL     1      -8.817  10.721  69.993  1.00  0.00     0.000 HD 
HETATM   22  C   UNL     1      -8.823   8.956  70.983  1.00  0.00    -0.230 C  
HETATM   23  O   UNL     1      -7.716   9.198  71.438  1.00  0.00    -0.301 OA 
BRANCH  22  24
HETATM   24  C   UNL     1      -9.388   7.556  71.158  1.00  0.00    -0.151 C  
BRANCH  24  25
HETATM   25  C   UNL     1      -8.839   6.451  70.381  1.00  0.00    -0.151 A  
HETATM   26  O   UNL     1      -8.081   5.464  70.955  1.00  0.00    -0.108 OA 
HETATM   27  C   UNL     1      -8.733   6.339  68.999  1.00  0.00    -0.125 A  
HETATM   28  C   UNL     1      -7.420   4.826  69.948  1.00  0.00    -0.055 A  
HETATM   29  C   UNL     1      -7.778   5.336  68.724  1.00  0.00    -0.083 A  
ENDBRANCH  24  25
BRANCH  24  30
HETATM   30  N   UNL     1     -10.469   7.234  71.803  1.00  0.00    -0.197 NA 
HETATM   31  H   UNL     1     -11.357   7.357  71.318  1.00  0.00     0.000 HD 
BRANCH  30  32
HETATM   32  O   UNL     1     -10.516   6.734  73.102  1.00  0.00    -0.225 OA 
HETATM   33  C   UNL     1     -11.020   5.447  73.373  1.00  0.00    -0.297 C  
ENDBRANCH  30  32
ENDBRANCH  24  30
ENDBRANCH  22  24
ENDBRANCH   5  20
TORSDOF 8
ENDMDL
MODEL       68
REMARK 921   NORMALIZED FREE ENERGY PREDICTED BY IDOCK:   -5.51 KCAL/MOL
REMARK 922        TOTAL FREE ENERGY PREDICTED BY IDOCK:   -9.49 KCAL/MOL
REMARK 923 INTER-LIGAND FREE ENERGY PREDICTED BY IDOCK:   -7.50 KCAL/MOL
REMARK 924 INTRA-LIGAND FREE ENERGY PREDICTED BY IDOCK:   -1.98 KCAL/MOL
REMARK 927      BINDING AFFINITY PREDICTED BY RF-SCORE:    0.00 PKD
ROOT
HETATM    1  C   UNL     1     -10.837  15.770  69.554  1.00  0.00    -0.287 C  
HETATM    2  S   UNL     1     -12.150  14.632  69.206  1.00  0.00    -0.232 SA 
HETATM    3  C   UNL     1     -11.295  13.198  68.495  1.00  0.00    -0.286 C  
HETATM    4  C   UNL     1      -9.795  13.197  68.429  1.00  0.00    -0.206 C  
HETATM    5  CA  UNL     1     -10.568  17.252  69.009  1.00  0.00    -0.247 C  
HETATM    6  CA  UNL     1      -8.989  14.225  68.757  1.00  0.00    -0.097 C  
HETATM    7  C   UNL     1      -9.101  16.741  69.024  1.00  0.00    -0.191 C  
HETATM    8  C   UNL     1      -7.497  14.049  68.721  1.00  0.00    -0.124 C  
HETATM    9  N   UNL     1      -9.519  15.461  69.077  1.00  0.00    -0.220 N  
HETATM   10  OXT UNL     1      -6.975  12.999  69.064  1.00  0.00    -0.098 OA 
HETATM   11  O   UNL     1      -8.021  17.212  68.821  1.00  0.00    -0.260 OA 
HETATM   12  O   UNL     1      -6.755  15.095  68.328  1.00  0.00    -0.104 OA 
ENDROOT
BRANCH   4  13
HETATM   13  C   UNL     1      -9.264  11.912  67.786  1.00  0.00    -0.184 C  
BRANCH  13  14
HETATM   14  O   UNL     1      -9.848  10.727  68.362  1.00  0.00    -0.157 OA 
BRANCH  14  15
HETATM   15  C   UNL     1      -9.332  10.298  69.530  1.00  0.00    -0.178 C  
HETATM   16  O   UNL     1      -8.160  10.049  69.764  1.00  0.00    -0.159 OA 
HETATM   17  N   UNL     1     -10.321  10.120  70.438  1.00  0.00    -0.416 N  
HETATM   18  H2  UNL     1     -11.312  10.288  70.262  1.00  0.00     0.000 HD 
HETATM   19  H1  UNL     1      -9.931   9.795  71.322  1.00  0.00     0.000 HD 
ENDBRANCH  14  15
ENDBRANCH  13  14
ENDBRANCH   4  13
BRANCH   5  20
HETATM   20  N   UNL     1     -10.851  17.982  67.709  1.00  0.00    -0.324 N  
HETATM   21  H   UNL     1     -11.544  18.720  67.829  1.00  0.00     0.000 HD 
HETATM   22  C   UNL     1     -10.397  17.895  66.380  1.00  0.00    -0.365 C  
HETATM   23  O   UNL     1     -10.795  18.728  65.580  1.00  0.00    -0.494 OA 
BRANCH  22  24
HETATM   24  C   UNL     1      -9.600  16.711  65.858  1.00  0.00    -0.214 C  
BRANCH  24  25
HETATM   25  C   UNL     1     -10.285  15.469  65.520  1.00  0.00    -0.386 A  
HETATM   26  O   UNL     1      -9.602  14.304  65.284  1.00  0.00    -0.134 OA 
HETATM   27  C   UNL     1     -11.605  15.294  65.121  1.00  0.00    -0.192 A  
HETATM   28  C   UNL     1     -10.457  13.460  64.638  1.00  0.00    -0.411 A  
HETATM   29  C   UNL     1     -11.700  14.029  64.503  1.00  0.00    -0.428 A  
ENDBRANCH  24  25
BRANCH  24  30
HETATM   30  N   UNL     1      -8.305  16.596  65.848  1.00  0.00    -0.400 NA 
HETATM   31  H   UNL     1      -7.917  15.668  66.017  1.00  0.00     0.000 HD 
BRANCH  30  32
HETATM   32  O   UNL     1      -7.404  17.634  65.625  1.00  0.00    -0.487 OA 
HETATM   33  C   UNL     1      -6.101  17.598  66.158  1.00  0.00    -0.223 C  
ENDBRANCH  30  32
ENDBRANCH  24  30
ENDBRANCH  22  24
ENDBRANCH   5  20
TORSDOF 8
ENDMDL
MODEL       69
REMARK 921   NORMALIZED FREE ENERGY PREDICTED BY IDOCK:   -5.49 KCAL/MOL
REMARK 922        TOTAL FREE ENERGY PREDICTED BY IDOCK:   -9.45 KCAL/MOL
REMARK 923 INTER-LIGAND FREE ENERGY PREDICTED BY IDOCK:   -7.81 KCAL/MOL
REMARK 924 INTRA-LIGAND FREE ENERGY PREDICTED BY IDOCK:   -1.64 KCAL/MOL
REMARK 927      BINDING AFFINITY PREDICTED BY RF-SCORE:    0.00 PKD
ROOT
HETATM    1  C   UNL     1      -8.890  10.752  66.508  1.00  0.00    -0.155 C  
HETATM    2  S   UNL     1     -10.550  10.131  66.495  1.00  0.00    -0.051 SA 
HETATM    3  C   UNL     1     -11.568  11.632  66.530  1.00  0.00    -0.087 C  
HETATM    4  C   UNL     1     -10.897  12.975  66.473  1.00  0.00    -0.294 C  
HETATM    5  CA  UNL     1      -7.701  10.529  67.557  1.00  0.00    -0.098 C  
HETATM    6  CA  UNL     1      -9.569  13.197  66.502  1.00  0.00    -0.268 C  
HETATM    7  C   UNL     1      -7.444  12.027  67.231  1.00  0.00    -0.158 C  
HETATM    8  C   UNL     1      -9.039  14.594  66.350  1.00  0.00    -0.209 C  
HETATM    9  N   UNL     1      -8.687  12.157  66.724  1.00  0.00    -0.196 N  
HETATM   10  OXT UNL     1      -9.567  15.393  65.591  1.00  0.00    -0.335 OA 
HETATM   11  O   UNL     1      -6.617  12.842  67.513  1.00  0.00    -0.145 OA 
HETATM   12  O   UNL     1      -7.947  14.928  67.055  1.00  0.00    -0.207 OA 
ENDROOT
BRANCH   4  13
HETATM   13  C   UNL     1     -11.920  14.114  66.530  1.00  0.00    -0.442 C  
BRANCH  13  14
HETATM   14  O   UNL     1     -12.908  14.018  65.485  1.00  0.00    -0.615 OA 
BRANCH  14  15
HETATM   15  C   UNL     1     -12.470  14.131  64.216  1.00  0.00    -0.266 C  
HETATM   16  O   UNL     1     -12.418  13.244  63.379  1.00  0.00    -0.741 OA 
HETATM   17  N   UNL     1     -12.029  15.391  63.988  1.00  0.00    -0.949 N  
HETATM   18  H2  UNL     1     -12.028  16.144  64.676  1.00  0.00     0.000 HD 
HETATM   19  H1  UNL     1     -11.697  15.476  63.027  1.00  0.00     0.000 HD 
ENDBRANCH  14  15
ENDBRANCH  13  14
ENDBRANCH   4  13
BRANCH   5  20
HETATM   20  N   UNL     1      -7.623  10.303  69.055  1.00  0.00    -0.092 N  
HETATM   21  H   UNL     1      -6.775  10.700  69.458  1.00  0.00     0.000 HD 
HETATM   22  C   UNL     1      -8.429   9.681  70.027  1.00  0.00    -0.204 C  
HETATM   23  O   UNL     1      -8.085   9.761  71.197  1.00  0.00    -0.153 OA 
BRANCH  22  24
HETATM   24  C   UNL     1      -9.585   8.760  69.673  1.00  0.00    -0.171 C  
BRANCH  24  25
HETATM   25  C   UNL     1     -10.907   9.007  70.236  1.00  0.00    -0.238 A  
HETATM   26  O   UNL     1     -11.667  10.083  69.859  1.00  0.00    -0.213 OA 
HETATM   27  C   UNL     1     -11.484   8.433  71.363  1.00  0.00    -0.328 A  
HETATM   28  C   UNL     1     -12.634  10.246  70.808  1.00  0.00    -0.352 A  
HETATM   29  C   UNL     1     -12.555   9.261  71.763  1.00  0.00    -0.461 A  
ENDBRANCH  24  25
BRANCH  24  30
HETATM   30  N   UNL     1      -9.503   7.621  69.053  1.00  0.00    -0.150 NA 
HETATM   31  H   UNL     1      -9.921   6.810  69.507  1.00  0.00     0.000 HD 
BRANCH  30  32
HETATM   32  O   UNL     1      -8.890   7.416  67.819  1.00  0.00    -0.128 OA 
HETATM   33  C   UNL     1      -7.618   6.821  67.723  1.00  0.00    -0.107 C  
ENDBRANCH  30  32
ENDBRANCH  24  30
ENDBRANCH  22  24
ENDBRANCH   5  20
TORSDOF 8
ENDMDL
MODEL       70
REMARK 921   NORMALIZED FREE ENERGY PREDICTED BY IDOCK:   -5.47 KCAL/MOL
REMARK 922        TOTAL FREE ENERGY PREDICTED BY IDOCK:   -9.42 KCAL/MOL
REMARK 923 INTER-LIGAND FREE ENERGY PREDICTED BY IDOCK:   -7.78 KCAL/MOL
REMARK 924 INTRA-LIGAND FREE ENERGY PREDICTED BY IDOCK:   -1.64 KCAL/MOL
REMARK 927      BINDING AFFINITY PREDICTED BY RF-SCORE:    0.00 PKD
ROOT
HETATM    1  C   UNL     1     -10.727  10.112  66.742  1.00  0.00    -0.121 C  
HETATM    2  S   UNL     1     -10.893  10.103  68.507  1.00  0.00    -0.231 SA 
HETATM    3  C   UNL     1     -11.491  11.774  68.887  1.00  0.00    -0.297 C  
HETATM    4  C   UNL     1     -11.794  12.719  67.760  1.00  0.00    -0.387 C  
HETATM    5  CA  UNL     1      -9.442   9.880  65.814  1.00  0.00    -0.222 C  
HETATM    6  CA  UNL     1     -11.566  12.489  66.453  1.00  0.00    -0.391 C  
HETATM    7  C   UNL     1     -10.124  11.007  64.989  1.00  0.00    -0.296 C  
HETATM    8  C   UNL     1     -12.002  13.496  65.427  1.00  0.00    -0.379 C  
HETATM    9  N   UNL     1     -10.884  11.357  66.046  1.00  0.00    -0.272 N  
HETATM   10  OXT UNL     1     -13.046  14.117  65.552  1.00  0.00    -0.691 OA 
HETATM   11  O   UNL     1      -9.928  11.551  63.943  1.00  0.00    -0.270 OA 
HETATM   12  O   UNL     1     -11.218  13.671  64.352  1.00  0.00    -0.370 OA 
ENDROOT
BRANCH   4  13
HETATM   13  C   UNL     1     -12.271  14.077  68.282  1.00  0.00    -0.160 C  
BRANCH  13  14
HETATM   14  O   UNL     1     -12.608  14.041  69.683  1.00  0.00    -0.253 OA 
BRANCH  14  15
HETATM   15  C   UNL     1     -12.539  15.205  70.359  1.00  0.00    -0.359 C  
HETATM   16  O   UNL     1     -13.429  15.723  71.014  1.00  0.00    -0.581 OA 
HETATM   17  N   UNL     1     -11.326  15.778  70.174  1.00  0.00    -0.323 N  
HETATM   18  H2  UNL     1     -10.575  15.386  69.606  1.00  0.00     0.000 HD 
HETATM   19  H1  UNL     1     -11.274  16.659  70.686  1.00  0.00     0.000 HD 
ENDBRANCH  14  15
ENDBRANCH  13  14
ENDBRANCH   4  13
BRANCH   5  20
HETATM   20  N   UNL     1      -7.958  10.162  65.951  1.00  0.00    -0.128 N  
HETATM   21  H   UNL     1      -7.390   9.446  65.498  1.00  0.00     0.000 HD 
HETATM   22  C   UNL     1      -7.169  11.163  66.547  1.00  0.00    -0.124 C  
HETATM   23  O   UNL     1      -5.959  11.115  66.386  1.00  0.00    -0.128 OA 
BRANCH  22  24
HETATM   24  C   UNL     1      -7.729  12.177  67.531  1.00  0.00    -0.159 C  
BRANCH  24  25
HETATM   25  C   UNL     1      -7.663  13.600  67.222  1.00  0.00    -0.074 A  
HETATM   26  O   UNL     1      -6.507  14.322  67.363  1.00  0.00    -0.307 OA 
HETATM   27  C   UNL     1      -8.715  14.488  67.025  1.00  0.00    -0.256 A  
HETATM   28  C   UNL     1      -6.854  15.641  67.373  1.00  0.00    -0.197 A  
HETATM   29  C   UNL     1      -8.205  15.795  67.181  1.00  0.00    -0.237 A  
ENDBRANCH  24  25
BRANCH  24  30
HETATM   30  N   UNL     1      -8.109  11.940  68.752  1.00  0.00    -0.325 NA 
HETATM   31  H   UNL     1      -8.857  12.519  69.129  1.00  0.00     0.000 HD 
BRANCH  30  32
HETATM   32  O   UNL     1      -7.577  10.960  69.586  1.00  0.00    -0.100 OA 
HETATM   33  C   UNL     1      -6.273  11.072  70.107  1.00  0.00    -0.146 C  
ENDBRANCH  30  32
ENDBRANCH  24  30
ENDBRANCH  22  24
ENDBRANCH   5  20
TORSDOF 8
ENDMDL
MODEL       71
REMARK 921   NORMALIZED FREE ENERGY PREDICTED BY IDOCK:   -5.45 KCAL/MOL
REMARK 922        TOTAL FREE ENERGY PREDICTED BY IDOCK:   -9.40 KCAL/MOL
REMARK 923 INTER-LIGAND FREE ENERGY PREDICTED BY IDOCK:   -8.57 KCAL/MOL
REMARK 924 INTRA-LIGAND FREE ENERGY PREDICTED BY IDOCK:   -0.82 KCAL/MOL
REMARK 927      BINDING AFFINITY PREDICTED BY RF-SCORE:    0.00 PKD
ROOT
HETATM    1  C   UNL     1     -11.966  10.532  70.020  1.00  0.00    -0.288 C  
HETATM    2  S   UNL     1     -12.796  10.971  71.523  1.00  0.00    -0.419 SA 
HETATM    3  C   UNL     1     -12.891  12.781  71.445  1.00  0.00    -0.275 C  
HETATM    4  C   UNL     1     -12.393  13.490  70.218  1.00  0.00    -0.370 C  
HETATM    5  CA  UNL     1     -10.583   9.761  69.778  1.00  0.00    -0.257 C  
HETATM    6  CA  UNL     1     -11.768  12.915  69.172  1.00  0.00    -0.324 C  
HETATM    7  C   UNL     1     -10.466  10.809  68.637  1.00  0.00    -0.192 C  
HETATM    8  C   UNL     1     -11.403  13.740  67.971  1.00  0.00    -0.288 C  
HETATM    9  N   UNL     1     -11.410  11.581  69.214  1.00  0.00    -0.264 N  
HETATM   10  OXT UNL     1     -12.137  14.628  67.566  1.00  0.00    -0.340 OA 
HETATM   11  O   UNL     1      -9.708  11.027  67.739  1.00  0.00    -0.166 OA 
HETATM   12  O   UNL     1     -10.255  13.450  67.340  1.00  0.00    -0.234 OA 
ENDROOT
BRANCH   4  13
HETATM   13  C   UNL     1     -12.544  15.008  70.349  1.00  0.00    -0.350 C  
BRANCH  13  14
HETATM   14  O   UNL     1     -13.440  15.382  71.414  1.00  0.00    -0.469 OA 
BRANCH  14  15
HETATM   15  C   UNL     1     -12.906  16.047  72.457  1.00  0.00    -0.406 C  
HETATM   16  O   UNL     1     -11.768  16.482  72.541  1.00  0.00    -0.506 OA 
HETATM   17  N   UNL     1     -13.807  16.132  73.464  1.00  0.00    -0.797 N  
HETATM   18  H2  UNL     1     -14.753  15.750  73.436  1.00  0.00     0.000 HD 
HETATM   19  H1  UNL     1     -13.403  16.635  74.254  1.00  0.00     0.000 HD 
ENDBRANCH  14  15
ENDBRANCH  13  14
ENDBRANCH   4  13
BRANCH   5  20
HETATM   20  N   UNL     1      -9.269   9.660  70.528  1.00  0.00    -0.326 N  
HETATM   21  H   UNL     1      -8.637  10.426  70.295  1.00  0.00     0.000 HD 
HETATM   22  C   UNL     1      -8.703   8.775  71.465  1.00  0.00    -0.206 C  
HETATM   23  O   UNL     1      -7.612   9.056  71.937  1.00  0.00    -0.334 OA 
BRANCH  22  24
HETATM   24  C   UNL     1      -9.290   7.405  71.762  1.00  0.00    -0.145 C  
BRANCH  24  25
HETATM   25  C   UNL     1      -9.271   6.370  70.736  1.00  0.00    -0.158 A  
HETATM   26  O   UNL     1     -10.161   6.361  69.695  1.00  0.00    -0.175 OA 
HETATM   27  C   UNL     1      -8.609   5.147  70.759  1.00  0.00    -0.131 A  
HETATM   28  C   UNL     1     -10.139   5.110  69.155  1.00  0.00    -0.204 A  
HETATM   29  C   UNL     1      -9.207   4.320  69.784  1.00  0.00    -0.207 A  
ENDBRANCH  24  25
BRANCH  24  30
HETATM   30  N   UNL     1     -10.007   7.080  72.797  1.00  0.00    -0.171 NA 
HETATM   31  H   UNL     1      -9.651   7.347  73.715  1.00  0.00     0.000 HD 
BRANCH  30  32
HETATM   32  O   UNL     1     -11.220   6.398  72.756  1.00  0.00    -0.255 OA 
HETATM   33  C   UNL     1     -11.338   5.086  73.254  1.00  0.00    -0.317 C  
ENDBRANCH  30  32
ENDBRANCH  24  30
ENDBRANCH  22  24
ENDBRANCH   5  20
TORSDOF 8
ENDMDL
MODEL       72
REMARK 921   NORMALIZED FREE ENERGY PREDICTED BY IDOCK:   -5.45 KCAL/MOL
REMARK 922        TOTAL FREE ENERGY PREDICTED BY IDOCK:   -9.39 KCAL/MOL
REMARK 923 INTER-LIGAND FREE ENERGY PREDICTED BY IDOCK:   -8.21 KCAL/MOL
REMARK 924 INTRA-LIGAND FREE ENERGY PREDICTED BY IDOCK:   -1.19 KCAL/MOL
REMARK 927      BINDING AFFINITY PREDICTED BY RF-SCORE:    0.00 PKD
ROOT
HETATM    1  C   UNL     1     -10.803  12.620  68.258  1.00  0.00    -0.239 C  
HETATM    2  S   UNL     1     -11.904  13.543  69.297  1.00  0.00    -0.342 SA 
HETATM    3  C   UNL     1     -11.073  15.146  69.482  1.00  0.00    -0.277 C  
HETATM    4  C   UNL     1      -9.798  15.402  68.729  1.00  0.00    -0.211 C  
HETATM    5  CA  UNL     1     -10.026  11.245  68.523  1.00  0.00    -0.202 C  
HETATM    6  CA  UNL     1      -9.126  14.504  67.984  1.00  0.00    -0.185 C  
HETATM    7  C   UNL     1      -8.914  11.992  67.737  1.00  0.00    -0.176 C  
HETATM    8  C   UNL     1      -7.907  14.929  67.217  1.00  0.00    -0.206 C  
HETATM    9  N   UNL     1      -9.515  13.178  67.960  1.00  0.00    -0.214 N  
HETATM   10  OXT UNL     1      -7.845  16.026  66.682  1.00  0.00    -0.244 OA 
HETATM   11  O   UNL     1      -7.830  11.724  67.310  1.00  0.00    -0.144 OA 
HETATM   12  O   UNL     1      -6.897  14.052  67.113  1.00  0.00    -0.153 OA 
ENDROOT
BRANCH   4  13
HETATM   13  C   UNL     1      -9.245  16.799  69.027  1.00  0.00    -0.199 C  
BRANCH  13  14
HETATM   14  O   UNL     1     -10.278  17.802  69.075  1.00  0.00    -0.367 OA 
BRANCH  14  15
HETATM   15  C   UNL     1     -10.258  18.747  68.116  1.00  0.00    -0.381 C  
HETATM   16  O   UNL     1     -10.375  19.952  68.275  1.00  0.00    -0.441 OA 
HETATM   17  N   UNL     1     -10.136  18.170  66.897  1.00  0.00    -0.338 N  
HETATM   18  H2  UNL     1     -10.070  17.166  66.730  1.00  0.00     0.000 HD 
HETATM   19  H1  UNL     1     -10.121  18.887  66.171  1.00  0.00     0.000 HD 
ENDBRANCH  14  15
ENDBRANCH  13  14
ENDBRANCH   4  13
BRANCH   5  20
HETATM   20  N   UNL     1      -9.434  10.569  69.745  1.00  0.00    -0.416 N  
HETATM   21  H   UNL     1      -8.567  11.013  70.045  1.00  0.00     0.000 HD 
HETATM   22  C   UNL     1      -9.782   9.482  70.568  1.00  0.00    -0.263 C  
HETATM   23  O   UNL     1      -9.092   9.259  71.551  1.00  0.00    -0.315 OA 
BRANCH  22  24
HETATM   24  C   UNL     1     -10.846   8.467  70.186  1.00  0.00    -0.236 C  
BRANCH  24  25
HETATM   25  C   UNL     1     -10.627   7.579  69.050  1.00  0.00    -0.180 A  
HETATM   26  O   UNL     1     -10.487   8.055  67.773  1.00  0.00    -0.226 OA 
HETATM   27  C   UNL     1     -10.790   6.200  68.991  1.00  0.00    -0.416 A  
HETATM   28  C   UNL     1     -10.681   7.003  66.927  1.00  0.00    -0.306 A  
HETATM   29  C   UNL     1     -10.885   5.840  67.630  1.00  0.00    -0.264 A  
ENDBRANCH  24  25
BRANCH  24  30
HETATM   30  N   UNL     1     -12.061   8.410  70.646  1.00  0.00    -0.493 NA 
HETATM   31  H   UNL     1     -12.721   7.811  70.152  1.00  0.00     0.000 HD 
BRANCH  30  32
HETATM   32  O   UNL     1     -12.535   9.100  71.760  1.00  0.00    -0.325 OA 
HETATM   33  C   UNL     1     -13.100  10.384  71.638  1.00  0.00    -0.448 C  
ENDBRANCH  30  32
ENDBRANCH  24  30
ENDBRANCH  22  24
ENDBRANCH   5  20
TORSDOF 8
ENDMDL
MODEL       73
REMARK 921   NORMALIZED FREE ENERGY PREDICTED BY IDOCK:   -5.45 KCAL/MOL
REMARK 922        TOTAL FREE ENERGY PREDICTED BY IDOCK:   -9.39 KCAL/MOL
REMARK 923 INTER-LIGAND FREE ENERGY PREDICTED BY IDOCK:   -8.27 KCAL/MOL
REMARK 924 INTRA-LIGAND FREE ENERGY PREDICTED BY IDOCK:   -1.12 KCAL/MOL
REMARK 927      BINDING AFFINITY PREDICTED BY RF-SCORE:    0.00 PKD
ROOT
HETATM    1  C   UNL     1     -10.447  12.871  68.406  1.00  0.00    -0.251 C  
HETATM    2  S   UNL     1     -11.785  11.715  68.283  1.00  0.00    -0.275 SA 
HETATM    3  C   UNL     1     -11.002  10.228  67.599  1.00  0.00    -0.294 C  
HETATM    4  C   UNL     1      -9.516  10.217  67.378  1.00  0.00    -0.175 C  
HETATM    5  CA  UNL     1     -10.243  14.306  67.724  1.00  0.00    -0.235 C  
HETATM    6  CA  UNL     1      -8.685  11.263  67.542  1.00  0.00    -0.138 C  
HETATM    7  C   UNL     1      -8.779  13.793  67.627  1.00  0.00    -0.185 C  
HETATM    8  C   UNL     1      -7.205  11.079  67.366  1.00  0.00    -0.103 C  
HETATM    9  N   UNL     1      -9.185  12.522  67.820  1.00  0.00    -0.190 N  
HETATM   10  OXT UNL     1      -6.645  10.057  67.732  1.00  0.00    -0.066 OA 
HETATM   11  O   UNL     1      -7.728  14.242  67.279  1.00  0.00    -0.185 OA 
HETATM   12  O   UNL     1      -6.511  12.089  66.820  1.00  0.00    -0.107 OA 
ENDROOT
BRANCH   4  13
HETATM   13  C   UNL     1      -9.050   8.884  66.784  1.00  0.00    -0.143 C  
BRANCH  13  14
HETATM   14  O   UNL     1     -10.147   7.996  66.494  1.00  0.00    -0.260 OA 
BRANCH  14  15
HETATM   15  C   UNL     1      -9.964   6.689  66.763  1.00  0.00    -0.176 C  
HETATM   16  O   UNL     1      -8.952   6.170  67.207  1.00  0.00    -0.114 OA 
HETATM   17  N   UNL     1     -11.068   5.984  66.419  1.00  0.00    -0.736 N  
HETATM   18  H2  UNL     1     -11.915   6.385  66.016  1.00  0.00     0.000 HD 
HETATM   19  H1  UNL     1     -10.928   4.995  66.623  1.00  0.00     0.000 HD 
ENDBRANCH  14  15
ENDBRANCH  13  14
ENDBRANCH   4  13
BRANCH   5  20
HETATM   20  N   UNL     1     -10.661  14.936  66.409  1.00  0.00    -0.309 N  
HETATM   21  H   UNL     1     -11.250  14.313  65.858  1.00  0.00     0.000 HD 
HETATM   22  C   UNL     1     -10.440  16.165  65.760  1.00  0.00    -0.367 C  
HETATM   23  O   UNL     1     -11.021  16.372  64.706  1.00  0.00    -0.664 OA 
BRANCH  22  24
HETATM   24  C   UNL     1      -9.374  17.152  66.206  1.00  0.00    -0.234 C  
BRANCH  24  25
HETATM   25  C   UNL     1      -9.758  18.347  66.948  1.00  0.00    -0.319 A  
HETATM   26  O   UNL     1     -10.072  19.523  66.319  1.00  0.00    -0.395 OA 
HETATM   27  C   UNL     1      -9.614  18.600  68.308  1.00  0.00    -0.382 A  
HETATM   28  C   UNL     1     -10.006  20.512  67.257  1.00  0.00    -0.387 A  
HETATM   29  C   UNL     1      -9.715  19.995  68.495  1.00  0.00    -0.355 A  
ENDBRANCH  24  25
BRANCH  24  30
HETATM   30  N   UNL     1      -8.128  17.164  65.835  1.00  0.00    -0.507 NA 
HETATM   31  H   UNL     1      -7.619  16.282  65.878  1.00  0.00     0.000 HD 
BRANCH  30  32
HETATM   32  O   UNL     1      -7.432  18.282  65.384  1.00  0.00    -0.502 OA 
HETATM   33  C   UNL     1      -6.171  18.621  65.913  1.00  0.00    -0.216 C  
ENDBRANCH  30  32
ENDBRANCH  24  30
ENDBRANCH  22  24
ENDBRANCH   5  20
TORSDOF 8
ENDMDL
MODEL       74
REMARK 921   NORMALIZED FREE ENERGY PREDICTED BY IDOCK:   -5.42 KCAL/MOL
REMARK 922        TOTAL FREE ENERGY PREDICTED BY IDOCK:   -9.35 KCAL/MOL
REMARK 923 INTER-LIGAND FREE ENERGY PREDICTED BY IDOCK:   -7.96 KCAL/MOL
REMARK 924 INTRA-LIGAND FREE ENERGY PREDICTED BY IDOCK:   -1.39 KCAL/MOL
REMARK 927      BINDING AFFINITY PREDICTED BY RF-SCORE:    0.00 PKD
ROOT
HETATM    1  C   UNL     1     -11.417  12.036  66.681  1.00  0.00    -0.346 C  
HETATM    2  S   UNL     1     -11.759  10.906  68.003  1.00  0.00     0.034 SA 
HETATM    3  C   UNL     1     -11.756  11.962  69.479  1.00  0.00    -0.345 C  
HETATM    4  C   UNL     1     -11.581  13.446  69.319  1.00  0.00    -0.365 C  
HETATM    5  CA  UNL     1     -10.211  12.076  65.628  1.00  0.00    -0.252 C  
HETATM    6  CA  UNL     1     -11.315  14.090  68.167  1.00  0.00    -0.292 C  
HETATM    7  C   UNL     1     -10.354  13.604  65.874  1.00  0.00    -0.301 C  
HETATM    8  C   UNL     1     -11.251  15.591  68.145  1.00  0.00    -0.343 C  
HETATM    9  N   UNL     1     -11.045  13.383  67.011  1.00  0.00    -0.287 N  
HETATM   10  OXT UNL     1     -12.011  16.267  68.821  1.00  0.00    -0.205 OA 
HETATM   11  O   UNL     1      -9.868  14.599  65.427  1.00  0.00    -0.337 OA 
HETATM   12  O   UNL     1     -10.349  16.166  67.335  1.00  0.00    -0.281 OA 
ENDROOT
BRANCH   4  13
HETATM   13  C   UNL     1     -11.591  14.159  70.674  1.00  0.00    -0.105 C  
BRANCH  13  14
HETATM   14  O   UNL     1     -12.712  13.769  71.493  1.00  0.00    -0.343 OA 
BRANCH  14  15
HETATM   15  C   UNL     1     -13.511  14.755  71.945  1.00  0.00    -0.371 C  
HETATM   16  O   UNL     1     -13.729  15.043  73.111  1.00  0.00    -0.485 OA 
HETATM   17  N   UNL     1     -14.108  15.383  70.904  1.00  0.00    -0.864 N  
HETATM   18  H2  UNL     1     -13.972  15.145  69.922  1.00  0.00     0.000 HD 
HETATM   19  H1  UNL     1     -14.713  16.130  71.247  1.00  0.00     0.000 HD 
ENDBRANCH  14  15
ENDBRANCH  13  14
ENDBRANCH   4  13
BRANCH   5  20
HETATM   20  N   UNL     1      -8.747  11.679  65.662  1.00  0.00    -0.400 N  
HETATM   21  H   UNL     1      -8.131  12.490  65.628  1.00  0.00     0.000 HD 
HETATM   22  C   UNL     1      -8.028  10.471  65.728  1.00  0.00    -0.158 C  
HETATM   23  O   UNL     1      -6.811  10.530  65.824  1.00  0.00    -0.130 OA 
BRANCH  22  24
HETATM   24  C   UNL     1      -8.671   9.115  65.491  1.00  0.00    -0.181 C  
BRANCH  24  25
HETATM   25  C   UNL     1      -9.107   8.311  66.626  1.00  0.00    -0.166 A  
HETATM   26  O   UNL     1      -8.219   7.776  67.522  1.00  0.00    -0.121 OA 
HETATM   27  C   UNL     1     -10.354   7.735  66.846  1.00  0.00    -0.396 A  
HETATM   28  C   UNL     1      -8.876   6.797  68.207  1.00  0.00    -0.125 A  
HETATM   29  C   UNL     1     -10.192   6.725  67.817  1.00  0.00    -0.212 A  
ENDBRANCH  24  25
BRANCH  24  30
HETATM   30  N   UNL     1      -8.717   8.468  64.364  1.00  0.00    -0.405 NA 
HETATM   31  H   UNL     1      -9.330   8.837  63.638  1.00  0.00     0.000 HD 
BRANCH  30  32
HETATM   32  O   UNL     1      -7.998   7.313  64.067  1.00  0.00    -0.135 OA 
HETATM   33  C   UNL     1      -6.611   7.356  63.828  1.00  0.00    -0.052 C  
ENDBRANCH  30  32
ENDBRANCH  24  30
ENDBRANCH  22  24
ENDBRANCH   5  20
TORSDOF 8
ENDMDL
MODEL       75
REMARK 921   NORMALIZED FREE ENERGY PREDICTED BY IDOCK:   -5.42 KCAL/MOL
REMARK 922        TOTAL FREE ENERGY PREDICTED BY IDOCK:   -9.35 KCAL/MOL
REMARK 923 INTER-LIGAND FREE ENERGY PREDICTED BY IDOCK:   -8.57 KCAL/MOL
REMARK 924 INTRA-LIGAND FREE ENERGY PREDICTED BY IDOCK:   -0.77 KCAL/MOL
REMARK 927      BINDING AFFINITY PREDICTED BY RF-SCORE:    0.00 PKD
ROOT
HETATM    1  C   UNL     1     -11.091  13.842  67.226  1.00  0.00    -0.299 C  
HETATM    2  S   UNL     1      -9.688  13.967  68.303  1.00  0.00    -0.223 SA 
HETATM    3  C   UNL     1      -8.822  15.445  67.705  1.00  0.00    -0.174 C  
HETATM    4  C   UNL     1      -9.432  16.255  66.597  1.00  0.00    -0.269 C  
HETATM    5  CA  UNL     1     -11.536  12.676  66.222  1.00  0.00    -0.364 C  
HETATM    6  CA  UNL     1     -10.542  15.937  65.904  1.00  0.00    -0.337 C  
HETATM    7  C   UNL     1     -11.940  13.898  65.351  1.00  0.00    -0.381 C  
HETATM    8  C   UNL     1     -11.084  16.891  64.878  1.00  0.00     0.036 C  
HETATM    9  N   UNL     1     -11.160  14.715  66.089  1.00  0.00    -0.329 N  
HETATM   10  OXT UNL     1     -11.050  18.099  65.055  1.00  0.00    -0.650 OA 
HETATM   11  O   UNL     1     -12.497  14.068  64.308  1.00  0.00    -0.645 OA 
HETATM   12  O   UNL     1     -11.635  16.369  63.771  1.00  0.00    -1.055 OA 
ENDROOT
BRANCH   4  13
HETATM   13  C   UNL     1      -8.547  17.448  66.225  1.00  0.00    -0.211 C  
BRANCH  13  14
HETATM   14  O   UNL     1      -8.698  18.552  67.139  1.00  0.00    -0.261 OA 
BRANCH  14  15
HETATM   15  C   UNL     1      -7.571  19.172  67.540  1.00  0.00    -0.236 C  
HETATM   16  O   UNL     1      -7.091  20.192  67.069  1.00  0.00    -0.218 OA 
HETATM   17  N   UNL     1      -6.982  18.470  68.536  1.00  0.00    -0.259 N  
HETATM   18  H2  UNL     1      -7.341  17.598  68.927  1.00  0.00     0.000 HD 
HETATM   19  H1  UNL     1      -6.129  18.939  68.839  1.00  0.00     0.000 HD 
ENDBRANCH  14  15
ENDBRANCH  13  14
ENDBRANCH   4  13
BRANCH   5  20
HETATM   20  N   UNL     1     -10.800  11.655  65.375  1.00  0.00    -0.289 N  
HETATM   21  H   UNL     1     -10.818  11.897  64.385  1.00  0.00     0.000 HD 
HETATM   22  C   UNL     1     -10.101  10.457  65.614  1.00  0.00    -0.269 C  
HETATM   23  O   UNL     1      -9.545   9.917  64.670  1.00  0.00    -0.299 OA 
BRANCH  22  24
HETATM   24  C   UNL     1     -10.172   9.712  66.937  1.00  0.00    -0.237 C  
BRANCH  24  25
HETATM   25  C   UNL     1     -10.163   8.254  66.948  1.00  0.00    -0.318 A  
HETATM   26  O   UNL     1     -11.267   7.524  67.301  1.00  0.00    -0.069 OA 
HETATM   27  C   UNL     1      -9.067   7.399  66.897  1.00  0.00    -0.164 A  
HETATM   28  C   UNL     1     -10.841   6.259  67.581  1.00  0.00    -0.346 A  
HETATM   29  C   UNL     1      -9.491   6.135  67.359  1.00  0.00    -0.118 A  
ENDBRANCH  24  25
BRANCH  24  30
HETATM   30  N   UNL     1     -10.438  10.227  68.100  1.00  0.00    -0.177 NA 
HETATM   31  H   UNL     1     -11.406  10.486  68.287  1.00  0.00     0.000 HD 
BRANCH  30  32
HETATM   32  O   UNL     1      -9.510  10.454  69.114  1.00  0.00    -0.193 OA 
HETATM   33  C   UNL     1      -9.173   9.444  70.036  1.00  0.00    -0.220 C  
ENDBRANCH  30  32
ENDBRANCH  24  30
ENDBRANCH  22  24
ENDBRANCH   5  20
TORSDOF 8
ENDMDL
MODEL       76
REMARK 921   NORMALIZED FREE ENERGY PREDICTED BY IDOCK:   -5.41 KCAL/MOL
REMARK 922        TOTAL FREE ENERGY PREDICTED BY IDOCK:   -9.34 KCAL/MOL
REMARK 923 INTER-LIGAND FREE ENERGY PREDICTED BY IDOCK:   -7.94 KCAL/MOL
REMARK 924 INTRA-LIGAND FREE ENERGY PREDICTED BY IDOCK:   -1.40 KCAL/MOL
REMARK 927      BINDING AFFINITY PREDICTED BY RF-SCORE:    0.00 PKD
ROOT
HETATM    1  C   UNL     1     -10.827  13.393  64.982  1.00  0.00    -0.328 C  
HETATM    2  S   UNL     1     -12.149  14.313  64.242  1.00  0.00    -0.373 SA 
HETATM    3  C   UNL     1     -11.774  16.031  64.688  1.00  0.00    -0.073 C  
HETATM    4  C   UNL     1     -10.507  16.336  65.435  1.00  0.00    -0.365 C  
HETATM    5  CA  UNL     1     -10.854  12.234  66.088  1.00  0.00    -0.279 C  
HETATM    6  CA  UNL     1      -9.636  15.429  65.916  1.00  0.00    -0.351 C  
HETATM    7  C   UNL     1      -9.578  12.982  66.566  1.00  0.00    -0.260 C  
HETATM    8  C   UNL     1      -8.362  15.886  66.569  1.00  0.00    -0.295 C  
HETATM    9  N   UNL     1      -9.925  14.079  65.864  1.00  0.00    -0.310 N  
HETATM   10  OXT UNL     1      -7.748  16.855  66.151  1.00  0.00    -0.307 OA 
HETATM   11  O   UNL     1      -8.739  12.811  67.400  1.00  0.00    -0.176 OA 
HETATM   12  O   UNL     1      -7.906  15.175  67.612  1.00  0.00    -0.133 OA 
ENDROOT
BRANCH   4  13
HETATM   13  C   UNL     1     -10.379  17.833  65.731  1.00  0.00    -0.186 C  
BRANCH  13  14
HETATM   14  O   UNL     1     -10.737  18.159  67.088  1.00  0.00    -0.375 OA 
BRANCH  14  15
HETATM   15  C   UNL     1      -9.974  19.073  67.719  1.00  0.00    -0.357 C  
HETATM   16  O   UNL     1      -9.942  20.274  67.500  1.00  0.00    -0.406 OA 
HETATM   17  N   UNL     1      -9.178  18.466  68.630  1.00  0.00    -0.323 N  
HETATM   18  H2  UNL     1      -9.158  17.462  68.812  1.00  0.00     0.000 HD 
HETATM   19  H1  UNL     1      -8.601  19.158  69.107  1.00  0.00     0.000 HD 
ENDBRANCH  14  15
ENDBRANCH  13  14
ENDBRANCH   4  13
BRANCH   5  20
HETATM   20  N   UNL     1     -11.740  11.907  67.274  1.00  0.00    -0.292 N  
HETATM   21  H   UNL     1     -12.586  12.477  67.288  1.00  0.00     0.000 HD 
HETATM   22  C   UNL     1     -11.689  11.013  68.360  1.00  0.00    -0.259 C  
HETATM   23  O   UNL     1     -12.653  10.960  69.108  1.00  0.00    -0.361 OA 
BRANCH  22  24
HETATM   24  C   UNL     1     -10.425  10.266  68.752  1.00  0.00    -0.203 C  
BRANCH  24  25
HETATM   25  C   UNL     1      -9.965   9.144  67.941  1.00  0.00    -0.186 A  
HETATM   26  O   UNL     1      -8.831   9.218  67.177  1.00  0.00    -0.126 OA 
HETATM   27  C   UNL     1     -10.664   7.997  67.583  1.00  0.00    -0.203 A  
HETATM   28  C   UNL     1      -8.886   8.196  66.275  1.00  0.00    -0.164 A  
HETATM   29  C   UNL     1     -10.003   7.423  66.476  1.00  0.00    -0.194 A  
ENDBRANCH  24  25
BRANCH  24  30
HETATM   30  N   UNL     1      -9.773  10.383  69.871  1.00  0.00    -0.418 NA 
HETATM   31  H   UNL     1      -9.265  11.253  70.027  1.00  0.00     0.000 HD 
BRANCH  30  32
HETATM   32  O   UNL     1      -9.711   9.419  70.874  1.00  0.00    -0.272 OA 
HETATM   33  C   UNL     1     -10.847   9.080  71.633  1.00  0.00    -0.366 C  
ENDBRANCH  30  32
ENDBRANCH  24  30
ENDBRANCH  22  24
ENDBRANCH   5  20
TORSDOF 8
ENDMDL
MODEL       77
REMARK 921   NORMALIZED FREE ENERGY PREDICTED BY IDOCK:   -5.40 KCAL/MOL
REMARK 922        TOTAL FREE ENERGY PREDICTED BY IDOCK:   -9.32 KCAL/MOL
REMARK 923 INTER-LIGAND FREE ENERGY PREDICTED BY IDOCK:   -7.83 KCAL/MOL
REMARK 924 INTRA-LIGAND FREE ENERGY PREDICTED BY IDOCK:   -1.49 KCAL/MOL
REMARK 927      BINDING AFFINITY PREDICTED BY RF-SCORE:    0.00 PKD
ROOT
HETATM    1  C   UNL     1     -12.140  13.437  68.660  1.00  0.00    -0.246 C  
HETATM    2  S   UNL     1     -12.365  14.525  70.041  1.00  0.00    -0.300 SA 
HETATM    3  C   UNL     1     -11.638  16.088  69.475  1.00  0.00    -0.304 C  
HETATM    4  C   UNL     1     -11.125  16.191  68.067  1.00  0.00    -0.317 C  
HETATM    5  CA  UNL     1     -11.338  12.055  68.540  1.00  0.00    -0.272 C  
HETATM    6  CA  UNL     1     -11.050  15.183  67.177  1.00  0.00    -0.335 C  
HETATM    7  C   UNL     1     -10.984  12.651  67.149  1.00  0.00    -0.261 C  
HETATM    8  C   UNL     1     -10.594  15.455  65.772  1.00  0.00    -0.348 C  
HETATM    9  N   UNL     1     -11.338  13.886  67.558  1.00  0.00    -0.303 N  
HETATM   10  OXT UNL     1     -10.907  16.484  65.192  1.00  0.00    -0.543 OA 
HETATM   11  O   UNL     1     -10.404  12.279  66.173  1.00  0.00    -0.233 OA 
HETATM   12  O   UNL     1      -9.854  14.516  65.163  1.00  0.00    -0.296 OA 
ENDROOT
BRANCH   4  13
HETATM   13  C   UNL     1     -10.539  17.578  67.785  1.00  0.00    -0.375 C  
BRANCH  13  14
HETATM   14  O   UNL     1      -9.423  17.888  68.642  1.00  0.00    -0.299 OA 
BRANCH  14  15
HETATM   15  C   UNL     1      -8.225  17.377  68.295  1.00  0.00    -0.247 C  
HETATM   16  O   UNL     1      -7.458  16.758  69.016  1.00  0.00    -0.229 OA 
HETATM   17  N   UNL     1      -7.941  17.691  67.009  1.00  0.00    -0.212 N  
HETATM   18  H2  UNL     1      -8.546  18.235  66.393  1.00  0.00     0.000 HD 
HETATM   19  H1  UNL     1      -7.034  17.304  66.747  1.00  0.00     0.000 HD 
ENDBRANCH  14  15
ENDBRANCH  13  14
ENDBRANCH   4  13
BRANCH   5  20
HETATM   20  N   UNL     1     -10.095  11.480  69.191  1.00  0.00    -0.417 N  
HETATM   21  H   UNL     1      -9.633  12.157  69.797  1.00  0.00     0.000 HD 
HETATM   22  C   UNL     1      -9.419  10.245  69.166  1.00  0.00    -0.215 C  
HETATM   23  O   UNL     1      -8.457  10.101  69.905  1.00  0.00    -0.176 OA 
BRANCH  22  24
HETATM   24  C   UNL     1      -9.708   9.169  68.134  1.00  0.00    -0.154 C  
BRANCH  24  25
HETATM   25  C   UNL     1      -9.029   9.201  66.843  1.00  0.00    -0.123 A  
HETATM   26  O   UNL     1      -7.796   9.776  66.686  1.00  0.00    -0.107 OA 
HETATM   27  C   UNL     1      -9.561   8.947  65.584  1.00  0.00    -0.175 A  
HETATM   28  C   UNL     1      -7.617   9.986  65.350  1.00  0.00    -0.138 A  
HETATM   29  C   UNL     1      -8.682   9.503  64.630  1.00  0.00    -0.233 A  
ENDBRANCH  24  25
BRANCH  24  30
HETATM   30  N   UNL     1     -10.663   8.288  68.182  1.00  0.00    -0.439 NA 
HETATM   31  H   UNL     1     -11.546   8.530  67.735  1.00  0.00     0.000 HD 
BRANCH  30  32
HETATM   32  O   UNL     1     -10.579   7.039  68.795  1.00  0.00    -0.206 OA 
HETATM   33  C   UNL     1     -11.270   6.764  69.990  1.00  0.00    -0.328 C  
ENDBRANCH  30  32
ENDBRANCH  24  30
ENDBRANCH  22  24
ENDBRANCH   5  20
TORSDOF 8
ENDMDL
MODEL       78
REMARK 921   NORMALIZED FREE ENERGY PREDICTED BY IDOCK:   -5.40 KCAL/MOL
REMARK 922        TOTAL FREE ENERGY PREDICTED BY IDOCK:   -9.32 KCAL/MOL
REMARK 923 INTER-LIGAND FREE ENERGY PREDICTED BY IDOCK:   -7.31 KCAL/MOL
REMARK 924 INTRA-LIGAND FREE ENERGY PREDICTED BY IDOCK:   -2.01 KCAL/MOL
REMARK 927      BINDING AFFINITY PREDICTED BY RF-SCORE:    0.00 PKD
ROOT
HETATM    1  C   UNL     1     -10.719  15.310  69.488  1.00  0.00    -0.265 C  
HETATM    2  S   UNL     1     -11.945  14.172  68.901  1.00  0.00    -0.314 SA 
HETATM    3  C   UNL     1     -10.976  12.919  68.017  1.00  0.00    -0.247 C  
HETATM    4  C   UNL     1      -9.477  13.011  68.024  1.00  0.00    -0.217 C  
HETATM    5  CA  UNL     1     -10.521  16.873  69.196  1.00  0.00    -0.335 C  
HETATM    6  CA  UNL     1      -8.749  14.016  68.549  1.00  0.00    -0.156 C  
HETATM    7  C   UNL     1      -9.027  16.447  69.203  1.00  0.00    -0.197 C  
HETATM    8  C   UNL     1      -7.249  13.929  68.559  1.00  0.00    -0.107 C  
HETATM    9  N   UNL     1      -9.367  15.153  69.033  1.00  0.00    -0.210 N  
HETATM   10  OXT UNL     1      -6.677  12.868  68.757  1.00  0.00    -0.083 OA 
HETATM   11  O   UNL     1      -7.971  17.002  69.130  1.00  0.00    -0.192 OA 
HETATM   12  O   UNL     1      -6.558  15.064  68.372  1.00  0.00    -0.092 OA 
ENDROOT
BRANCH   4  13
HETATM   13  C   UNL     1      -8.843  11.877  67.213  1.00  0.00    -0.179 C  
BRANCH  13  14
HETATM   14  O   UNL     1      -9.811  11.154  66.428  1.00  0.00    -0.200 OA 
BRANCH  14  15
HETATM   15  C   UNL     1      -9.404  10.690  65.231  1.00  0.00    -0.214 C  
HETATM   16  O   UNL     1     -10.095  10.142  64.386  1.00  0.00    -0.282 OA 
HETATM   17  N   UNL     1      -8.069  10.868  65.093  1.00  0.00    -0.364 N  
HETATM   18  H2  UNL     1      -7.460  11.291  65.794  1.00  0.00     0.000 HD 
HETATM   19  H1  UNL     1      -7.761  10.517  64.186  1.00  0.00     0.000 HD 
ENDBRANCH  14  15
ENDBRANCH  13  14
ENDBRANCH   4  13
BRANCH   5  20
HETATM   20  N   UNL     1     -10.797  17.784  68.016  1.00  0.00    -0.299 N  
HETATM   21  H   UNL     1     -11.463  18.520  68.250  1.00  0.00     0.000 HD 
HETATM   22  C   UNL     1     -10.364  17.869  66.680  1.00  0.00    -0.361 C  
HETATM   23  O   UNL     1     -10.744  18.817  66.010  1.00  0.00    -0.419 OA 
BRANCH  22  24
HETATM   24  C   UNL     1      -9.614  16.745  65.984  1.00  0.00    -0.234 C  
BRANCH  24  25
HETATM   25  C   UNL     1     -10.337  15.560  65.537  1.00  0.00    -0.394 A  
HETATM   26  O   UNL     1      -9.690  14.460  65.037  1.00  0.00    -0.139 OA 
HETATM   27  C   UNL     1     -11.696  15.427  65.278  1.00  0.00     0.030 A  
HETATM   28  C   UNL     1     -10.618  13.714  64.372  1.00  0.00    -0.341 A  
HETATM   29  C   UNL     1     -11.867  14.275  64.480  1.00  0.00    -0.456 A  
ENDBRANCH  24  25
BRANCH  24  30
HETATM   30  N   UNL     1      -8.324  16.615  65.898  1.00  0.00    -0.400 NA 
HETATM   31  H   UNL     1      -7.925  15.716  66.166  1.00  0.00     0.000 HD 
BRANCH  30  32
HETATM   32  O   UNL     1      -7.440  17.602  65.469  1.00  0.00    -0.432 OA 
HETATM   33  C   UNL     1      -6.685  18.356  66.387  1.00  0.00    -0.212 C  
ENDBRANCH  30  32
ENDBRANCH  24  30
ENDBRANCH  22  24
ENDBRANCH   5  20
TORSDOF 8
ENDMDL
MODEL       79
REMARK 921   NORMALIZED FREE ENERGY PREDICTED BY IDOCK:   -5.40 KCAL/MOL
REMARK 922        TOTAL FREE ENERGY PREDICTED BY IDOCK:   -9.31 KCAL/MOL
REMARK 923 INTER-LIGAND FREE ENERGY PREDICTED BY IDOCK:   -6.47 KCAL/MOL
REMARK 924 INTRA-LIGAND FREE ENERGY PREDICTED BY IDOCK:   -2.85 KCAL/MOL
REMARK 927      BINDING AFFINITY PREDICTED BY RF-SCORE:    0.00 PKD
ROOT
HETATM    1  C   UNL     1      -9.752   4.743  72.420  1.00  0.00    -0.155 C  
HETATM    2  S   UNL     1      -9.370   4.018  70.848  1.00  0.00    -0.166 SA 
HETATM    3  C   UNL     1      -8.182   5.181  70.120  1.00  0.00    -0.086 C  
HETATM    4  C   UNL     1      -7.719   6.359  70.929  1.00  0.00    -0.101 C  
HETATM    5  CA  UNL     1     -11.147   5.249  73.024  1.00  0.00    -0.317 C  
HETATM    6  CA  UNL     1      -8.182   6.716  72.141  1.00  0.00    -0.105 C  
HETATM    7  C   UNL     1     -10.229   6.366  73.592  1.00  0.00    -0.269 C  
HETATM    8  C   UNL     1      -7.561   7.873  72.871  1.00  0.00    -0.118 C  
HETATM    9  N   UNL     1      -9.263   6.062  72.702  1.00  0.00    -0.144 N  
HETATM   10  OXT UNL     1      -6.358   8.082  72.819  1.00  0.00    -0.063 OA 
HETATM   11  O   UNL     1     -10.358   7.298  74.330  1.00  0.00    -0.171 OA 
HETATM   12  O   UNL     1      -8.367   8.654  73.605  1.00  0.00    -0.380 OA 
ENDROOT
BRANCH   4  13
HETATM   13  C   UNL     1      -6.734   7.227  70.139  1.00  0.00    -0.054 C  
BRANCH  13  14
HETATM   14  O   UNL     1      -7.400   8.168  69.274  1.00  0.00    -0.073 OA 
BRANCH  14  15
HETATM   15  C   UNL     1      -7.236   9.476  69.553  1.00  0.00    -0.074 C  
HETATM   16  O   UNL     1      -6.215  10.130  69.414  1.00  0.00    -0.043 OA 
HETATM   17  N   UNL     1      -8.376   9.986  70.076  1.00  0.00    -0.324 N  
HETATM   18  H2  UNL     1      -9.234   9.457  70.235  1.00  0.00     0.000 HD 
HETATM   19  H1  UNL     1      -8.252  10.976  70.287  1.00  0.00     0.000 HD 
ENDBRANCH  14  15
ENDBRANCH  13  14
ENDBRANCH   4  13
BRANCH   5  20
HETATM   20  N   UNL     1     -12.408   5.858  72.441  1.00  0.00    -0.427 N  
HETATM   21  H   UNL     1     -13.231   5.287  72.632  1.00  0.00     0.000 HD 
HETATM   22  C   UNL     1     -12.726   7.013  71.703  1.00  0.00    -0.377 C  
HETATM   23  O   UNL     1     -13.902   7.238  71.463  1.00  0.00    -0.393 OA 
BRANCH  22  24
HETATM   24  C   UNL     1     -11.672   7.876  71.030  1.00  0.00    -0.277 C  
BRANCH  24  25
HETATM   25  C   UNL     1     -11.142   7.490  69.727  1.00  0.00    -0.129 A  
HETATM   26  O   UNL     1     -10.501   8.383  68.910  1.00  0.00    -0.218 OA 
HETATM   27  C   UNL     1     -11.407   6.337  68.997  1.00  0.00    -0.319 A  
HETATM   28  C   UNL     1     -10.476   7.840  67.659  1.00  0.00    -0.239 A  
HETATM   29  C   UNL     1     -11.034   6.585  67.659  1.00  0.00    -0.426 A  
ENDBRANCH  24  25
BRANCH  24  30
HETATM   30  N   UNL     1     -11.017   8.859  71.572  1.00  0.00    -0.300 NA 
HETATM   31  H   UNL     1     -10.220   8.622  72.162  1.00  0.00     0.000 HD 
BRANCH  30  32
HETATM   32  O   UNL     1     -11.313  10.211  71.415  1.00  0.00    -0.291 OA 
HETATM   33  C   UNL     1     -12.641  10.655  71.262  1.00  0.00    -0.427 C  
ENDBRANCH  30  32
ENDBRANCH  24  30
ENDBRANCH  22  24
ENDBRANCH   5  20
TORSDOF 8
ENDMDL
MODEL       80
REMARK 921   NORMALIZED FREE ENERGY PREDICTED BY IDOCK:   -5.39 KCAL/MOL
REMARK 922        TOTAL FREE ENERGY PREDICTED BY IDOCK:   -9.31 KCAL/MOL
REMARK 923 INTER-LIGAND FREE ENERGY PREDICTED BY IDOCK:   -7.15 KCAL/MOL
REMARK 924 INTRA-LIGAND FREE ENERGY PREDICTED BY IDOCK:   -2.16 KCAL/MOL
REMARK 927      BINDING AFFINITY PREDICTED BY RF-SCORE:    0.00 PKD
ROOT
HETATM    1  C   UNL     1     -11.934  14.220  66.749  1.00  0.00    -0.436 C  
HETATM    2  S   UNL     1     -11.854  12.559  66.135  1.00  0.00    -0.358 SA 
HETATM    3  C   UNL     1     -11.775  11.551  67.642  1.00  0.00    -0.208 C  
HETATM    4  C   UNL     1     -11.878  12.224  68.981  1.00  0.00    -0.358 C  
HETATM    5  CA  UNL     1     -10.948  15.463  66.528  1.00  0.00    -0.271 C  
HETATM    6  CA  UNL     1     -11.922  13.552  69.197  1.00  0.00    -0.333 C  
HETATM    7  C   UNL     1     -11.298  15.708  68.021  1.00  0.00    -0.324 C  
HETATM    8  C   UNL     1     -12.113  14.080  70.590  1.00  0.00    -0.354 C  
HETATM    9  N   UNL     1     -11.739  14.441  68.154  1.00  0.00    -0.330 N  
HETATM   10  OXT UNL     1     -12.849  13.516  71.386  1.00  0.00    -0.350 OA 
HETATM   11  O   UNL     1     -11.067  16.552  68.835  1.00  0.00    -0.329 OA 
HETATM   12  O   UNL     1     -11.470  15.209  70.923  1.00  0.00    -0.286 OA 
ENDROOT
BRANCH   4  13
HETATM   13  C   UNL     1     -11.776  11.211  70.125  1.00  0.00    -0.353 C  
BRANCH  13  14
HETATM   14  O   UNL     1     -11.182   9.966  69.707  1.00  0.00    -0.245 OA 
BRANCH  14  15
HETATM   15  C   UNL     1     -10.688   9.169  70.674  1.00  0.00    -0.254 C  
HETATM   16  O   UNL     1      -9.642   9.323  71.285  1.00  0.00    -0.271 OA 
HETATM   17  N   UNL     1     -11.503   8.103  70.859  1.00  0.00    -0.274 N  
HETATM   18  H2  UNL     1     -12.365   7.930  70.341  1.00  0.00     0.000 HD 
HETATM   19  H1  UNL     1     -11.130   7.500  71.591  1.00  0.00     0.000 HD 
ENDBRANCH  14  15
ENDBRANCH  13  14
ENDBRANCH   4  13
BRANCH   5  20
HETATM   20  N   UNL     1      -9.454  15.619  66.312  1.00  0.00    -0.291 N  
HETATM   21  H   UNL     1      -9.244  16.126  65.452  1.00  0.00     0.000 HD 
HETATM   22  C   UNL     1      -8.287  15.238  67.000  1.00  0.00    -0.234 C  
HETATM   23  O   UNL     1      -7.211  15.616  66.562  1.00  0.00    -0.061 OA 
BRANCH  22  24
HETATM   24  C   UNL     1      -8.293  14.228  68.135  1.00  0.00    -0.162 C  
BRANCH  24  25
HETATM   25  C   UNL     1      -8.370  12.803  67.837  1.00  0.00    -0.172 A  
HETATM   26  O   UNL     1      -8.346  11.852  68.823  1.00  0.00    -0.096 OA 
HETATM   27  C   UNL     1      -8.205  12.170  66.610  1.00  0.00    -0.017 A  
HETATM   28  C   UNL     1      -8.050  10.661  68.228  1.00  0.00    -0.118 A  
HETATM   29  C   UNL     1      -7.941  10.807  66.866  1.00  0.00    -0.133 A  
ENDBRANCH  24  25
BRANCH  24  30
HETATM   30  N   UNL     1      -8.430  14.490  69.401  1.00  0.00    -0.380 NA 
HETATM   31  H   UNL     1      -9.210  14.049  69.888  1.00  0.00     0.000 HD 
BRANCH  30  32
HETATM   32  O   UNL     1      -7.600  15.323  70.148  1.00  0.00    -0.009 OA 
HETATM   33  C   UNL     1      -6.209  15.114  70.198  1.00  0.00    -0.140 C  
ENDBRANCH  30  32
ENDBRANCH  24  30
ENDBRANCH  22  24
ENDBRANCH   5  20
TORSDOF 8
ENDMDL
MODEL       81
REMARK 921   NORMALIZED FREE ENERGY PREDICTED BY IDOCK:   -5.35 KCAL/MOL
REMARK 922        TOTAL FREE ENERGY PREDICTED BY IDOCK:   -9.25 KCAL/MOL
REMARK 923 INTER-LIGAND FREE ENERGY PREDICTED BY IDOCK:   -7.25 KCAL/MOL
REMARK 924 INTRA-LIGAND FREE ENERGY PREDICTED BY IDOCK:   -2.00 KCAL/MOL
REMARK 927      BINDING AFFINITY PREDICTED BY RF-SCORE:    0.00 PKD
ROOT
HETATM    1  C   UNL     1     -11.097  12.149  65.300  1.00  0.00    -0.321 C  
HETATM    2  S   UNL     1     -10.067  10.836  64.703  1.00  0.00    -0.355 SA 
HETATM    3  C   UNL     1      -9.835   9.780  66.160  1.00  0.00    -0.263 C  
HETATM    4  C   UNL     1     -10.553  10.119  67.435  1.00  0.00    -0.329 C  
HETATM    5  CA  UNL     1     -10.839  13.728  65.369  1.00  0.00    -0.312 C  
HETATM    6  CA  UNL     1     -11.299  11.219  67.652  1.00  0.00    -0.282 C  
HETATM    7  C   UNL     1     -11.587  13.557  66.720  1.00  0.00    -0.363 C  
HETATM    8  C   UNL     1     -12.031  11.384  68.954  1.00  0.00    -0.304 C  
HETATM    9  N   UNL     1     -11.356  12.229  66.710  1.00  0.00    -0.318 N  
HETATM   10  OXT UNL     1     -12.545  10.428  69.516  1.00  0.00    -0.120 OA 
HETATM   11  O   UNL     1     -11.994  14.281  67.579  1.00  0.00    -0.389 OA 
HETATM   12  O   UNL     1     -12.127  12.621  69.464  1.00  0.00    -0.271 OA 
ENDROOT
BRANCH   4  13
HETATM   13  C   UNL     1     -10.218   9.123  68.548  1.00  0.00    -0.198 C  
BRANCH  13  14
HETATM   14  O   UNL     1      -8.898   9.326  69.090  1.00  0.00    -0.134 OA 
BRANCH  14  15
HETATM   15  C   UNL     1      -8.777   9.295  70.432  1.00  0.00    -0.229 C  
HETATM   16  O   UNL     1      -7.755   9.467  71.077  1.00  0.00    -0.319 OA 
HETATM   17  N   UNL     1      -9.967   8.987  70.999  1.00  0.00    -0.253 N  
HETATM   18  H2  UNL     1     -10.830   8.805  70.486  1.00  0.00     0.000 HD 
HETATM   19  H1  UNL     1      -9.875   8.964  72.015  1.00  0.00     0.000 HD 
ENDBRANCH  14  15
ENDBRANCH  13  14
ENDBRANCH   4  13
BRANCH   5  20
HETATM   20  N   UNL     1      -9.616  14.606  65.559  1.00  0.00    -0.520 N  
HETATM   21  H   UNL     1      -9.372  15.111  64.707  1.00  0.00     0.000 HD 
HETATM   22  C   UNL     1      -8.734  14.897  66.616  1.00  0.00    -0.227 C  
HETATM   23  O   UNL     1      -7.875  15.746  66.432  1.00  0.00    -0.172 OA 
BRANCH  22  24
HETATM   24  C   UNL     1      -8.678  14.075  67.893  1.00  0.00    -0.184 C  
BRANCH  24  25
HETATM   25  C   UNL     1      -7.883  12.853  67.934  1.00  0.00    -0.151 A  
HETATM   26  O   UNL     1      -7.210  12.463  69.061  1.00  0.00    -0.089 OA 
HETATM   27  C   UNL     1      -7.449  12.072  66.869  1.00  0.00    -0.051 A  
HETATM   28  C   UNL     1      -6.286  11.535  68.679  1.00  0.00    -0.052 A  
HETATM   29  C   UNL     1      -6.385  11.270  67.334  1.00  0.00    -0.076 A  
ENDBRANCH  24  25
BRANCH  24  30
HETATM   30  N   UNL     1      -9.430  14.226  68.943  1.00  0.00    -0.372 NA 
HETATM   31  H   UNL     1      -9.997  13.429  69.230  1.00  0.00     0.000 HD 
BRANCH  30  32
HETATM   32  O   UNL     1      -9.524  15.386  69.707  1.00  0.00    -0.260 OA 
HETATM   33  C   UNL     1     -10.775  15.940  70.045  1.00  0.00    -0.339 C  
ENDBRANCH  30  32
ENDBRANCH  24  30
ENDBRANCH  22  24
ENDBRANCH   5  20
TORSDOF 8
ENDMDL
MODEL       82
REMARK 921   NORMALIZED FREE ENERGY PREDICTED BY IDOCK:   -5.33 KCAL/MOL
REMARK 922        TOTAL FREE ENERGY PREDICTED BY IDOCK:   -9.22 KCAL/MOL
REMARK 923 INTER-LIGAND FREE ENERGY PREDICTED BY IDOCK:   -7.71 KCAL/MOL
REMARK 924 INTRA-LIGAND FREE ENERGY PREDICTED BY IDOCK:   -1.51 KCAL/MOL
REMARK 927      BINDING AFFINITY PREDICTED BY RF-SCORE:    0.00 PKD
ROOT
HETATM    1  C   UNL     1      -8.563   9.416  68.186  1.00  0.00    -0.120 C  
HETATM    2  S   UNL     1     -10.194   8.816  67.835  1.00  0.00    -0.227 SA 
HETATM    3  C   UNL     1     -11.152  10.329  67.542  1.00  0.00    -0.232 C  
HETATM    4  C   UNL     1     -10.448  11.656  67.554  1.00  0.00    -0.228 C  
HETATM    5  CA  UNL     1      -7.649   9.250  69.491  1.00  0.00    -0.081 C  
HETATM    6  CA  UNL     1      -9.156  11.863  67.870  1.00  0.00    -0.183 C  
HETATM    7  C   UNL     1      -7.284  10.719  69.137  1.00  0.00    -0.107 C  
HETATM    8  C   UNL     1      -8.566  13.240  67.754  1.00  0.00    -0.184 C  
HETATM    9  N   UNL     1      -8.376  10.829  68.353  1.00  0.00    -0.125 N  
HETATM   10  OXT UNL     1      -8.886  13.991  66.845  1.00  0.00    -0.226 OA 
HETATM   11  O   UNL     1      -6.520  11.541  69.547  1.00  0.00    -0.099 OA 
HETATM   12  O   UNL     1      -7.654  13.607  68.666  1.00  0.00    -0.125 OA 
ENDROOT
BRANCH   4  13
HETATM   13  C   UNL     1     -11.425  12.809  67.303  1.00  0.00    -0.337 C  
BRANCH  13  14
HETATM   14  O   UNL     1     -12.320  12.543  66.206  1.00  0.00    -0.570 OA 
BRANCH  14  15
HETATM   15  C   UNL     1     -12.299  13.411  65.175  1.00  0.00    -0.456 C  
HETATM   16  O   UNL     1     -12.812  13.255  64.078  1.00  0.00    -0.644 OA 
HETATM   17  N   UNL     1     -11.566  14.501  65.501  1.00  0.00    -0.347 N  
HETATM   18  H2  UNL     1     -11.098  14.645  66.396  1.00  0.00     0.000 HD 
HETATM   19  H1  UNL     1     -11.550  15.158  64.721  1.00  0.00     0.000 HD 
ENDBRANCH  14  15
ENDBRANCH  13  14
ENDBRANCH   4  13
BRANCH   5  20
HETATM   20  N   UNL     1      -7.919   9.126  70.978  1.00  0.00    -0.151 N  
HETATM   21  H   UNL     1      -7.108   9.390  71.537  1.00  0.00     0.000 HD 
HETATM   22  C   UNL     1      -9.009   8.736  71.780  1.00  0.00    -0.212 C  
HETATM   23  O   UNL     1      -8.897   8.839  72.992  1.00  0.00    -0.340 OA 
BRANCH  22  24
HETATM   24  C   UNL     1     -10.227   8.019  71.222  1.00  0.00    -0.192 C  
BRANCH  24  25
HETATM   25  C   UNL     1     -11.531   8.670  71.259  1.00  0.00    -0.283 A  
HETATM   26  O   UNL     1     -11.662  10.029  71.368  1.00  0.00    -0.367 OA 
HETATM   27  C   UNL     1     -12.777   8.089  71.467  1.00  0.00    -0.325 A  
HETATM   28  C   UNL     1     -12.945  10.281  71.756  1.00  0.00    -0.469 A  
HETATM   29  C   UNL     1     -13.669   9.117  71.844  1.00  0.00    -0.485 A  
ENDBRANCH  24  25
BRANCH  24  30
HETATM   30  N   UNL     1     -10.293   6.770  70.869  1.00  0.00    -0.199 NA 
HETATM   31  H   UNL     1     -10.627   6.567  69.927  1.00  0.00     0.000 HD 
BRANCH  30  32
HETATM   32  O   UNL     1      -9.946   5.685  71.671  1.00  0.00    -0.166 OA 
HETATM   33  C   UNL     1     -10.620   5.425  72.880  1.00  0.00    -0.229 C  
ENDBRANCH  30  32
ENDBRANCH  24  30
ENDBRANCH  22  24
ENDBRANCH   5  20
TORSDOF 8
ENDMDL
MODEL       83
REMARK 921   NORMALIZED FREE ENERGY PREDICTED BY IDOCK:   -5.33 KCAL/MOL
REMARK 922        TOTAL FREE ENERGY PREDICTED BY IDOCK:   -9.21 KCAL/MOL
REMARK 923 INTER-LIGAND FREE ENERGY PREDICTED BY IDOCK:   -7.85 KCAL/MOL
REMARK 924 INTRA-LIGAND FREE ENERGY PREDICTED BY IDOCK:   -1.37 KCAL/MOL
REMARK 927      BINDING AFFINITY PREDICTED BY RF-SCORE:    0.00 PKD
ROOT
HETATM    1  C   UNL     1     -10.129  10.042  67.421  1.00  0.00    -0.208 C  
HETATM    2  S   UNL     1     -10.201  11.424  68.529  1.00  0.00    -0.212 SA 
HETATM    3  C   UNL     1     -10.136  12.861  67.422  1.00  0.00    -0.223 C  
HETATM    4  C   UNL     1     -10.132  12.643  65.936  1.00  0.00    -0.276 C  
HETATM    5  CA  UNL     1      -9.062   8.853  67.303  1.00  0.00    -0.134 C  
HETATM    6  CA  UNL     1     -10.066  11.452  65.312  1.00  0.00    -0.268 C  
HETATM    7  C   UNL     1      -9.331   9.075  65.789  1.00  0.00    -0.236 C  
HETATM    8  C   UNL     1     -10.159  11.383  63.814  1.00  0.00    -0.362 C  
HETATM    9  N   UNL     1      -9.861  10.290  66.033  1.00  0.00    -0.219 N  
HETATM   10  OXT UNL     1     -10.901  12.126  63.191  1.00  0.00    -0.366 OA 
HETATM   11  O   UNL     1      -9.003   8.547  64.768  1.00  0.00    -0.023 OA 
HETATM   12  O   UNL     1      -9.419  10.458  63.185  1.00  0.00    -0.289 OA 
ENDROOT
BRANCH   4  13
HETATM   13  C   UNL     1     -10.059  13.971  65.176  1.00  0.00    -0.314 C  
BRANCH  13  14
HETATM   14  O   UNL     1     -11.227  14.790  65.385  1.00  0.00    -0.325 OA 
BRANCH  14  15
HETATM   15  C   UNL     1     -11.704  15.458  64.317  1.00  0.00    -0.206 C  
HETATM   16  O   UNL     1     -11.546  16.643  64.066  1.00  0.00    -1.197 OA 
HETATM   17  N   UNL     1     -12.454  14.633  63.550  1.00  0.00    -1.016 N  
HETATM   18  H2  UNL     1     -12.632  13.649  63.750  1.00  0.00     0.000 HD 
HETATM   19  H1  UNL     1     -12.815  15.139  62.741  1.00  0.00     0.000 HD 
ENDBRANCH  14  15
ENDBRANCH  13  14
ENDBRANCH   4  13
BRANCH   5  20
HETATM   20  N   UNL     1      -7.572   8.724  67.554  1.00  0.00    -0.093 N  
HETATM   21  H   UNL     1      -7.109   8.176  66.829  1.00  0.00     0.000 HD 
HETATM   22  C   UNL     1      -6.668   9.172  68.535  1.00  0.00    -0.059 C  
HETATM   23  O   UNL     1      -5.480   8.942  68.371  1.00  0.00    -0.037 OA 
BRANCH  22  24
HETATM   24  C   UNL     1      -7.118   9.746  69.868  1.00  0.00    -0.108 C  
BRANCH  24  25
HETATM   25  C   UNL     1      -7.939   8.940  70.765  1.00  0.00    -0.131 A  
HETATM   26  O   UNL     1      -9.248   8.648  70.486  1.00  0.00    -0.157 OA 
HETATM   27  C   UNL     1      -7.681   8.588  72.085  1.00  0.00    -0.128 A  
HETATM   28  C   UNL     1      -9.825   8.233  71.649  1.00  0.00    -0.199 A  
HETATM   29  C   UNL     1      -8.903   8.190  72.667  1.00  0.00    -0.285 A  
ENDBRANCH  24  25
BRANCH  24  30
HETATM   30  N   UNL     1      -7.017  10.985  70.250  1.00  0.00    -0.480 NA 
HETATM   31  H   UNL     1      -7.783  11.368  70.802  1.00  0.00     0.000 HD 
BRANCH  30  32
HETATM   32  O   UNL     1      -5.948  11.831  69.966  1.00  0.00    -0.129 OA 
HETATM   33  C   UNL     1      -5.584  12.869  70.846  1.00  0.00    -0.170 C  
ENDBRANCH  30  32
ENDBRANCH  24  30
ENDBRANCH  22  24
ENDBRANCH   5  20
TORSDOF 8
ENDMDL
MODEL       84
REMARK 921   NORMALIZED FREE ENERGY PREDICTED BY IDOCK:   -5.32 KCAL/MOL
REMARK 922        TOTAL FREE ENERGY PREDICTED BY IDOCK:   -9.20 KCAL/MOL
REMARK 923 INTER-LIGAND FREE ENERGY PREDICTED BY IDOCK:   -7.83 KCAL/MOL
REMARK 924 INTRA-LIGAND FREE ENERGY PREDICTED BY IDOCK:   -1.37 KCAL/MOL
REMARK 927      BINDING AFFINITY PREDICTED BY RF-SCORE:    0.00 PKD
ROOT
HETATM    1  C   UNL     1     -10.691  11.109  67.248  1.00  0.00    -0.258 C  
HETATM    2  S   UNL     1     -11.727  12.280  66.413  1.00  0.00    -0.309 SA 
HETATM    3  C   UNL     1     -10.727  13.794  66.389  1.00  0.00    -0.281 C  
HETATM    4  C   UNL     1      -9.326  13.756  66.930  1.00  0.00    -0.267 C  
HETATM    5  CA  UNL     1     -10.924  10.289  68.603  1.00  0.00    -0.244 C  
HETATM    6  CA  UNL     1      -8.745  12.710  67.548  1.00  0.00    -0.184 C  
HETATM    7  C   UNL     1      -9.411  10.597  68.776  1.00  0.00    -0.183 C  
HETATM    8  C   UNL     1      -7.303  12.789  67.962  1.00  0.00    -0.117 C  
HETATM    9  N   UNL     1      -9.478  11.579  67.855  1.00  0.00    -0.172 N  
HETATM   10  OXT UNL     1      -6.476  13.360  67.267  1.00  0.00    -0.267 OA 
HETATM   11  O   UNL     1      -8.554  10.302  69.555  1.00  0.00    -0.169 OA 
HETATM   12  O   UNL     1      -6.949  12.186  69.106  1.00  0.00    -0.101 OA 
ENDROOT
BRANCH   4  13
HETATM   13  C   UNL     1      -8.653  15.128  66.835  1.00  0.00    -0.257 C  
BRANCH  13  14
HETATM   14  O   UNL     1      -9.062  16.017  67.894  1.00  0.00    -0.186 OA 
BRANCH  14  15
HETATM   15  C   UNL     1      -8.114  16.813  68.425  1.00  0.00    -0.219 C  
HETATM   16  O   UNL     1      -8.074  18.033  68.379  1.00  0.00    -0.281 OA 
HETATM   17  N   UNL     1      -7.142  16.062  68.995  1.00  0.00    -0.158 N  
HETATM   18  H2  UNL     1      -7.131  15.042  69.019  1.00  0.00     0.000 HD 
HETATM   19  H1  UNL     1      -6.424  16.665  69.397  1.00  0.00     0.000 HD 
ENDBRANCH  14  15
ENDBRANCH  13  14
ENDBRANCH   4  13
BRANCH   5  20
HETATM   20  N   UNL     1     -11.661  10.556  69.902  1.00  0.00    -0.283 N  
HETATM   21  H   UNL     1     -11.788  11.554  70.071  1.00  0.00     0.000 HD 
HETATM   22  C   UNL     1     -12.213   9.772  70.932  1.00  0.00    -0.302 C  
HETATM   23  O   UNL     1     -12.829  10.340  71.822  1.00  0.00    -0.411 OA 
BRANCH  22  24
HETATM   24  C   UNL     1     -11.913   8.291  71.091  1.00  0.00    -0.265 C  
BRANCH  24  25
HETATM   25  C   UNL     1     -10.865   7.857  72.008  1.00  0.00    -0.255 A  
HETATM   26  O   UNL     1     -11.117   6.996  73.044  1.00  0.00    -0.288 OA 
HETATM   27  C   UNL     1      -9.597   8.398  72.184  1.00  0.00    -0.367 A  
HETATM   28  C   UNL     1     -10.070   7.092  73.912  1.00  0.00    -0.317 A  
HETATM   29  C   UNL     1      -9.113   7.954  73.433  1.00  0.00    -0.347 A  
ENDBRANCH  24  25
BRANCH  24  30
HETATM   30  N   UNL     1     -12.362   7.327  70.343  1.00  0.00    -0.568 NA 
HETATM   31  H   UNL     1     -13.351   7.350  70.095  1.00  0.00     0.000 HD 
BRANCH  30  32
HETATM   32  O   UNL     1     -11.605   6.265  69.853  1.00  0.00    -0.435 OA 
HETATM   33  C   UNL     1     -11.015   6.317  68.575  1.00  0.00    -0.340 C  
ENDBRANCH  30  32
ENDBRANCH  24  30
ENDBRANCH  22  24
ENDBRANCH   5  20
TORSDOF 8
ENDMDL
MODEL       85
REMARK 921   NORMALIZED FREE ENERGY PREDICTED BY IDOCK:   -5.32 KCAL/MOL
REMARK 922        TOTAL FREE ENERGY PREDICTED BY IDOCK:   -9.20 KCAL/MOL
REMARK 923 INTER-LIGAND FREE ENERGY PREDICTED BY IDOCK:   -7.44 KCAL/MOL
REMARK 924 INTRA-LIGAND FREE ENERGY PREDICTED BY IDOCK:   -1.76 KCAL/MOL
REMARK 927      BINDING AFFINITY PREDICTED BY RF-SCORE:    0.00 PKD
ROOT
HETATM    1  C   UNL     1      -7.861  13.826  67.802  1.00  0.00    -0.172 C  
HETATM    2  S   UNL     1      -8.353  15.084  66.655  1.00  0.00     0.042 SA 
HETATM    3  C   UNL     1     -10.126  14.779  66.421  1.00  0.00    -0.280 C  
HETATM    4  C   UNL     1     -10.797  13.701  67.223  1.00  0.00    -0.292 C  
HETATM    5  CA  UNL     1      -6.788  12.645  67.659  1.00  0.00    -0.144 C  
HETATM    6  CA  UNL     1     -10.184  12.836  68.054  1.00  0.00    -0.228 C  
HETATM    7  C   UNL     1      -7.876  11.874  68.459  1.00  0.00    -0.136 C  
HETATM    8  C   UNL     1     -10.998  11.864  68.859  1.00  0.00    -0.238 C  
HETATM    9  N   UNL     1      -8.805  12.796  68.135  1.00  0.00    -0.192 N  
HETATM   10  OXT UNL     1     -12.079  12.182  69.331  1.00  0.00    -0.268 OA 
HETATM   11  O   UNL     1      -7.977  10.793  68.957  1.00  0.00    -0.126 OA 
HETATM   12  O   UNL     1     -10.485  10.642  69.067  1.00  0.00    -0.191 OA 
ENDROOT
BRANCH   4  13
HETATM   13  C   UNL     1     -12.284  13.587  66.874  1.00  0.00    -0.327 C  
BRANCH  13  14
HETATM   14  O   UNL     1     -12.532  12.629  65.827  1.00  0.00    -0.607 OA 
BRANCH  14  15
HETATM   15  C   UNL     1     -12.715  13.116  64.584  1.00  0.00    -0.261 C  
HETATM   16  O   UNL     1     -12.752  14.292  64.258  1.00  0.00    -0.660 OA 
HETATM   17  N   UNL     1     -12.912  12.100  63.711  1.00  0.00    -0.766 N  
HETATM   18  H2  UNL     1     -12.920  11.110  63.959  1.00  0.00     0.000 HD 
HETATM   19  H1  UNL     1     -13.050  12.468  62.770  1.00  0.00     0.000 HD 
ENDBRANCH  14  15
ENDBRANCH  13  14
ENDBRANCH   4  13
BRANCH   5  20
HETATM   20  N   UNL     1      -6.284  11.790  66.511  1.00  0.00    -0.343 N  
HETATM   21  H   UNL     1      -5.304  11.975  66.300  1.00  0.00     0.000 HD 
HETATM   22  C   UNL     1      -6.830  10.807  65.666  1.00  0.00    -0.023 C  
HETATM   23  O   UNL     1      -6.085  10.249  64.875  1.00  0.00    -0.117 OA 
BRANCH  22  24
HETATM   24  C   UNL     1      -8.324  10.551  65.557  1.00  0.00    -0.170 C  
BRANCH  24  25
HETATM   25  C   UNL     1      -8.868   9.256  65.949  1.00  0.00    -0.166 A  
HETATM   26  O   UNL     1     -10.212   9.055  66.122  1.00  0.00    -0.267 OA 
HETATM   27  C   UNL     1      -8.189   8.156  66.459  1.00  0.00    -0.107 A  
HETATM   28  C   UNL     1     -10.359   7.903  66.837  1.00  0.00    -0.330 A  
HETATM   29  C   UNL     1      -9.140   7.318  67.080  1.00  0.00    -0.144 A  
ENDBRANCH  24  25
BRANCH  24  30
HETATM   30  N   UNL     1      -9.196  11.308  64.959  1.00  0.00    -0.347 NA 
HETATM   31  H   UNL     1      -9.492  12.154  65.445  1.00  0.00     0.000 HD 
BRANCH  30  32
HETATM   32  O   UNL     1      -9.759  11.058  63.710  1.00  0.00    -0.251 OA 
HETATM   33  C   UNL     1      -8.962  10.978  62.552  1.00  0.00    -0.326 C  
ENDBRANCH  30  32
ENDBRANCH  24  30
ENDBRANCH  22  24
ENDBRANCH   5  20
TORSDOF 8
ENDMDL
MODEL       86
REMARK 921   NORMALIZED FREE ENERGY PREDICTED BY IDOCK:   -5.31 KCAL/MOL
REMARK 922        TOTAL FREE ENERGY PREDICTED BY IDOCK:   -9.19 KCAL/MOL
REMARK 923 INTER-LIGAND FREE ENERGY PREDICTED BY IDOCK:   -7.86 KCAL/MOL
REMARK 924 INTRA-LIGAND FREE ENERGY PREDICTED BY IDOCK:   -1.33 KCAL/MOL
REMARK 927      BINDING AFFINITY PREDICTED BY RF-SCORE:    0.00 PKD
ROOT
HETATM    1  C   UNL     1     -11.264  10.350  67.851  1.00  0.00    -0.263 C  
HETATM    2  S   UNL     1     -11.501  10.629  69.585  1.00  0.00    -0.312 SA 
HETATM    3  C   UNL     1     -11.741  12.424  69.699  1.00  0.00    -0.307 C  
HETATM    4  C   UNL     1     -11.786  13.240  68.438  1.00  0.00    -0.395 C  
HETATM    5  CA  UNL     1     -10.022   9.726  67.054  1.00  0.00    -0.203 C  
HETATM    6  CA  UNL     1     -11.559  12.783  67.192  1.00  0.00    -0.364 C  
HETATM    7  C   UNL     1     -10.411  10.840  66.042  1.00  0.00    -0.238 C  
HETATM    8  C   UNL     1     -11.725  13.700  66.014  1.00  0.00    -0.358 C  
HETATM    9  N   UNL     1     -11.121  11.488  66.987  1.00  0.00    -0.293 N  
HETATM   10  OXT UNL     1     -12.616  14.535  65.983  1.00  0.00    -0.293 OA 
HETATM   11  O   UNL     1     -10.059  11.175  64.950  1.00  0.00    -0.250 OA 
HETATM   12  O   UNL     1     -10.879  13.552  64.984  1.00  0.00    -0.306 OA 
ENDROOT
BRANCH   4  13
HETATM   13  C   UNL     1     -11.981  14.728  68.742  1.00  0.00    -0.257 C  
BRANCH  13  14
HETATM   14  O   UNL     1     -11.405  15.112  70.007  1.00  0.00    -0.245 OA 
BRANCH  14  15
HETATM   15  C   UNL     1     -12.230  15.685  70.905  1.00  0.00    -0.419 C  
HETATM   16  O   UNL     1     -11.906  16.247  71.939  1.00  0.00    -0.496 OA 
HETATM   17  N   UNL     1     -13.519  15.511  70.530  1.00  0.00    -0.820 N  
HETATM   18  H2  UNL     1     -13.822  15.018  69.690  1.00  0.00     0.000 HD 
HETATM   19  H1  UNL     1     -14.143  15.945  71.210  1.00  0.00     0.000 HD 
ENDBRANCH  14  15
ENDBRANCH  13  14
ENDBRANCH   4  13
BRANCH   5  20
HETATM   20  N   UNL     1      -8.518   9.711  67.258  1.00  0.00    -0.131 N  
HETATM   21  H   UNL     1      -8.014   9.877  66.388  1.00  0.00     0.000 HD 
HETATM   22  C   UNL     1      -7.647   9.524  68.347  1.00  0.00    -0.081 C  
HETATM   23  O   UNL     1      -6.448   9.665  68.156  1.00  0.00    -0.056 OA 
BRANCH  22  24
HETATM   24  C   UNL     1      -8.107   8.970  69.685  1.00  0.00    -0.103 C  
BRANCH  24  25
HETATM   25  C   UNL     1      -8.928   7.766  69.727  1.00  0.00    -0.146 A  
HETATM   26  O   UNL     1      -9.075   6.949  68.637  1.00  0.00    -0.133 OA 
HETATM   27  C   UNL     1      -9.864   7.395  70.685  1.00  0.00    -0.179 A  
HETATM   28  C   UNL     1     -10.165   6.162  68.867  1.00  0.00    -0.188 A  
HETATM   29  C   UNL     1     -10.694   6.408  70.111  1.00  0.00    -0.328 A  
ENDBRANCH  24  25
BRANCH  24  30
HETATM   30  N   UNL     1      -8.016   9.562  70.839  1.00  0.00    -0.313 NA 
HETATM   31  H   UNL     1      -8.666  10.324  71.026  1.00  0.00     0.000 HD 
BRANCH  30  32
HETATM   32  O   UNL     1      -7.103   9.241  71.840  1.00  0.00    -0.319 OA 
HETATM   33  C   UNL     1      -5.716   9.372  71.635  1.00  0.00    -0.069 C  
ENDBRANCH  30  32
ENDBRANCH  24  30
ENDBRANCH  22  24
ENDBRANCH   5  20
TORSDOF 8
ENDMDL
MODEL       87
REMARK 921   NORMALIZED FREE ENERGY PREDICTED BY IDOCK:   -5.31 KCAL/MOL
REMARK 922        TOTAL FREE ENERGY PREDICTED BY IDOCK:   -9.18 KCAL/MOL
REMARK 923 INTER-LIGAND FREE ENERGY PREDICTED BY IDOCK:   -7.90 KCAL/MOL
REMARK 924 INTRA-LIGAND FREE ENERGY PREDICTED BY IDOCK:   -1.28 KCAL/MOL
REMARK 927      BINDING AFFINITY PREDICTED BY RF-SCORE:    0.00 PKD
ROOT
HETATM    1  C   UNL     1     -10.437  12.258  68.170  1.00  0.00    -0.217 C  
HETATM    2  S   UNL     1     -11.707  13.030  69.138  1.00  0.00    -0.327 SA 
HETATM    3  C   UNL     1     -11.084  14.715  69.392  1.00  0.00    -0.268 C  
HETATM    4  C   UNL     1      -9.800  15.130  68.732  1.00  0.00    -0.223 C  
HETATM    5  CA  UNL     1      -9.523  10.979  68.478  1.00  0.00    -0.188 C  
HETATM    6  CA  UNL     1      -8.978  14.329  68.028  1.00  0.00    -0.183 C  
HETATM    7  C   UNL     1      -8.456  11.863  67.776  1.00  0.00    -0.154 C  
HETATM    8  C   UNL     1      -7.768  14.906  67.350  1.00  0.00    -0.204 C  
HETATM    9  N   UNL     1      -9.206  12.967  67.966  1.00  0.00    -0.206 N  
HETATM   10  OXT UNL     1      -7.801  16.011  66.829  1.00  0.00    -0.226 OA 
HETATM   11  O   UNL     1      -7.322  11.731  67.423  1.00  0.00    -0.117 OA 
HETATM   12  O   UNL     1      -6.658  14.154  67.309  1.00  0.00    -0.274 OA 
ENDROOT
BRANCH   4  13
HETATM   13  C   UNL     1      -9.437  16.577  69.078  1.00  0.00    -0.249 C  
BRANCH  13  14
HETATM   14  O   UNL     1     -10.479  17.507  68.724  1.00  0.00    -0.355 OA 
BRANCH  14  15
HETATM   15  C   UNL     1     -10.093  18.720  68.282  1.00  0.00    -0.383 C  
HETATM   16  O   UNL     1     -10.405  19.803  68.752  1.00  0.00    -0.415 OA 
HETATM   17  N   UNL     1      -9.324  18.588  67.175  1.00  0.00    -0.273 N  
HETATM   18  H2  UNL     1      -9.074  17.700  66.739  1.00  0.00     0.000 HD 
HETATM   19  H1  UNL     1      -9.032  19.506  66.840  1.00  0.00     0.000 HD 
ENDBRANCH  14  15
ENDBRANCH  13  14
ENDBRANCH   4  13
BRANCH   5  20
HETATM   20  N   UNL     1      -8.940  10.357  69.733  1.00  0.00    -0.397 N  
HETATM   21  H   UNL     1      -7.996  10.694  69.922  1.00  0.00     0.000 HD 
HETATM   22  C   UNL     1      -9.374   9.432  70.700  1.00  0.00    -0.252 C  
HETATM   23  O   UNL     1      -8.647   9.215  71.657  1.00  0.00    -0.342 OA 
BRANCH  22  24
HETATM   24  C   UNL     1     -10.601   8.556  70.508  1.00  0.00    -0.213 C  
BRANCH  24  25
HETATM   25  C   UNL     1     -11.798   8.800  71.305  1.00  0.00    -0.303 A  
HETATM   26  O   UNL     1     -12.761   7.842  71.482  1.00  0.00    -0.317 OA 
HETATM   27  C   UNL     1     -12.298  10.016  71.758  1.00  0.00    -0.434 A  
HETATM   28  C   UNL     1     -13.884   8.477  71.925  1.00  0.00    -0.424 A  
HETATM   29  C   UNL     1     -13.653   9.819  72.098  1.00  0.00    -0.432 A  
ENDBRANCH  24  25
BRANCH  24  30
HETATM   30  N   UNL     1     -10.662   7.450  69.828  1.00  0.00    -0.240 NA 
HETATM   31  H   UNL     1     -11.191   6.679  70.234  1.00  0.00     0.000 HD 
BRANCH  30  32
HETATM   32  O   UNL     1     -10.064   7.231  68.589  1.00  0.00    -0.165 OA 
HETATM   33  C   UNL     1      -9.348   6.048  68.322  1.00  0.00    -0.116 C  
ENDBRANCH  30  32
ENDBRANCH  24  30
ENDBRANCH  22  24
ENDBRANCH   5  20
TORSDOF 8
ENDMDL
MODEL       88
REMARK 921   NORMALIZED FREE ENERGY PREDICTED BY IDOCK:   -5.24 KCAL/MOL
REMARK 922        TOTAL FREE ENERGY PREDICTED BY IDOCK:   -9.09 KCAL/MOL
REMARK 923 INTER-LIGAND FREE ENERGY PREDICTED BY IDOCK:   -8.03 KCAL/MOL
REMARK 924 INTRA-LIGAND FREE ENERGY PREDICTED BY IDOCK:   -1.06 KCAL/MOL
REMARK 927      BINDING AFFINITY PREDICTED BY RF-SCORE:    0.00 PKD
ROOT
HETATM    1  C   UNL     1     -11.035  12.366  65.048  1.00  0.00    -0.298 C  
HETATM    2  S   UNL     1     -10.779  11.961  63.341  1.00  0.00    -0.382 SA 
HETATM    3  C   UNL     1      -9.763  10.459  63.408  1.00  0.00    -0.263 C  
HETATM    4  C   UNL     1      -9.442   9.848  64.743  1.00  0.00    -0.356 C  
HETATM    5  CA  UNL     1     -10.638  13.676  65.880  1.00  0.00    -0.289 C  
HETATM    6  CA  UNL     1      -9.753  10.369  65.945  1.00  0.00    -0.217 C  
HETATM    7  C   UNL     1     -10.341  12.609  66.971  1.00  0.00    -0.232 C  
HETATM    8  C   UNL     1      -9.443   9.601  67.198  1.00  0.00    -0.148 C  
HETATM    9  N   UNL     1     -10.307  11.632  66.043  1.00  0.00    -0.234 N  
HETATM   10  OXT UNL     1      -9.560   8.385  67.240  1.00  0.00    -0.149 OA 
HETATM   11  O   UNL     1     -10.018  12.618  68.121  1.00  0.00    -0.214 OA 
HETATM   12  O   UNL     1      -9.060  10.297  68.279  1.00  0.00    -0.134 OA 
ENDROOT
BRANCH   4  13
HETATM   13  C   UNL     1      -8.566   8.602  64.591  1.00  0.00    -0.089 C  
BRANCH  13  14
HETATM   14  O   UNL     1      -7.197   8.925  64.278  1.00  0.00    -0.089 OA 
BRANCH  14  15
HETATM   15  C   UNL     1      -6.312   8.885  65.293  1.00  0.00    -0.063 C  
HETATM   16  O   UNL     1      -5.980   7.900  65.934  1.00  0.00    -0.037 OA 
HETATM   17  N   UNL     1      -5.854  10.131  65.559  1.00  0.00    -0.083 N  
HETATM   18  H2  UNL     1      -6.137  10.976  65.064  1.00  0.00     0.000 HD 
HETATM   19  H1  UNL     1      -5.184  10.100  66.328  1.00  0.00     0.000 HD 
ENDBRANCH  14  15
ENDBRANCH  13  14
ENDBRANCH   4  13
BRANCH   5  20
HETATM   20  N   UNL     1      -9.505  14.683  65.816  1.00  0.00    -0.518 N  
HETATM   21  H   UNL     1      -8.664  14.284  65.400  1.00  0.00     0.000 HD 
HETATM   22  C   UNL     1      -9.325  16.028  66.186  1.00  0.00    -0.342 C  
HETATM   23  O   UNL     1      -8.266  16.567  65.901  1.00  0.00    -0.345 OA 
BRANCH  22  24
HETATM   24  C   UNL     1     -10.298  16.773  67.086  1.00  0.00    -0.297 C  
BRANCH  24  25
HETATM   25  C   UNL     1     -10.373  18.228  67.025  1.00  0.00    -0.389 A  
HETATM   26  O   UNL     1     -10.339  18.908  65.836  1.00  0.00    -0.503 OA 
HETATM   27  C   UNL     1     -10.214  19.142  68.060  1.00  0.00    -0.489 A  
HETATM   28  C   UNL     1     -10.044  20.208  66.123  1.00  0.00    -0.415 A  
HETATM   29  C   UNL     1      -9.944  20.400  67.480  1.00  0.00    -0.537 A  
ENDBRANCH  24  25
BRANCH  24  30
HETATM   30  N   UNL     1     -10.969  16.271  68.079  1.00  0.00    -0.340 NA 
HETATM   31  H   UNL     1     -11.943  16.025  67.909  1.00  0.00     0.000 HD 
BRANCH  30  32
HETATM   32  O   UNL     1     -10.468  16.042  69.358  1.00  0.00    -0.231 OA 
HETATM   33  C   UNL     1     -11.289  15.542  70.387  1.00  0.00    -0.342 C  
ENDBRANCH  30  32
ENDBRANCH  24  30
ENDBRANCH  22  24
ENDBRANCH   5  20
TORSDOF 8
ENDMDL
MODEL       89
REMARK 921   NORMALIZED FREE ENERGY PREDICTED BY IDOCK:   -5.23 KCAL/MOL
REMARK 922        TOTAL FREE ENERGY PREDICTED BY IDOCK:   -9.07 KCAL/MOL
REMARK 923 INTER-LIGAND FREE ENERGY PREDICTED BY IDOCK:   -7.92 KCAL/MOL
REMARK 924 INTRA-LIGAND FREE ENERGY PREDICTED BY IDOCK:   -1.15 KCAL/MOL
REMARK 927      BINDING AFFINITY PREDICTED BY RF-SCORE:    0.00 PKD
ROOT
HETATM    1  C   UNL     1     -10.194  10.573  69.395  1.00  0.00    -0.221 C  
HETATM    2  S   UNL     1     -11.564  10.554  70.521  1.00  0.00    -0.359 SA 
HETATM    3  C   UNL     1     -11.916   8.787  70.734  1.00  0.00    -0.133 C  
HETATM    4  C   UNL     1     -11.025   7.776  70.070  1.00  0.00    -0.218 C  
HETATM    5  CA  UNL     1     -10.051  11.223  67.938  1.00  0.00    -0.178 C  
HETATM    6  CA  UNL     1     -10.017   8.048  69.220  1.00  0.00    -0.191 C  
HETATM    7  C   UNL     1      -9.250   9.915  67.689  1.00  0.00    -0.133 C  
HETATM    8  C   UNL     1      -9.153   6.935  68.700  1.00  0.00    -0.131 C  
HETATM    9  N   UNL     1      -9.799   9.339  68.778  1.00  0.00    -0.161 N  
HETATM   10  OXT UNL     1      -8.841   5.991  69.409  1.00  0.00    -0.120 OA 
HETATM   11  O   UNL     1      -8.603   9.456  66.795  1.00  0.00    -0.125 OA 
HETATM   12  O   UNL     1      -8.712   7.026  67.436  1.00  0.00    -0.120 OA 
ENDROOT
BRANCH   4  13
HETATM   13  C   UNL     1     -11.494   6.346  70.355  1.00  0.00    -0.393 C  
BRANCH  13  14
HETATM   14  O   UNL     1     -11.847   6.148  71.738  1.00  0.00    -0.299 OA 
BRANCH  14  15
HETATM   15  C   UNL     1     -10.958   5.491  72.508  1.00  0.00    -0.263 C  
HETATM   16  O   UNL     1     -10.261   4.545  72.176  1.00  0.00    -0.188 OA 
HETATM   17  N   UNL     1     -10.969   5.997  73.764  1.00  0.00    -0.407 N  
HETATM   18  H2  UNL     1     -11.563   6.763  74.081  1.00  0.00     0.000 HD 
HETATM   19  H1  UNL     1     -10.296   5.499  74.347  1.00  0.00     0.000 HD 
ENDBRANCH  14  15
ENDBRANCH  13  14
ENDBRANCH   4  13
BRANCH   5  20
HETATM   20  N   UNL     1     -10.999  11.480  66.783  1.00  0.00    -0.283 N  
HETATM   21  H   UNL     1     -11.063  10.678  66.156  1.00  0.00     0.000 HD 
HETATM   22  C   UNL     1     -11.813  12.547  66.359  1.00  0.00    -0.381 C  
HETATM   23  O   UNL     1     -12.535  12.372  65.390  1.00  0.00    -0.637 OA 
BRANCH  22  24
HETATM   24  C   UNL     1     -11.688  13.952  66.925  1.00  0.00    -0.399 C  
BRANCH  24  25
HETATM   25  C   UNL     1     -10.650  14.846  66.426  1.00  0.00    -0.307 A  
HETATM   26  O   UNL     1      -9.318  14.585  66.608  1.00  0.00    -0.256 OA 
HETATM   27  C   UNL     1     -10.785  16.153  65.971  1.00  0.00    -0.245 A  
HETATM   28  C   UNL     1      -8.644  15.750  66.384  1.00  0.00    -0.311 A  
HETATM   29  C   UNL     1      -9.506  16.749  66.001  1.00  0.00    -0.257 A  
ENDBRANCH  24  25
BRANCH  24  30
HETATM   30  N   UNL     1     -12.297  14.418  67.976  1.00  0.00    -0.589 NA 
HETATM   31  H   UNL     1     -13.249  14.759  67.852  1.00  0.00     0.000 HD 
BRANCH  30  32
HETATM   32  O   UNL     1     -11.754  14.492  69.256  1.00  0.00    -0.275 OA 
HETATM   33  C   UNL     1     -12.546  14.273  70.400  1.00  0.00    -0.343 C  
ENDBRANCH  30  32
ENDBRANCH  24  30
ENDBRANCH  22  24
ENDBRANCH   5  20
TORSDOF 8
ENDMDL
MODEL       90
REMARK 921   NORMALIZED FREE ENERGY PREDICTED BY IDOCK:   -5.22 KCAL/MOL
REMARK 922        TOTAL FREE ENERGY PREDICTED BY IDOCK:   -9.06 KCAL/MOL
REMARK 923 INTER-LIGAND FREE ENERGY PREDICTED BY IDOCK:   -7.70 KCAL/MOL
REMARK 924 INTRA-LIGAND FREE ENERGY PREDICTED BY IDOCK:   -1.36 KCAL/MOL
REMARK 927      BINDING AFFINITY PREDICTED BY RF-SCORE:    0.00 PKD
ROOT
HETATM    1  C   UNL     1      -7.932  11.811  68.368  1.00  0.00    -0.147 C  
HETATM    2  S   UNL     1      -8.057  10.438  69.482  1.00  0.00    -0.092 SA 
HETATM    3  C   UNL     1      -8.705   9.101  68.439  1.00  0.00    -0.129 C  
HETATM    4  C   UNL     1      -8.903   9.346  66.970  1.00  0.00    -0.139 C  
HETATM    5  CA  UNL     1      -8.633  13.251  68.404  1.00  0.00    -0.130 C  
HETATM    6  CA  UNL     1      -8.742  10.524  66.337  1.00  0.00    -0.145 C  
HETATM    7  C   UNL     1      -8.699  12.999  66.872  1.00  0.00    -0.152 C  
HETATM    8  C   UNL     1      -8.892  10.599  64.844  1.00  0.00    -0.190 C  
HETATM    9  N   UNL     1      -8.492  11.679  67.053  1.00  0.00    -0.162 N  
HETATM   10  OXT UNL     1      -8.502   9.694  64.122  1.00  0.00    -0.153 OA 
HETATM   11  O   UNL     1      -9.038  13.621  65.909  1.00  0.00     0.087 OA 
HETATM   12  O   UNL     1      -9.444  11.707  64.328  1.00  0.00    -0.147 OA 
ENDROOT
BRANCH   4  13
HETATM   13  C   UNL     1      -9.468   8.108  66.268  1.00  0.00    -0.190 C  
BRANCH  13  14
HETATM   14  O   UNL     1     -10.784   7.760  66.742  1.00  0.00    -0.311 OA 
BRANCH  14  15
HETATM   15  C   UNL     1     -10.954   6.508  67.211  1.00  0.00    -0.400 C  
HETATM   16  O   UNL     1     -10.821   5.469  66.584  1.00  0.00    -0.288 OA 
HETATM   17  N   UNL     1     -11.355   6.547  68.503  1.00  0.00    -0.578 N  
HETATM   18  H2  UNL     1     -11.507   7.399  69.043  1.00  0.00     0.000 HD 
HETATM   19  H1  UNL     1     -11.484   5.599  68.858  1.00  0.00     0.000 HD 
ENDBRANCH  14  15
ENDBRANCH  13  14
ENDBRANCH   4  13
BRANCH   5  20
HETATM   20  N   UNL     1      -9.964  13.781  68.902  1.00  0.00    -0.416 N  
HETATM   21  H   UNL     1      -9.854  14.388  69.714  1.00  0.00     0.000 HD 
HETATM   22  C   UNL     1     -11.313  13.645  68.524  1.00  0.00    -0.290 C  
HETATM   23  O   UNL     1     -12.148  14.305  69.123  1.00  0.00    -0.329 OA 
BRANCH  22  24
HETATM   24  C   UNL     1     -11.792  12.580  67.551  1.00  0.00    -0.323 C  
BRANCH  24  25
HETATM   25  C   UNL     1     -12.265  12.968  66.228  1.00  0.00    -0.320 A  
HETATM   26  O   UNL     1     -12.520  12.045  65.248  1.00  0.00    -0.427 OA 
HETATM   27  C   UNL     1     -12.273  14.234  65.653  1.00  0.00    -0.409 A  
HETATM   28  C   UNL     1     -12.565  12.718  64.062  1.00  0.00    -0.291 A  
HETATM   29  C   UNL     1     -12.406  14.068  64.258  1.00  0.00    -0.393 A  
ENDBRANCH  24  25
BRANCH  24  30
HETATM   30  N   UNL     1     -12.019  11.330  67.825  1.00  0.00    -0.635 NA 
HETATM   31  H   UNL     1     -12.524  10.783  67.128  1.00  0.00     0.000 HD 
BRANCH  30  32
HETATM   32  O   UNL     1     -11.630  10.675  68.991  1.00  0.00    -0.275 OA 
HETATM   33  C   UNL     1     -12.361  10.813  70.186  1.00  0.00    -0.325 C  
ENDBRANCH  30  32
ENDBRANCH  24  30
ENDBRANCH  22  24
ENDBRANCH   5  20
TORSDOF 8
ENDMDL
MODEL       91
REMARK 921   NORMALIZED FREE ENERGY PREDICTED BY IDOCK:   -5.22 KCAL/MOL
REMARK 922        TOTAL FREE ENERGY PREDICTED BY IDOCK:   -9.06 KCAL/MOL
REMARK 923 INTER-LIGAND FREE ENERGY PREDICTED BY IDOCK:   -7.52 KCAL/MOL
REMARK 924 INTRA-LIGAND FREE ENERGY PREDICTED BY IDOCK:   -1.54 KCAL/MOL
REMARK 927      BINDING AFFINITY PREDICTED BY RF-SCORE:    0.00 PKD
ROOT
HETATM    1  C   UNL     1      -8.237   9.798  69.202  1.00  0.00    -0.130 C  
HETATM    2  S   UNL     1      -9.443   8.980  70.212  1.00  0.00    -0.218 SA 
HETATM    3  C   UNL     1     -10.334   7.921  69.039  1.00  0.00    -0.214 C  
HETATM    4  C   UNL     1      -9.878   7.864  67.609  1.00  0.00    -0.212 C  
HETATM    5  CA  UNL     1      -8.007  11.355  68.907  1.00  0.00    -0.085 C  
HETATM    6  CA  UNL     1      -8.907   8.617  67.058  1.00  0.00    -0.132 C  
HETATM    7  C   UNL     1      -7.699  10.802  67.488  1.00  0.00    -0.105 C  
HETATM    8  C   UNL     1      -8.499   8.389  65.631  1.00  0.00    -0.164 C  
HETATM    9  N   UNL     1      -8.317   9.639  67.778  1.00  0.00    -0.120 N  
HETATM   10  OXT UNL     1      -8.456   7.264  65.157  1.00  0.00    -0.115 OA 
HETATM   11  O   UNL     1      -7.311  11.253  66.451  1.00  0.00    -0.131 OA 
HETATM   12  O   UNL     1      -8.155   9.461  64.901  1.00  0.00    -0.116 OA 
ENDROOT
BRANCH   4  13
HETATM   13  C   UNL     1     -10.762   6.930  66.777  1.00  0.00    -0.226 C  
BRANCH  13  14
HETATM   14  O   UNL     1     -10.547   5.541  67.093  1.00  0.00    -0.248 OA 
BRANCH  14  15
HETATM   15  C   UNL     1     -10.015   4.769  66.125  1.00  0.00    -0.241 C  
HETATM   16  O   UNL     1     -10.589   4.335  65.138  1.00  0.00    -0.253 OA 
HETATM   17  N   UNL     1      -8.725   4.479  66.417  1.00  0.00    -0.112 N  
HETATM   18  H2  UNL     1      -8.229   4.799  67.249  1.00  0.00     0.000 HD 
HETATM   19  H1  UNL     1      -8.323   3.894  65.685  1.00  0.00     0.000 HD 
ENDBRANCH  14  15
ENDBRANCH  13  14
ENDBRANCH   4  13
BRANCH   5  20
HETATM   20  N   UNL     1      -8.910  12.570  68.807  1.00  0.00    -0.385 N  
HETATM   21  H   UNL     1      -8.583  13.337  69.394  1.00  0.00     0.000 HD 
HETATM   22  C   UNL     1     -10.084  12.904  68.107  1.00  0.00    -0.240 C  
HETATM   23  O   UNL     1     -10.509  14.045  68.206  1.00  0.00    -0.232 OA 
BRANCH  22  24
HETATM   24  C   UNL     1     -10.945  11.868  67.402  1.00  0.00    -0.263 C  
BRANCH  24  25
HETATM   25  C   UNL     1     -11.288  12.047  65.997  1.00  0.00    -0.343 A  
HETATM   26  O   UNL     1     -12.508  12.531  65.603  1.00  0.00    -0.648 OA 
HETATM   27  C   UNL     1     -10.633  11.543  64.879  1.00  0.00    -0.360 A  
HETATM   28  C   UNL     1     -12.657  12.222  64.282  1.00  0.00    -0.372 A  
HETATM   29  C   UNL     1     -11.533  11.601  63.794  1.00  0.00    -0.457 A  
ENDBRANCH  24  25
BRANCH  24  30
HETATM   30  N   UNL     1     -11.598  10.895  67.964  1.00  0.00    -0.575 NA 
HETATM   31  H   UNL     1     -11.408   9.951  67.630  1.00  0.00     0.000 HD 
BRANCH  30  32
HETATM   32  O   UNL     1     -12.536  11.035  68.984  1.00  0.00    -0.449 OA 
HETATM   33  C   UNL     1     -12.140  11.293  70.311  1.00  0.00    -0.373 C  
ENDBRANCH  30  32
ENDBRANCH  24  30
ENDBRANCH  22  24
ENDBRANCH   5  20
TORSDOF 8
ENDMDL
MODEL       92
REMARK 921   NORMALIZED FREE ENERGY PREDICTED BY IDOCK:   -5.20 KCAL/MOL
REMARK 922        TOTAL FREE ENERGY PREDICTED BY IDOCK:   -9.03 KCAL/MOL
REMARK 923 INTER-LIGAND FREE ENERGY PREDICTED BY IDOCK:   -8.01 KCAL/MOL
REMARK 924 INTRA-LIGAND FREE ENERGY PREDICTED BY IDOCK:   -1.02 KCAL/MOL
REMARK 927      BINDING AFFINITY PREDICTED BY RF-SCORE:    0.00 PKD
ROOT
HETATM    1  C   UNL     1     -11.056  10.255  67.851  1.00  0.00    -0.276 C  
HETATM    2  S   UNL     1      -9.920   9.318  66.864  1.00  0.00    -0.255 SA 
HETATM    3  C   UNL     1      -9.430   7.955  67.957  1.00  0.00    -0.149 C  
HETATM    4  C   UNL     1     -10.075   7.829  69.308  1.00  0.00    -0.199 C  
HETATM    5  CA  UNL     1     -10.999  11.778  68.344  1.00  0.00    -0.231 C  
HETATM    6  CA  UNL     1     -10.935   8.707  69.858  1.00  0.00    -0.168 C  
HETATM    7  C   UNL     1     -11.601  11.140  69.628  1.00  0.00    -0.326 C  
HETATM    8  C   UNL     1     -11.569   8.405  71.186  1.00  0.00    -0.279 C  
HETATM    9  N   UNL     1     -11.202   9.913  69.237  1.00  0.00    -0.178 N  
HETATM   10  OXT UNL     1     -11.905   7.269  71.483  1.00  0.00    -0.275 OA 
HETATM   11  O   UNL     1     -12.023  11.538  70.672  1.00  0.00    -0.361 OA 
HETATM   12  O   UNL     1     -11.780   9.431  72.024  1.00  0.00    -0.355 OA 
ENDROOT
BRANCH   4  13
HETATM   13  C   UNL     1      -9.521   6.630  70.083  1.00  0.00    -0.158 C  
BRANCH  13  14
HETATM   14  O   UNL     1      -9.433   5.443  69.271  1.00  0.00    -0.121 OA 
BRANCH  14  15
HETATM   15  C   UNL     1      -9.605   4.261  69.895  1.00  0.00    -0.209 C  
HETATM   16  O   UNL     1      -9.865   4.089  71.075  1.00  0.00    -0.181 OA 
HETATM   17  N   UNL     1      -9.396   3.242  69.027  1.00  0.00    -0.162 N  
HETATM   18  H2  UNL     1      -9.145   3.354  68.045  1.00  0.00     0.000 HD 
HETATM   19  H1  UNL     1      -9.527   2.348  69.500  1.00  0.00     0.000 HD 
ENDBRANCH  14  15
ENDBRANCH  13  14
ENDBRANCH   4  13
BRANCH   5  20
HETATM   20  N   UNL     1      -9.888  12.742  68.714  1.00  0.00    -0.422 N  
HETATM   21  H   UNL     1      -9.108  12.268  69.169  1.00  0.00     0.000 HD 
HETATM   22  C   UNL     1      -9.665  14.126  68.588  1.00  0.00    -0.196 C  
HETATM   23  O   UNL     1      -8.582  14.569  68.936  1.00  0.00    -0.163 OA 
BRANCH  22  24
HETATM   24  C   UNL     1     -10.768  15.108  68.228  1.00  0.00    -0.251 C  
BRANCH  24  25
HETATM   25  C   UNL     1     -10.423  16.428  67.713  1.00  0.00    -0.300 A  
HETATM   26  O   UNL     1     -10.641  17.570  68.436  1.00  0.00    -0.370 OA 
HETATM   27  C   UNL     1     -10.108  16.787  66.407  1.00  0.00    -0.327 A  
HETATM   28  C   UNL     1     -10.582  18.617  67.565  1.00  0.00    -0.423 A  
HETATM   29  C   UNL     1     -10.269  18.185  66.299  1.00  0.00    -0.401 A  
ENDBRANCH  24  25
BRANCH  24  30
HETATM   30  N   UNL     1     -12.032  14.987  68.506  1.00  0.00    -0.544 NA 
HETATM   31  H   UNL     1     -12.697  15.235  67.775  1.00  0.00     0.000 HD 
BRANCH  30  32
HETATM   32  O   UNL     1     -12.552  14.547  69.721  1.00  0.00    -0.266 OA 
HETATM   33  C   UNL     1     -12.847  15.451  70.760  1.00  0.00    -0.466 C  
ENDBRANCH  30  32
ENDBRANCH  24  30
ENDBRANCH  22  24
ENDBRANCH   5  20
TORSDOF 8
ENDMDL
MODEL       93
REMARK 921   NORMALIZED FREE ENERGY PREDICTED BY IDOCK:   -5.20 KCAL/MOL
REMARK 922        TOTAL FREE ENERGY PREDICTED BY IDOCK:   -9.03 KCAL/MOL
REMARK 923 INTER-LIGAND FREE ENERGY PREDICTED BY IDOCK:   -8.01 KCAL/MOL
REMARK 924 INTRA-LIGAND FREE ENERGY PREDICTED BY IDOCK:   -1.02 KCAL/MOL
REMARK 927      BINDING AFFINITY PREDICTED BY RF-SCORE:    0.00 PKD
ROOT
HETATM    1  C   UNL     1     -11.644  13.116  67.577  1.00  0.00    -0.352 C  
HETATM    2  S   UNL     1     -10.495  14.035  68.566  1.00  0.00    -0.251 SA 
HETATM    3  C   UNL     1      -9.970  15.381  67.468  1.00  0.00    -0.226 C  
HETATM    4  C   UNL     1     -10.604  15.513  66.112  1.00  0.00    -0.321 C  
HETATM    5  CA  UNL     1     -11.616  11.590  67.093  1.00  0.00    -0.167 C  
HETATM    6  CA  UNL     1     -11.479  14.650  65.562  1.00  0.00    -0.341 C  
HETATM    7  C   UNL     1     -12.197  12.232  65.802  1.00  0.00    -0.073 C  
HETATM    8  C   UNL     1     -12.097  14.957  64.228  1.00  0.00    -0.353 C  
HETATM    9  N   UNL     1     -11.774  13.453  66.188  1.00  0.00    -0.351 N  
HETATM   10  OXT UNL     1     -12.408  16.099  63.922  1.00  0.00    -0.895 OA 
HETATM   11  O   UNL     1     -12.621  11.837  64.757  1.00  0.00    -0.189 OA 
HETATM   12  O   UNL     1     -12.325  13.931  63.395  1.00  0.00    -0.760 OA 
ENDROOT
BRANCH   4  13
HETATM   13  C   UNL     1     -10.019  16.695  65.334  1.00  0.00     0.083 C  
BRANCH  13  14
HETATM   14  O   UNL     1      -9.482  17.713  66.201  1.00  0.00    -0.441 OA 
BRANCH  14  15
HETATM   15  C   UNL     1     -10.336  18.661  66.634  1.00  0.00    -0.415 C  
HETATM   16  O   UNL     1     -10.648  18.889  67.793  1.00  0.00    -0.415 OA 
HETATM   17  N   UNL     1     -10.868  19.324  65.581  1.00  0.00    -0.343 N  
HETATM   18  H2  UNL     1     -10.653  19.134  64.602  1.00  0.00     0.000 HD 
HETATM   19  H1  UNL     1     -11.515  20.041  65.909  1.00  0.00     0.000 HD 
ENDBRANCH  14  15
ENDBRANCH  13  14
ENDBRANCH   4  13
BRANCH   5  20
HETATM   20  N   UNL     1     -10.524  10.600  66.735  1.00  0.00    -0.245 N  
HETATM   21  H   UNL     1     -10.693  10.155  65.834  1.00  0.00     0.000 HD 
HETATM   22  C   UNL     1      -9.336  10.144  67.336  1.00  0.00    -0.148 C  
HETATM   23  O   UNL     1      -8.631   9.372  66.704  1.00  0.00    -0.128 OA 
BRANCH  22  24
HETATM   24  C   UNL     1      -8.995  10.409  68.793  1.00  0.00    -0.157 C  
BRANCH  24  25
HETATM   25  C   UNL     1      -7.616  10.687  69.176  1.00  0.00    -0.131 A  
HETATM   26  O   UNL     1      -7.110  10.312  70.392  1.00  0.00    -0.241 OA 
HETATM   27  C   UNL     1      -6.714  11.556  68.572  1.00  0.00    -0.067 A  
HETATM   28  C   UNL     1      -5.968  11.030  70.593  1.00  0.00    -0.079 A  
HETATM   29  C   UNL     1      -5.688  11.821  69.505  1.00  0.00    -0.078 A  
ENDBRANCH  24  25
BRANCH  24  30
HETATM   30  N   UNL     1      -9.778  10.228  69.815  1.00  0.00    -0.393 NA 
HETATM   31  H   UNL     1     -10.159  11.059  70.265  1.00  0.00     0.000 HD 
BRANCH  30  32
HETATM   32  O   UNL     1     -10.140   8.992  70.346  1.00  0.00    -0.185 OA 
HETATM   33  C   UNL     1     -10.330   8.819  71.730  1.00  0.00    -0.343 C  
ENDBRANCH  30  32
ENDBRANCH  24  30
ENDBRANCH  22  24
ENDBRANCH   5  20
TORSDOF 8
ENDMDL
MODEL       94
REMARK 921   NORMALIZED FREE ENERGY PREDICTED BY IDOCK:   -5.18 KCAL/MOL
REMARK 922        TOTAL FREE ENERGY PREDICTED BY IDOCK:   -9.00 KCAL/MOL
REMARK 923 INTER-LIGAND FREE ENERGY PREDICTED BY IDOCK:   -7.69 KCAL/MOL
REMARK 924 INTRA-LIGAND FREE ENERGY PREDICTED BY IDOCK:   -1.31 KCAL/MOL
REMARK 927      BINDING AFFINITY PREDICTED BY RF-SCORE:    0.00 PKD
ROOT
HETATM    1  C   UNL     1     -10.507  10.280  66.081  1.00  0.00    -0.130 C  
HETATM    2  S   UNL     1     -10.349  10.327  67.846  1.00  0.00    -0.212 SA 
HETATM    3  C   UNL     1     -10.982  11.970  68.287  1.00  0.00    -0.234 C  
HETATM    4  C   UNL     1     -11.549  12.851  67.211  1.00  0.00    -0.416 C  
HETATM    5  CA  UNL     1      -9.399  10.096  64.939  1.00  0.00    -0.254 C  
HETATM    6  CA  UNL     1     -11.547  12.587  65.891  1.00  0.00    -0.405 C  
HETATM    7  C   UNL     1     -10.296  11.145  64.225  1.00  0.00    -0.351 C  
HETATM    8  C   UNL     1     -12.230  13.525  64.937  1.00  0.00    -0.410 C  
HETATM    9  N   UNL     1     -10.874  11.486  65.395  1.00  0.00    -0.280 N  
HETATM   10  OXT UNL     1     -13.275  14.083  65.236  1.00  0.00    -0.782 OA 
HETATM   11  O   UNL     1     -10.331  11.661  63.147  1.00  0.00    -0.376 OA 
HETATM   12  O   UNL     1     -11.668  13.709  63.732  1.00  0.00    -0.360 OA 
ENDROOT
BRANCH   4  13
HETATM   13  C   UNL     1     -12.015  14.195  67.777  1.00  0.00    -0.354 C  
BRANCH  13  14
HETATM   14  O   UNL     1     -11.929  14.247  69.215  1.00  0.00    -0.310 OA 
BRANCH  14  15
HETATM   15  C   UNL     1     -11.991  15.465  69.788  1.00  0.00    -0.358 C  
HETATM   16  O   UNL     1     -11.087  16.281  69.869  1.00  0.00    -0.336 OA 
HETATM   17  N   UNL     1     -13.216  15.661  70.331  1.00  0.00    -0.748 N  
HETATM   18  H2  UNL     1     -13.980  14.985  70.308  1.00  0.00     0.000 HD 
HETATM   19  H1  UNL     1     -13.263  16.583  70.765  1.00  0.00     0.000 HD 
ENDBRANCH  14  15
ENDBRANCH  13  14
ENDBRANCH   4  13
BRANCH   5  20
HETATM   20  N   UNL     1      -7.938  10.475  64.794  1.00  0.00    -0.309 N  
HETATM   21  H   UNL     1      -7.735  10.867  63.875  1.00  0.00     0.000 HD 
HETATM   22  C   UNL     1      -6.793  10.422  65.610  1.00  0.00    -0.133 C  
HETATM   23  O   UNL     1      -5.757  10.908  65.182  1.00  0.00    -0.106 OA 
BRANCH  22  24
HETATM   24  C   UNL     1      -6.738   9.622  66.901  1.00  0.00    -0.075 C  
BRANCH  24  25
HETATM   25  C   UNL     1      -7.252   8.258  66.931  1.00  0.00    -0.083 A  
HETATM   26  O   UNL     1      -7.264   7.462  65.816  1.00  0.00    -0.064 OA 
HETATM   27  C   UNL     1      -8.023   7.649  67.915  1.00  0.00    -0.118 A  
HETATM   28  C   UNL     1      -8.126   6.434  66.063  1.00  0.00    -0.120 A  
HETATM   29  C   UNL     1      -8.630   6.513  67.338  1.00  0.00    -0.118 A  
ENDBRANCH  24  25
BRANCH  24  30
HETATM   30  N   UNL     1      -6.449  10.081  68.083  1.00  0.00    -0.054 NA 
HETATM   31  H   UNL     1      -5.984   9.446  68.730  1.00  0.00     0.000 HD 
BRANCH  30  32
HETATM   32  O   UNL     1      -6.724  11.368  68.538  1.00  0.00    -0.062 OA 
HETATM   33  C   UNL     1      -6.191  11.844  69.751  1.00  0.00    -0.137 C  
ENDBRANCH  30  32
ENDBRANCH  24  30
ENDBRANCH  22  24
ENDBRANCH   5  20
TORSDOF 8
ENDMDL
MODEL       95
REMARK 921   NORMALIZED FREE ENERGY PREDICTED BY IDOCK:   -5.18 KCAL/MOL
REMARK 922        TOTAL FREE ENERGY PREDICTED BY IDOCK:   -9.00 KCAL/MOL
REMARK 923 INTER-LIGAND FREE ENERGY PREDICTED BY IDOCK:   -7.76 KCAL/MOL
REMARK 924 INTRA-LIGAND FREE ENERGY PREDICTED BY IDOCK:   -1.24 KCAL/MOL
REMARK 927      BINDING AFFINITY PREDICTED BY RF-SCORE:    0.00 PKD
ROOT
HETATM    1  C   UNL     1      -9.639  10.138  69.073  1.00  0.00    -0.196 C  
HETATM    2  S   UNL     1     -10.874   9.333  70.057  1.00  0.00    -0.238 SA 
HETATM    3  C   UNL     1     -10.693   7.581  69.620  1.00  0.00    -0.230 C  
HETATM    4  C   UNL     1      -9.592   7.168  68.686  1.00  0.00    -0.140 C  
HETATM    5  CA  UNL     1      -9.776  11.266  67.944  1.00  0.00    -0.177 C  
HETATM    6  CA  UNL     1      -8.757   7.998  68.032  1.00  0.00    -0.125 C  
HETATM    7  C   UNL     1      -8.651  10.417  67.289  1.00  0.00    -0.126 C  
HETATM    8  C   UNL     1      -7.644   7.436  67.194  1.00  0.00    -0.107 C  
HETATM    9  N   UNL     1      -8.945   9.367  68.081  1.00  0.00    -0.128 N  
HETATM   10  OXT UNL     1      -7.033   6.437  67.541  1.00  0.00    -0.073 OA 
HETATM   11  O   UNL     1      -7.955  10.506  66.321  1.00  0.00    -0.131 OA 
HETATM   12  O   UNL     1      -7.325   8.085  66.064  1.00  0.00    -0.071 OA 
ENDROOT
BRANCH   4  13
HETATM   13  C   UNL     1      -9.613   5.658  68.430  1.00  0.00    -0.126 C  
BRANCH  13  14
HETATM   14  O   UNL     1     -10.652   5.270  67.509  1.00  0.00    -0.171 OA 
BRANCH  14  15
HETATM   15  C   UNL     1     -10.260   4.754  66.328  1.00  0.00    -0.282 C  
HETATM   16  O   UNL     1      -9.141   4.361  66.037  1.00  0.00    -0.121 OA 
HETATM   17  N   UNL     1     -11.290   4.770  65.449  1.00  0.00    -0.977 N  
HETATM   18  H2  UNL     1     -12.226   5.122  65.652  1.00  0.00     0.000 HD 
HETATM   19  H1  UNL     1     -10.993   4.379  64.555  1.00  0.00     0.000 HD 
ENDBRANCH  14  15
ENDBRANCH  13  14
ENDBRANCH   4  13
BRANCH   5  20
HETATM   20  N   UNL     1     -10.827  11.623  66.910  1.00  0.00    -0.263 N  
HETATM   21  H   UNL     1     -10.897  10.917  66.177  1.00  0.00     0.000 HD 
HETATM   22  C   UNL     1     -11.729  12.685  66.709  1.00  0.00    -0.392 C  
HETATM   23  O   UNL     1     -12.516  12.603  65.778  1.00  0.00    -0.607 OA 
BRANCH  22  24
HETATM   24  C   UNL     1     -11.636  13.999  67.466  1.00  0.00    -0.367 C  
BRANCH  24  25
HETATM   25  C   UNL     1     -10.711  15.032  67.015  1.00  0.00    -0.304 A  
HETATM   26  O   UNL     1      -9.675  14.757  66.163  1.00  0.00    -0.279 OA 
HETATM   27  C   UNL     1     -10.530  16.310  67.531  1.00  0.00    -0.302 A  
HETATM   28  C   UNL     1      -8.801  15.801  66.241  1.00  0.00    -0.343 A  
HETATM   29  C   UNL     1      -9.277  16.778  67.081  1.00  0.00    -0.233 A  
ENDBRANCH  24  25
BRANCH  24  30
HETATM   30  N   UNL     1     -12.164  14.261  68.625  1.00  0.00    -0.568 NA 
HETATM   31  H   UNL     1     -12.745  15.095  68.696  1.00  0.00     0.000 HD 
BRANCH  30  32
HETATM   32  O   UNL     1     -12.000  13.497  69.778  1.00  0.00    -0.310 OA 
HETATM   33  C   UNL     1     -12.649  13.838  70.980  1.00  0.00    -0.371 C  
ENDBRANCH  30  32
ENDBRANCH  24  30
ENDBRANCH  22  24
ENDBRANCH   5  20
TORSDOF 8
ENDMDL
MODEL       96
REMARK 921   NORMALIZED FREE ENERGY PREDICTED BY IDOCK:   -5.18 KCAL/MOL
REMARK 922        TOTAL FREE ENERGY PREDICTED BY IDOCK:   -8.99 KCAL/MOL
REMARK 923 INTER-LIGAND FREE ENERGY PREDICTED BY IDOCK:   -6.61 KCAL/MOL
REMARK 924 INTRA-LIGAND FREE ENERGY PREDICTED BY IDOCK:   -2.39 KCAL/MOL
REMARK 927      BINDING AFFINITY PREDICTED BY RF-SCORE:    0.00 PKD
ROOT
HETATM    1  C   UNL     1      -7.989   6.084  71.666  1.00  0.00    -0.110 C  
HETATM    2  S   UNL     1      -7.726   7.144  73.062  1.00  0.00    -0.090 SA 
HETATM    3  C   UNL     1      -9.263   8.103  73.165  1.00  0.00    -0.266 C  
HETATM    4  C   UNL     1     -10.386   7.792  72.217  1.00  0.00    -0.294 C  
HETATM    5  CA  UNL     1      -7.181   5.953  70.289  1.00  0.00    -0.075 C  
HETATM    6  CA  UNL     1     -10.339   6.916  71.195  1.00  0.00    -0.204 C  
HETATM    7  C   UNL     1      -8.620   5.767  69.732  1.00  0.00    -0.127 C  
HETATM    8  C   UNL     1     -11.573   6.645  70.382  1.00  0.00    -0.398 C  
HETATM    9  N   UNL     1      -9.150   6.301  70.851  1.00  0.00    -0.150 N  
HETATM   10  OXT UNL     1     -12.677   6.601  70.902  1.00  0.00    -0.234 OA 
HETATM   11  O   UNL     1      -9.109   5.506  68.674  1.00  0.00    -0.116 OA 
HETATM   12  O   UNL     1     -11.417   6.424  69.068  1.00  0.00    -0.337 OA 
ENDROOT
BRANCH   4  13
HETATM   13  C   UNL     1     -11.586   8.715  72.451  1.00  0.00    -0.315 C  
BRANCH  13  14
HETATM   14  O   UNL     1     -11.574   9.864  71.581  1.00  0.00    -0.360 OA 
BRANCH  14  15
HETATM   15  C   UNL     1     -12.760  10.451  71.327  1.00  0.00    -0.432 C  
HETATM   16  O   UNL     1     -13.096  11.584  71.636  1.00  0.00    -0.452 OA 
HETATM   17  N   UNL     1     -13.588   9.578  70.707  1.00  0.00    -0.568 N  
HETATM   18  H2  UNL     1     -13.348   8.616  70.466  1.00  0.00     0.000 HD 
HETATM   19  H1  UNL     1     -14.485  10.022  70.515  1.00  0.00     0.000 HD 
ENDBRANCH  14  15
ENDBRANCH  13  14
ENDBRANCH   4  13
BRANCH   5  20
HETATM   20  N   UNL     1      -6.403   6.913  69.409  1.00  0.00    -0.037 N  
HETATM   21  H   UNL     1      -5.505   6.525  69.121  1.00  0.00     0.000 HD 
HETATM   22  C   UNL     1      -6.611   8.205  68.890  1.00  0.00    -0.049 C  
HETATM   23  O   UNL     1      -5.777   8.657  68.120  1.00  0.00    -0.038 OA 
BRANCH  22  24
HETATM   24  C   UNL     1      -7.710   9.127  69.391  1.00  0.00    -0.080 C  
BRANCH  24  25
HETATM   25  C   UNL     1      -8.836   9.450  68.522  1.00  0.00    -0.128 A  
HETATM   26  O   UNL     1      -9.816  10.330  68.901  1.00  0.00    -0.176 OA 
HETATM   27  C   UNL     1      -9.261   8.784  67.378  1.00  0.00    -0.158 A  
HETATM   28  C   UNL     1     -10.881  10.127  68.074  1.00  0.00    -0.270 A  
HETATM   29  C   UNL     1     -10.593   9.175  67.127  1.00  0.00    -0.286 A  
ENDBRANCH  24  25
BRANCH  24  30
HETATM   30  N   UNL     1      -7.683   9.844  70.474  1.00  0.00    -0.369 NA 
HETATM   31  H   UNL     1      -8.500   9.805  71.082  1.00  0.00     0.000 HD 
BRANCH  30  32
HETATM   32  O   UNL     1      -6.629  10.662  70.874  1.00  0.00    -0.333 OA 
HETATM   33  C   UNL     1      -6.135  11.681  70.036  1.00  0.00    -0.158 C  
ENDBRANCH  30  32
ENDBRANCH  24  30
ENDBRANCH  22  24
ENDBRANCH   5  20
TORSDOF 8
ENDMDL
MODEL       97
REMARK 921   NORMALIZED FREE ENERGY PREDICTED BY IDOCK:   -5.17 KCAL/MOL
REMARK 922        TOTAL FREE ENERGY PREDICTED BY IDOCK:   -8.98 KCAL/MOL
REMARK 923 INTER-LIGAND FREE ENERGY PREDICTED BY IDOCK:   -7.71 KCAL/MOL
REMARK 924 INTRA-LIGAND FREE ENERGY PREDICTED BY IDOCK:   -1.27 KCAL/MOL
REMARK 927      BINDING AFFINITY PREDICTED BY RF-SCORE:    0.00 PKD
ROOT
HETATM    1  C   UNL     1     -10.452  14.785  69.058  1.00  0.00    -0.249 C  
HETATM    2  S   UNL     1     -11.944  13.829  69.001  1.00  0.00    -0.339 SA 
HETATM    3  C   UNL     1     -11.418  12.262  68.251  1.00  0.00    -0.315 C  
HETATM    4  C   UNL     1      -9.964  12.049  67.941  1.00  0.00    -0.199 C  
HETATM    5  CA  UNL     1     -10.088  16.192  68.385  1.00  0.00    -0.236 C  
HETATM    6  CA  UNL     1      -8.986  12.966  68.069  1.00  0.00    -0.196 C  
HETATM    7  C   UNL     1      -8.719  15.482  68.193  1.00  0.00    -0.164 C  
HETATM    8  C   UNL     1      -7.558  12.582  67.802  1.00  0.00    -0.138 C  
HETATM    9  N   UNL     1      -9.287  14.275  68.393  1.00  0.00    -0.205 N  
HETATM   10  OXT UNL     1      -7.128  11.483  68.119  1.00  0.00    -0.070 OA 
HETATM   11  O   UNL     1      -7.637  15.788  67.788  1.00  0.00    -0.125 OA 
HETATM   12  O   UNL     1      -6.763  13.497  67.228  1.00  0.00    -0.211 OA 
ENDROOT
BRANCH   4  13
HETATM   13  C   UNL     1      -9.724  10.678  67.302  1.00  0.00    -0.168 C  
BRANCH  13  14
HETATM   14  O   UNL     1      -9.786   9.605  68.262  1.00  0.00    -0.143 OA 
BRANCH  14  15
HETATM   15  C   UNL     1     -10.426   8.482  67.883  1.00  0.00    -0.201 C  
HETATM   16  O   UNL     1     -10.554   8.063  66.743  1.00  0.00    -0.320 OA 
HETATM   17  N   UNL     1     -10.979   7.876  68.960  1.00  0.00    -0.428 N  
HETATM   18  H2  UNL     1     -10.918   8.219  69.919  1.00  0.00     0.000 HD 
HETATM   19  H1  UNL     1     -11.464   7.026  68.673  1.00  0.00     0.000 HD 
ENDBRANCH  14  15
ENDBRANCH  13  14
ENDBRANCH   4  13
BRANCH   5  20
HETATM   20  N   UNL     1     -10.489  16.902  67.106  1.00  0.00    -0.316 N  
HETATM   21  H   UNL     1     -11.168  16.365  66.568  1.00  0.00     0.000 HD 
HETATM   22  C   UNL     1     -10.159  18.117  66.476  1.00  0.00    -0.386 C  
HETATM   23  O   UNL     1     -10.757  18.418  65.455  1.00  0.00    -0.594 OA 
BRANCH  22  24
HETATM   24  C   UNL     1      -8.969  18.964  66.895  1.00  0.00    -0.298 C  
BRANCH  24  25
HETATM   25  C   UNL     1      -7.893  19.222  65.946  1.00  0.00    -0.176 A  
HETATM   26  O   UNL     1      -7.138  18.212  65.410  1.00  0.00    -0.523 OA 
HETATM   27  C   UNL     1      -7.281  20.435  65.646  1.00  0.00    -0.195 A  
HETATM   28  C   UNL     1      -6.014  18.781  64.889  1.00  0.00    -0.262 A  
HETATM   29  C   UNL     1      -6.049  20.148  65.021  1.00  0.00    -0.290 A  
ENDBRANCH  24  25
BRANCH  24  30
HETATM   30  N   UNL     1      -8.684  19.352  68.103  1.00  0.00    -0.319 NA 
HETATM   31  H   UNL     1      -9.335  19.993  68.554  1.00  0.00     0.000 HD 
BRANCH  30  32
HETATM   32  O   UNL     1      -7.561  18.966  68.830  1.00  0.00    -0.327 OA 
HETATM   33  C   UNL     1      -6.695  19.919  69.401  1.00  0.00    -0.320 C  
ENDBRANCH  30  32
ENDBRANCH  24  30
ENDBRANCH  22  24
ENDBRANCH   5  20
TORSDOF 8
ENDMDL
MODEL       98
REMARK 921   NORMALIZED FREE ENERGY PREDICTED BY IDOCK:   -5.16 KCAL/MOL
REMARK 922        TOTAL FREE ENERGY PREDICTED BY IDOCK:   -8.97 KCAL/MOL
REMARK 923 INTER-LIGAND FREE ENERGY PREDICTED BY IDOCK:   -7.37 KCAL/MOL
REMARK 924 INTRA-LIGAND FREE ENERGY PREDICTED BY IDOCK:   -1.59 KCAL/MOL
REMARK 927      BINDING AFFINITY PREDICTED BY RF-SCORE:    0.00 PKD
ROOT
HETATM    1  C   UNL     1      -9.983  10.213  66.755  1.00  0.00    -0.211 C  
HETATM    2  S   UNL     1     -10.119  11.091  68.289  1.00  0.00    -0.185 SA 
HETATM    3  C   UNL     1     -11.034  12.593  67.841  1.00  0.00    -0.230 C  
HETATM    4  C   UNL     1     -11.535  12.754  66.434  1.00  0.00    -0.409 C  
HETATM    5  CA  UNL     1      -8.691   9.749  65.930  1.00  0.00    -0.139 C  
HETATM    6  CA  UNL     1     -11.284  11.922  65.405  1.00  0.00    -0.295 C  
HETATM    7  C   UNL     1      -9.596  10.157  64.734  1.00  0.00    -0.314 C  
HETATM    8  C   UNL     1     -11.927  12.167  64.069  1.00  0.00    -0.440 C  
HETATM    9  N   UNL     1     -10.396  10.873  65.550  1.00  0.00    -0.263 N  
HETATM   10  OXT UNL     1     -13.073  12.581  63.984  1.00  0.00    -0.741 OA 
HETATM   11  O   UNL     1      -9.527  10.105  63.542  1.00  0.00    -0.283 OA 
HETATM   12  O   UNL     1     -11.209  11.886  62.971  1.00  0.00    -0.203 OA 
ENDROOT
BRANCH   4  13
HETATM   13  C   UNL     1     -12.266  14.087  66.251  1.00  0.00    -0.462 C  
BRANCH  13  14
HETATM   14  O   UNL     1     -11.402  15.222  66.457  1.00  0.00    -0.287 OA 
BRANCH  14  15
HETATM   15  C   UNL     1     -10.722  15.675  65.385  1.00  0.00    -0.408 C  
HETATM   16  O   UNL     1      -9.616  16.192  65.387  1.00  0.00    -0.428 OA 
HETATM   17  N   UNL     1     -11.467  15.526  64.265  1.00  0.00    -0.737 N  
HETATM   18  H2  UNL     1     -12.406  15.129  64.236  1.00  0.00     0.000 HD 
HETATM   19  H1  UNL     1     -10.952  15.869  63.454  1.00  0.00     0.000 HD 
ENDBRANCH  14  15
ENDBRANCH  13  14
ENDBRANCH   4  13
BRANCH   5  20
HETATM   20  N   UNL     1      -7.291  10.300  65.734  1.00  0.00    -0.135 N  
HETATM   21  H   UNL     1      -6.886  10.006  64.846  1.00  0.00     0.000 HD 
HETATM   22  C   UNL     1      -6.412  11.114  66.472  1.00  0.00    -0.129 C  
HETATM   23  O   UNL     1      -5.354  11.436  65.954  1.00  0.00    -0.263 OA 
BRANCH  22  24
HETATM   24  C   UNL     1      -6.631  11.444  67.939  1.00  0.00    -0.059 C  
BRANCH  24  25
HETATM   25  C   UNL     1      -6.545  10.388  68.940  1.00  0.00    -0.053 A  
HETATM   26  O   UNL     1      -6.695   9.065  68.615  1.00  0.00    -0.057 OA 
HETATM   27  C   UNL     1      -6.585  10.508  70.325  1.00  0.00    -0.138 A  
HETATM   28  C   UNL     1      -6.944   8.391  69.774  1.00  0.00    -0.047 A  
HETATM   29  C   UNL     1      -6.899   9.238  70.854  1.00  0.00    -0.103 A  
ENDBRANCH  24  25
BRANCH  24  30
HETATM   30  N   UNL     1      -7.088  12.562  68.420  1.00  0.00    -0.099 NA 
HETATM   31  H   UNL     1      -7.500  12.537  69.351  1.00  0.00     0.000 HD 
BRANCH  30  32
HETATM   32  O   UNL     1      -7.060  13.792  67.767  1.00  0.00    -0.134 OA 
HETATM   33  C   UNL     1      -7.808  14.888  68.239  1.00  0.00    -0.122 C  
ENDBRANCH  30  32
ENDBRANCH  24  30
ENDBRANCH  22  24
ENDBRANCH   5  20
TORSDOF 8
ENDMDL
MODEL       99
REMARK 921   NORMALIZED FREE ENERGY PREDICTED BY IDOCK:   -5.15 KCAL/MOL
REMARK 922        TOTAL FREE ENERGY PREDICTED BY IDOCK:   -8.95 KCAL/MOL
REMARK 923 INTER-LIGAND FREE ENERGY PREDICTED BY IDOCK:   -8.03 KCAL/MOL
REMARK 924 INTRA-LIGAND FREE ENERGY PREDICTED BY IDOCK:   -0.92 KCAL/MOL
REMARK 927      BINDING AFFINITY PREDICTED BY RF-SCORE:    0.00 PKD
ROOT
HETATM    1  C   UNL     1     -10.716  10.853  69.405  1.00  0.00    -0.225 C  
HETATM    2  S   UNL     1     -12.034  10.807  70.589  1.00  0.00    -0.379 SA 
HETATM    3  C   UNL     1     -12.323   9.033  70.837  1.00  0.00    -0.113 C  
HETATM    4  C   UNL     1     -11.432   8.041  70.148  1.00  0.00    -0.008 C  
HETATM    5  CA  UNL     1     -10.655  11.487  67.935  1.00  0.00    -0.191 C  
HETATM    6  CA  UNL     1     -10.469   8.332  69.252  1.00  0.00    -0.210 C  
HETATM    7  C   UNL     1      -9.826  10.200  67.667  1.00  0.00    -0.172 C  
HETATM    8  C   UNL     1      -9.595   7.238  68.708  1.00  0.00    -0.142 C  
HETATM    9  N   UNL     1     -10.310   9.623  68.785  1.00  0.00    -0.206 N  
HETATM   10  OXT UNL     1      -9.224   6.313  69.414  1.00  0.00    -0.137 OA 
HETATM   11  O   UNL     1      -9.204   9.749  66.752  1.00  0.00    -0.144 OA 
HETATM   12  O   UNL     1      -9.212   7.326  67.425  1.00  0.00    -0.126 OA 
ENDROOT
BRANCH   4  13
HETATM   13  C   UNL     1     -11.843   6.601  70.470  1.00  0.00    -0.370 C  
BRANCH  13  14
HETATM   14  O   UNL     1     -12.124   6.409  71.870  1.00  0.00    -0.336 OA 
BRANCH  14  15
HETATM   15  C   UNL     1     -11.094   6.039  72.655  1.00  0.00    -0.275 C  
HETATM   16  O   UNL     1     -10.573   4.935  72.705  1.00  0.00    -0.198 OA 
HETATM   17  N   UNL     1     -10.723   7.068  73.452  1.00  0.00    -0.418 N  
HETATM   18  H2  UNL     1     -11.160   7.990  73.457  1.00  0.00     0.000 HD 
HETATM   19  H1  UNL     1      -9.943   6.787  74.047  1.00  0.00     0.000 HD 
ENDBRANCH  14  15
ENDBRANCH  13  14
ENDBRANCH   4  13
BRANCH   5  20
HETATM   20  N   UNL     1     -11.660  11.700  66.819  1.00  0.00    -0.237 N  
HETATM   21  H   UNL     1     -12.424  11.026  66.859  1.00  0.00     0.000 HD 
HETATM   22  C   UNL     1     -11.801  12.595  65.742  1.00  0.00    -0.444 C  
HETATM   23  O   UNL     1     -12.815  12.526  65.065  1.00  0.00    -0.742 OA 
BRANCH  22  24
HETATM   24  C   UNL     1     -10.675  13.500  65.270  1.00  0.00    -0.323 C  
BRANCH  24  25
HETATM   25  C   UNL     1     -10.208  14.584  66.125  1.00  0.00    -0.305 A  
HETATM   26  O   UNL     1      -8.876  14.816  66.344  1.00  0.00    -0.233 OA 
HETATM   27  C   UNL     1     -10.941  15.340  67.033  1.00  0.00    -0.324 A  
HETATM   28  C   UNL     1      -8.780  15.611  67.448  1.00  0.00    -0.179 A  
HETATM   29  C   UNL     1     -10.025  15.951  67.917  1.00  0.00    -0.221 A  
ENDBRANCH  24  25
BRANCH  24  30
HETATM   30  N   UNL     1     -10.176  13.550  64.070  1.00  0.00    -0.713 NA 
HETATM   31  H   UNL     1      -9.939  14.470  63.701  1.00  0.00     0.000 HD 
BRANCH  30  32
HETATM   32  O   UNL     1      -9.938  12.451  63.248  1.00  0.00    -0.392 OA 
HETATM   33  C   UNL     1      -9.538  11.211  63.782  1.00  0.00    -0.271 C  
ENDBRANCH  30  32
ENDBRANCH  24  30
ENDBRANCH  22  24
ENDBRANCH   5  20
TORSDOF 8
ENDMDL
MODEL      100
REMARK 921   NORMALIZED FREE ENERGY PREDICTED BY IDOCK:   -5.13 KCAL/MOL
REMARK 922        TOTAL FREE ENERGY PREDICTED BY IDOCK:   -8.93 KCAL/MOL
REMARK 923 INTER-LIGAND FREE ENERGY PREDICTED BY IDOCK:   -7.87 KCAL/MOL
REMARK 924 INTRA-LIGAND FREE ENERGY PREDICTED BY IDOCK:   -1.06 KCAL/MOL
REMARK 927      BINDING AFFINITY PREDICTED BY RF-SCORE:    0.00 PKD
ROOT
HETATM    1  C   UNL     1      -7.779  12.479  67.647  1.00  0.00    -0.151 C  
HETATM    2  S   UNL     1      -7.421  11.167  68.784  1.00  0.00    -0.125 SA 
HETATM    3  C   UNL     1      -8.424   9.785  68.170  1.00  0.00    -0.114 C  
HETATM    4  C   UNL     1      -9.209   9.956  66.901  1.00  0.00    -0.171 C  
HETATM    5  CA  UNL     1      -8.420  13.927  67.893  1.00  0.00    -0.177 C  
HETATM    6  CA  UNL     1      -9.336  11.097  66.197  1.00  0.00    -0.206 C  
HETATM    7  C   UNL     1      -9.106  13.596  66.538  1.00  0.00    -0.119 C  
HETATM    8  C   UNL     1     -10.086  11.095  64.896  1.00  0.00    -0.289 C  
HETATM    9  N   UNL     1      -8.828  12.285  66.687  1.00  0.00    -0.195 N  
HETATM   10  OXT UNL     1     -10.016  10.150  64.125  1.00  0.00    -0.278 OA 
HETATM   11  O   UNL     1      -9.817  14.170  65.768  1.00  0.00    -0.307 OA 
HETATM   12  O   UNL     1     -10.814  12.181  64.594  1.00  0.00    -0.282 OA 
ENDROOT
BRANCH   4  13
HETATM   13  C   UNL     1      -9.999   8.689  66.558  1.00  0.00    -0.282 C  
BRANCH  13  14
HETATM   14  O   UNL     1     -10.775   8.206  67.672  1.00  0.00    -0.221 OA 
BRANCH  14  15
HETATM   15  C   UNL     1     -10.998   6.878  67.733  1.00  0.00    -0.207 C  
HETATM   16  O   UNL     1     -10.939   6.085  66.806  1.00  0.00    -0.316 OA 
HETATM   17  N   UNL     1     -11.359   6.524  68.989  1.00  0.00    -0.585 N  
HETATM   18  H2  UNL     1     -11.448   7.169  69.774  1.00  0.00     0.000 HD 
HETATM   19  H1  UNL     1     -11.527   5.519  69.034  1.00  0.00     0.000 HD 
ENDBRANCH  14  15
ENDBRANCH  13  14
ENDBRANCH   4  13
BRANCH   5  20
HETATM   20  N   UNL     1      -9.436  14.497  68.864  1.00  0.00    -0.323 N  
HETATM   21  H   UNL     1     -10.089  13.786  69.194  1.00  0.00     0.000 HD 
HETATM   22  C   UNL     1      -9.703  15.760  69.424  1.00  0.00    -0.286 C  
HETATM   23  O   UNL     1     -10.583  15.842  70.267  1.00  0.00    -0.314 OA 
BRANCH  22  24
HETATM   24  C   UNL     1      -9.087  17.043  68.892  1.00  0.00    -0.208 C  
BRANCH  24  25
HETATM   25  C   UNL     1      -9.876  17.925  68.039  1.00  0.00    -0.320 A  
HETATM   26  O   UNL     1     -10.256  17.563  66.774  1.00  0.00    -0.306 OA 
HETATM   27  C   UNL     1     -10.125  19.283  68.202  1.00  0.00    -0.507 A  
HETATM   28  C   UNL     1     -10.625  18.703  66.122  1.00  0.00    -0.363 A  
HETATM   29  C   UNL     1     -10.549  19.792  66.956  1.00  0.00    -0.586 A  
ENDBRANCH  24  25
BRANCH  24  30
HETATM   30  N   UNL     1      -7.833  17.380  68.948  1.00  0.00    -0.235 NA 
HETATM   31  H   UNL     1      -7.395  17.398  69.868  1.00  0.00     0.000 HD 
BRANCH  30  32
HETATM   32  O   UNL     1      -7.039  17.719  67.855  1.00  0.00    -0.196 OA 
HETATM   33  C   UNL     1      -6.276  18.903  67.845  1.00  0.00    -0.200 C  
ENDBRANCH  30  32
ENDBRANCH  24  30
ENDBRANCH  22  24
ENDBRANCH   5  20
TORSDOF 8
ENDMDL
MODEL      101
REMARK 921   NORMALIZED FREE ENERGY PREDICTED BY IDOCK:   -5.12 KCAL/MOL
REMARK 922        TOTAL FREE ENERGY PREDICTED BY IDOCK:   -8.91 KCAL/MOL
REMARK 923 INTER-LIGAND FREE ENERGY PREDICTED BY IDOCK:   -7.84 KCAL/MOL
REMARK 924 INTRA-LIGAND FREE ENERGY PREDICTED BY IDOCK:   -1.08 KCAL/MOL
REMARK 927      BINDING AFFINITY PREDICTED BY RF-SCORE:    0.00 PKD
ROOT
HETATM    1  C   UNL     1      -9.119   9.738  65.775  1.00  0.00    -0.177 C  
HETATM    2  S   UNL     1      -9.158  10.159  64.053  1.00  0.00    -0.273 SA 
HETATM    3  C   UNL     1     -10.518  11.356  63.938  1.00  0.00    -0.387 C  
HETATM    4  C   UNL     1     -11.218  11.794  65.193  1.00  0.00    -0.311 C  
HETATM    5  CA  UNL     1      -9.313   8.327  66.508  1.00  0.00    -0.206 C  
HETATM    6  CA  UNL     1     -11.007  11.302  66.429  1.00  0.00    -0.227 C  
HETATM    7  C   UNL     1     -10.063   9.226  67.531  1.00  0.00    -0.218 C  
HETATM    8  C   UNL     1     -11.722  11.900  67.606  1.00  0.00    -0.275 C  
HETATM    9  N   UNL     1     -10.177  10.213  66.620  1.00  0.00    -0.224 N  
HETATM   10  OXT UNL     1     -11.928  13.102  67.679  1.00  0.00    -0.357 OA 
HETATM   11  O   UNL     1     -10.576   9.075  68.600  1.00  0.00    -0.212 OA 
HETATM   12  O   UNL     1     -12.104  11.073  68.591  1.00  0.00    -0.551 OA 
ENDROOT
BRANCH   4  13
HETATM   13  C   UNL     1     -12.340  12.791  64.888  1.00  0.00    -0.490 C  
BRANCH  13  14
HETATM   14  O   UNL     1     -11.931  13.812  63.957  1.00  0.00    -0.439 OA 
BRANCH  14  15
HETATM   15  C   UNL     1     -11.366  14.920  64.473  1.00  0.00    -0.300 C  
HETATM   16  O   UNL     1     -10.514  14.967  65.346  1.00  0.00    -0.324 OA 
HETATM   17  N   UNL     1     -11.919  16.025  63.919  1.00  0.00    -0.783 N  
HETATM   18  H2  UNL     1     -12.655  16.019  63.213  1.00  0.00     0.000 HD 
HETATM   19  H1  UNL     1     -11.491  16.864  64.311  1.00  0.00     0.000 HD 
ENDBRANCH  14  15
ENDBRANCH  13  14
ENDBRANCH   4  13
BRANCH   5  20
HETATM   20  N   UNL     1     -10.122   7.076  66.225  1.00  0.00    -0.440 N  
HETATM   21  H   UNL     1     -10.871   7.249  65.554  1.00  0.00     0.000 HD 
HETATM   22  C   UNL     1     -10.099   5.736  66.655  1.00  0.00    -0.193 C  
HETATM   23  O   UNL     1     -10.878   4.951  66.138  1.00  0.00    -0.289 OA 
BRANCH  22  24
HETATM   24  C   UNL     1      -9.294   5.272  67.858  1.00  0.00    -0.116 C  
BRANCH  24  25
HETATM   25  C   UNL     1      -7.839   5.374  67.840  1.00  0.00    -0.092 A  
HETATM   26  O   UNL     1      -7.135   5.509  66.672  1.00  0.00    -0.066 OA 
HETATM   27  C   UNL     1      -6.943   5.090  68.864  1.00  0.00    -0.052 A  
HETATM   28  C   UNL     1      -5.836   5.194  66.946  1.00  0.00    -0.022 A  
HETATM   29  C   UNL     1      -5.670   4.917  68.281  1.00  0.00    -0.017 A  
ENDBRANCH  24  25
BRANCH  24  30
HETATM   30  N   UNL     1      -9.742   4.593  68.872  1.00  0.00    -0.170 NA 
HETATM   31  H   UNL     1      -9.715   3.577  68.803  1.00  0.00     0.000 HD 
BRANCH  30  32
HETATM   32  O   UNL     1     -10.256   5.140  70.045  1.00  0.00    -0.251 OA 
HETATM   33  C   UNL     1     -11.291   6.095  70.014  1.00  0.00    -0.373 C  
ENDBRANCH  30  32
ENDBRANCH  24  30
ENDBRANCH  22  24
ENDBRANCH   5  20
TORSDOF 8
ENDMDL
MODEL      102
REMARK 921   NORMALIZED FREE ENERGY PREDICTED BY IDOCK:   -5.12 KCAL/MOL
REMARK 922        TOTAL FREE ENERGY PREDICTED BY IDOCK:   -8.90 KCAL/MOL
REMARK 923 INTER-LIGAND FREE ENERGY PREDICTED BY IDOCK:   -6.53 KCAL/MOL
REMARK 924 INTRA-LIGAND FREE ENERGY PREDICTED BY IDOCK:   -2.37 KCAL/MOL
REMARK 927      BINDING AFFINITY PREDICTED BY RF-SCORE:    0.00 PKD
ROOT
HETATM    1  C   UNL     1     -10.246  10.165  66.336  1.00  0.00    -0.221 C  
HETATM    2  S   UNL     1     -10.237   8.513  66.980  1.00  0.00    -0.308 SA 
HETATM    3  C   UNL     1     -10.634   8.738  68.736  1.00  0.00    -0.145 C  
HETATM    4  C   UNL     1     -10.957  10.114  69.245  1.00  0.00    -0.279 C  
HETATM    5  CA  UNL     1      -9.087  11.016  65.630  1.00  0.00    -0.206 C  
HETATM    6  CA  UNL     1     -10.882  11.257  68.536  1.00  0.00    -0.205 C  
HETATM    7  C   UNL     1      -9.738  12.156  66.462  1.00  0.00    -0.223 C  
HETATM    8  C   UNL     1     -11.320  12.554  69.155  1.00  0.00    -0.274 C  
HETATM    9  N   UNL     1     -10.354  11.259  67.259  1.00  0.00    -0.194 N  
HETATM   10  OXT UNL     1     -12.284  12.604  69.903  1.00  0.00    -0.258 OA 
HETATM   11  O   UNL     1      -9.596  13.338  66.567  1.00  0.00    -0.258 OA 
HETATM   12  O   UNL     1     -10.633  13.661  68.835  1.00  0.00    -0.245 OA 
ENDROOT
BRANCH   4  13
HETATM   13  C   UNL     1     -11.249  10.100  70.748  1.00  0.00    -0.336 C  
BRANCH  13  14
HETATM   14  O   UNL     1     -12.303   9.181  71.095  1.00  0.00    -0.299 OA 
BRANCH  14  15
HETATM   15  C   UNL     1     -13.160   9.570  72.060  1.00  0.00    -0.438 C  
HETATM   16  O   UNL     1     -13.819   8.844  72.788  1.00  0.00    -0.407 OA 
HETATM   17  N   UNL     1     -13.243  10.921  72.091  1.00  0.00    -0.586 N  
HETATM   18  H2  UNL     1     -12.731  11.552  71.475  1.00  0.00     0.000 HD 
HETATM   19  H1  UNL     1     -13.892  11.214  72.821  1.00  0.00     0.000 HD 
ENDBRANCH  14  15
ENDBRANCH  13  14
ENDBRANCH   4  13
BRANCH   5  20
HETATM   20  N   UNL     1      -7.577  11.078  65.756  1.00  0.00    -0.356 N  
HETATM   21  H   UNL     1      -7.111  10.859  64.875  1.00  0.00     0.000 HD 
HETATM   22  C   UNL     1      -6.658  11.361  66.783  1.00  0.00    -0.136 C  
HETATM   23  O   UNL     1      -5.470  11.400  66.499  1.00  0.00    -0.120 OA 
BRANCH  22  24
HETATM   24  C   UNL     1      -7.054  11.424  68.249  1.00  0.00    -0.078 C  
BRANCH  24  25
HETATM   25  C   UNL     1      -7.231  10.191  69.006  1.00  0.00    -0.076 A  
HETATM   26  O   UNL     1      -7.686  10.190  70.298  1.00  0.00    -0.184 OA 
HETATM   27  C   UNL     1      -6.747   8.921  68.709  1.00  0.00    -0.054 A  
HETATM   28  C   UNL     1      -7.380   8.974  70.833  1.00  0.00    -0.111 A  
HETATM   29  C   UNL     1      -6.789   8.161  69.897  1.00  0.00    -0.044 A  
ENDBRANCH  24  25
BRANCH  24  30
HETATM   30  N   UNL     1      -7.456  12.478  68.896  1.00  0.00    -0.283 NA 
HETATM   31  H   UNL     1      -8.448  12.540  69.120  1.00  0.00     0.000 HD 
BRANCH  30  32
HETATM   32  O   UNL     1      -6.642  13.530  69.308  1.00  0.00    -0.107 OA 
HETATM   33  C   UNL     1      -5.411  13.294  69.952  1.00  0.00    -0.101 C  
ENDBRANCH  30  32
ENDBRANCH  24  30
ENDBRANCH  22  24
ENDBRANCH   5  20
TORSDOF 8
ENDMDL
MODEL      103
REMARK 921   NORMALIZED FREE ENERGY PREDICTED BY IDOCK:   -5.10 KCAL/MOL
REMARK 922        TOTAL FREE ENERGY PREDICTED BY IDOCK:   -8.89 KCAL/MOL
REMARK 923 INTER-LIGAND FREE ENERGY PREDICTED BY IDOCK:   -7.69 KCAL/MOL
REMARK 924 INTRA-LIGAND FREE ENERGY PREDICTED BY IDOCK:   -1.19 KCAL/MOL
REMARK 927      BINDING AFFINITY PREDICTED BY RF-SCORE:    0.00 PKD
ROOT
HETATM    1  C   UNL     1     -11.218   9.400  71.211  1.00  0.00    -0.367 C  
HETATM    2  S   UNL     1     -12.664   8.411  71.485  1.00  0.00    -0.285 SA 
HETATM    3  C   UNL     1     -12.094   6.721  71.153  1.00  0.00    -0.370 C  
HETATM    4  C   UNL     1     -10.645   6.484  70.837  1.00  0.00    -0.275 C  
HETATM    5  CA  UNL     1     -10.947  10.587  70.171  1.00  0.00    -0.270 C  
HETATM    6  CA  UNL     1      -9.707   7.435  70.668  1.00  0.00    -0.175 C  
HETATM    7  C   UNL     1      -9.555   9.900  70.106  1.00  0.00    -0.185 C  
HETATM    8  C   UNL     1      -8.275   7.044  70.440  1.00  0.00    -0.124 C  
HETATM    9  N   UNL     1     -10.057   8.772  70.647  1.00  0.00    -0.193 N  
HETATM   10  OXT UNL     1      -7.781   6.086  71.016  1.00  0.00    -0.097 OA 
HETATM   11  O   UNL     1      -8.506  10.125  69.580  1.00  0.00    -0.172 OA 
HETATM   12  O   UNL     1      -7.547   7.800  69.605  1.00  0.00    -0.088 OA 
ENDROOT
BRANCH   4  13
HETATM   13  C   UNL     1     -10.366   5.001  70.574  1.00  0.00    -0.215 C  
BRANCH  13  14
HETATM   14  O   UNL     1     -10.349   4.220  71.785  1.00  0.00    -0.145 OA 
BRANCH  14  15
HETATM   15  C   UNL     1      -9.665   3.059  71.754  1.00  0.00    -0.160 C  
HETATM   16  O   UNL     1     -10.111   1.956  71.479  1.00  0.00    -0.139 OA 
HETATM   17  N   UNL     1      -8.381   3.266  72.132  1.00  0.00    -0.073 N  
HETATM   18  H2  UNL     1      -7.989   4.168  72.400  1.00  0.00     0.000 HD 
HETATM   19  H1  UNL     1      -7.864   2.387  72.109  1.00  0.00     0.000 HD 
ENDBRANCH  14  15
ENDBRANCH  13  14
ENDBRANCH   4  13
BRANCH   5  20
HETATM   20  N   UNL     1     -11.432  10.915  68.772  1.00  0.00    -0.286 N  
HETATM   21  H   UNL     1     -11.627  10.075  68.229  1.00  0.00     0.000 HD 
HETATM   22  C   UNL     1     -11.678  12.089  68.035  1.00  0.00    -0.331 C  
HETATM   23  O   UNL     1     -12.159  11.978  66.918  1.00  0.00    -0.608 OA 
BRANCH  22  24
HETATM   24  C   UNL     1     -11.196  13.459  68.484  1.00  0.00    -0.283 C  
BRANCH  24  25
HETATM   25  C   UNL     1     -11.791  14.088  69.657  1.00  0.00    -0.330 A  
HETATM   26  O   UNL     1     -12.408  13.359  70.639  1.00  0.00    -0.350 OA 
HETATM   27  C   UNL     1     -12.085  15.432  69.857  1.00  0.00    -0.382 A  
HETATM   28  C   UNL     1     -13.170  14.224  71.366  1.00  0.00    -0.349 A  
HETATM   29  C   UNL     1     -13.016  15.512  70.915  1.00  0.00    -0.526 A  
ENDBRANCH  24  25
BRANCH  24  30
HETATM   30  N   UNL     1     -10.418  14.260  67.819  1.00  0.00    -0.244 NA 
HETATM   31  H   UNL     1      -9.474  14.399  68.178  1.00  0.00     0.000 HD 
BRANCH  30  32
HETATM   32  O   UNL     1     -10.766  14.943  66.656  1.00  0.00    -0.300 OA 
HETATM   33  C   UNL     1     -10.139  14.661  65.427  1.00  0.00    -0.372 C  
ENDBRANCH  30  32
ENDBRANCH  24  30
ENDBRANCH  22  24
ENDBRANCH   5  20
TORSDOF 8
ENDMDL
MODEL      104
REMARK 921   NORMALIZED FREE ENERGY PREDICTED BY IDOCK:   -5.09 KCAL/MOL
REMARK 922        TOTAL FREE ENERGY PREDICTED BY IDOCK:   -8.87 KCAL/MOL
REMARK 923 INTER-LIGAND FREE ENERGY PREDICTED BY IDOCK:   -8.05 KCAL/MOL
REMARK 924 INTRA-LIGAND FREE ENERGY PREDICTED BY IDOCK:   -0.82 KCAL/MOL
REMARK 927      BINDING AFFINITY PREDICTED BY RF-SCORE:    0.00 PKD
ROOT
HETATM    1  C   UNL     1     -11.162  11.491  67.208  1.00  0.00    -0.301 C  
HETATM    2  S   UNL     1     -10.186  10.877  65.861  1.00  0.00    -0.252 SA 
HETATM    3  C   UNL     1      -9.516   9.316  66.497  1.00  0.00    -0.202 C  
HETATM    4  C   UNL     1      -9.939   8.834  67.855  1.00  0.00    -0.231 C  
HETATM    5  CA  UNL     1     -11.044  12.849  68.049  1.00  0.00    -0.253 C  
HETATM    6  CA  UNL     1     -10.711   9.510  68.728  1.00  0.00    -0.190 C  
HETATM    7  C   UNL     1     -11.430  11.890  69.210  1.00  0.00    -0.306 C  
HETATM    8  C   UNL     1     -11.125   8.863  70.019  1.00  0.00    -0.170 C  
HETATM    9  N   UNL     1     -11.084  10.816  68.472  1.00  0.00    -0.241 N  
HETATM   10  OXT UNL     1     -11.398   7.674  70.073  1.00  0.00    -0.195 OA 
HETATM   11  O   UNL     1     -11.686  12.001  70.371  1.00  0.00    -0.266 OA 
HETATM   12  O   UNL     1     -11.212   9.643  71.107  1.00  0.00    -0.331 OA 
ENDROOT
BRANCH   4  13
HETATM   13  C   UNL     1      -9.257   7.512  68.217  1.00  0.00    -0.138 C  
BRANCH  13  14
HETATM   14  O   UNL     1      -9.069   6.657  67.072  1.00  0.00    -0.124 OA 
BRANCH  14  15
HETATM   15  C   UNL     1     -10.087   5.836  66.748  1.00  0.00    -0.196 C  
HETATM   16  O   UNL     1     -11.045   5.549  67.449  1.00  0.00    -0.010 OA 
HETATM   17  N   UNL     1      -9.884   5.305  65.520  1.00  0.00    -0.371 N  
HETATM   18  H2  UNL     1      -9.077   5.499  64.925  1.00  0.00     0.000 HD 
HETATM   19  H1  UNL     1     -10.654   4.683  65.275  1.00  0.00     0.000 HD 
ENDBRANCH  14  15
ENDBRANCH  13  14
ENDBRANCH   4  13
BRANCH   5  20
HETATM   20  N   UNL     1      -9.899  13.747  68.475  1.00  0.00    -0.276 N  
HETATM   21  H   UNL     1      -9.599  13.556  69.431  1.00  0.00     0.000 HD 
HETATM   22  C   UNL     1      -9.147  14.779  67.882  1.00  0.00    -0.183 C  
HETATM   23  O   UNL     1      -8.210  15.244  68.513  1.00  0.00    -0.134 OA 
BRANCH  22  24
HETATM   24  C   UNL     1      -9.565  15.466  66.593  1.00  0.00    -0.256 C  
BRANCH  24  25
HETATM   25  C   UNL     1     -10.171  16.791  66.642  1.00  0.00    -0.309 A  
HETATM   26  O   UNL     1     -10.325  17.561  65.519  1.00  0.00    -0.620 OA 
HETATM   27  C   UNL     1     -10.422  17.583  67.757  1.00  0.00    -0.381 A  
HETATM   28  C   UNL     1     -10.550  18.841  65.935  1.00  0.00    -0.352 A  
HETATM   29  C   UNL     1     -10.606  18.908  67.306  1.00  0.00    -0.529 A  
ENDBRANCH  24  25
BRANCH  24  30
HETATM   30  N   UNL     1      -9.624  14.924  65.413  1.00  0.00    -0.450 NA 
HETATM   31  H   UNL     1      -8.848  15.102  64.777  1.00  0.00     0.000 HD 
BRANCH  30  32
HETATM   32  O   UNL     1     -10.661  14.120  64.946  1.00  0.00    -0.387 OA 
HETATM   33  C   UNL     1     -11.983  14.601  64.871  1.00  0.00    -0.400 C  
ENDBRANCH  30  32
ENDBRANCH  24  30
ENDBRANCH  22  24
ENDBRANCH   5  20
TORSDOF 8
ENDMDL
MODEL      105
REMARK 921   NORMALIZED FREE ENERGY PREDICTED BY IDOCK:   -5.07 KCAL/MOL
REMARK 922        TOTAL FREE ENERGY PREDICTED BY IDOCK:   -8.83 KCAL/MOL
REMARK 923 INTER-LIGAND FREE ENERGY PREDICTED BY IDOCK:   -7.91 KCAL/MOL
REMARK 924 INTRA-LIGAND FREE ENERGY PREDICTED BY IDOCK:   -0.93 KCAL/MOL
REMARK 927      BINDING AFFINITY PREDICTED BY RF-SCORE:    0.00 PKD
ROOT
HETATM    1  C   UNL     1     -11.081  12.855  65.401  1.00  0.00    -0.281 C  
HETATM    2  S   UNL     1     -11.302  12.612  63.659  1.00  0.00    -0.464 SA 
HETATM    3  C   UNL     1     -10.268  11.166  63.295  1.00  0.00    -0.350 C  
HETATM    4  C   UNL     1      -9.570  10.461  64.423  1.00  0.00    -0.375 C  
HETATM    5  CA  UNL     1     -10.503  14.107  66.215  1.00  0.00    -0.286 C  
HETATM    6  CA  UNL     1      -9.545  10.859  65.709  1.00  0.00    -0.216 C  
HETATM    7  C   UNL     1      -9.883  12.968  67.071  1.00  0.00    -0.238 C  
HETATM    8  C   UNL     1      -8.876  10.003  66.747  1.00  0.00    -0.132 C  
HETATM    9  N   UNL     1     -10.084  12.077  66.079  1.00  0.00    -0.224 N  
HETATM   10  OXT UNL     1      -8.944   8.784  66.701  1.00  0.00    -0.128 OA 
HETATM   11  O   UNL     1      -9.251  12.894  68.082  1.00  0.00    -0.204 OA 
HETATM   12  O   UNL     1      -8.225  10.623  67.742  1.00  0.00    -0.110 OA 
ENDROOT
BRANCH   4  13
HETATM   13  C   UNL     1      -8.738   9.280  63.914  1.00  0.00    -0.168 C  
BRANCH  13  14
HETATM   14  O   UNL     1      -7.982   9.608  62.732  1.00  0.00    -0.117 OA 
BRANCH  14  15
HETATM   15  C   UNL     1      -6.655   9.786  62.885  1.00  0.00    -0.111 C  
HETATM   16  O   UNL     1      -5.861   8.990  63.361  1.00  0.00    -0.082 OA 
HETATM   17  N   UNL     1      -6.303  11.027  62.475  1.00  0.00    -0.365 N  
HETATM   18  H2  UNL     1      -6.948  11.725  62.104  1.00  0.00     0.000 HD 
HETATM   19  H1  UNL     1      -5.299  11.162  62.591  1.00  0.00     0.000 HD 
ENDBRANCH  14  15
ENDBRANCH  13  14
ENDBRANCH   4  13
BRANCH   5  20
HETATM   20  N   UNL     1      -9.461  15.174  65.938  1.00  0.00    -0.394 N  
HETATM   21  H   UNL     1      -8.740  14.846  65.296  1.00  0.00     0.000 HD 
HETATM   22  C   UNL     1      -9.240  16.503  66.346  1.00  0.00    -0.295 C  
HETATM   23  O   UNL     1      -8.310  17.113  65.842  1.00  0.00    -0.527 OA 
BRANCH  22  24
HETATM   24  C   UNL     1      -9.977  17.139  67.513  1.00  0.00    -0.279 C  
BRANCH  24  25
HETATM   25  C   UNL     1     -10.565  16.295  68.546  1.00  0.00    -0.294 A  
HETATM   26  O   UNL     1     -11.910  16.040  68.597  1.00  0.00    -0.367 OA 
HETATM   27  C   UNL     1      -9.989  15.861  69.735  1.00  0.00    -0.211 A  
HETATM   28  C   UNL     1     -12.184  15.566  69.846  1.00  0.00    -0.325 A  
HETATM   29  C   UNL     1     -11.034  15.450  70.589  1.00  0.00    -0.350 A  
ENDBRANCH  24  25
BRANCH  24  30
HETATM   30  N   UNL     1     -10.327  18.387  67.618  1.00  0.00    -0.386 NA 
HETATM   31  H   UNL     1     -10.046  18.881  68.464  1.00  0.00     0.000 HD 
BRANCH  30  32
HETATM   32  O   UNL     1     -11.052  19.104  66.670  1.00  0.00    -0.216 OA 
HETATM   33  C   UNL     1     -10.408  19.908  65.710  1.00  0.00    -0.410 C  
ENDBRANCH  30  32
ENDBRANCH  24  30
ENDBRANCH  22  24
ENDBRANCH   5  20
TORSDOF 8
ENDMDL
MODEL      106
REMARK 921   NORMALIZED FREE ENERGY PREDICTED BY IDOCK:   -5.06 KCAL/MOL
REMARK 922        TOTAL FREE ENERGY PREDICTED BY IDOCK:   -8.83 KCAL/MOL
REMARK 923 INTER-LIGAND FREE ENERGY PREDICTED BY IDOCK:   -6.81 KCAL/MOL
REMARK 924 INTRA-LIGAND FREE ENERGY PREDICTED BY IDOCK:   -2.02 KCAL/MOL
REMARK 927      BINDING AFFINITY PREDICTED BY RF-SCORE:    0.00 PKD
ROOT
HETATM    1  C   UNL     1      -7.808  12.372  68.081  1.00  0.00    -0.146 C  
HETATM    2  S   UNL     1      -9.183  13.436  67.736  1.00  0.00    -0.222 SA 
HETATM    3  C   UNL     1     -10.601  12.537  68.425  1.00  0.00    -0.242 C  
HETATM    4  C   UNL     1     -10.365  11.249  69.162  1.00  0.00    -0.156 C  
HETATM    5  CA  UNL     1      -6.770  11.656  67.094  1.00  0.00    -0.142 C  
HETATM    6  CA  UNL     1      -9.185  10.614  69.285  1.00  0.00    -0.104 C  
HETATM    7  C   UNL     1      -6.933  10.509  68.130  1.00  0.00    -0.073 C  
HETATM    8  C   UNL     1      -9.084   9.375  70.129  1.00  0.00    -0.231 C  
HETATM    9  N   UNL     1      -8.071  11.060  68.599  1.00  0.00    -0.142 N  
HETATM   10  OXT UNL     1      -9.714   9.264  71.170  1.00  0.00    -0.283 OA 
HETATM   11  O   UNL     1      -6.440   9.437  68.315  1.00  0.00    -0.053 OA 
HETATM   12  O   UNL     1      -8.256   8.404  69.714  1.00  0.00    -0.114 OA 
ENDROOT
BRANCH   4  13
HETATM   13  C   UNL     1     -11.681  10.637  69.653  1.00  0.00    -0.296 C  
BRANCH  13  14
HETATM   14  O   UNL     1     -12.348  11.470  70.621  1.00  0.00    -0.361 OA 
BRANCH  14  15
HETATM   15  C   UNL     1     -12.954  10.846  71.650  1.00  0.00    -0.464 C  
HETATM   16  O   UNL     1     -12.986   9.643  71.858  1.00  0.00    -0.375 OA 
HETATM   17  N   UNL     1     -13.592  11.749  72.431  1.00  0.00    -0.449 N  
HETATM   18  H2  UNL     1     -13.612  12.755  72.264  1.00  0.00     0.000 HD 
HETATM   19  H1  UNL     1     -14.051  11.276  73.210  1.00  0.00     0.000 HD 
ENDBRANCH  14  15
ENDBRANCH  13  14
ENDBRANCH   4  13
BRANCH   5  20
HETATM   20  N   UNL     1      -6.843  11.098  65.685  1.00  0.00    -0.367 N  
HETATM   21  H   UNL     1      -6.044  11.385  65.119  1.00  0.00     0.000 HD 
HETATM   22  C   UNL     1      -7.736  10.285  64.964  1.00  0.00    -0.129 C  
HETATM   23  O   UNL     1      -7.428   9.955  63.829  1.00  0.00    -0.128 OA 
BRANCH  22  24
HETATM   24  C   UNL     1      -9.138   9.965  65.455  1.00  0.00    -0.196 C  
BRANCH  24  25
HETATM   25  C   UNL     1      -9.384   8.730  66.191  1.00  0.00    -0.234 A  
HETATM   26  O   UNL     1      -8.541   7.653  66.106  1.00  0.00    -0.134 OA 
HETATM   27  C   UNL     1     -10.552   8.326  66.829  1.00  0.00    -0.226 A  
HETATM   28  C   UNL     1      -9.222   6.569  66.576  1.00  0.00    -0.157 A  
HETATM   29  C   UNL     1     -10.471   6.930  67.021  1.00  0.00    -0.374 A  
ENDBRANCH  24  25
BRANCH  24  30
HETATM   30  N   UNL     1     -10.232  10.587  65.129  1.00  0.00    -0.306 NA 
HETATM   31  H   UNL     1     -11.036  10.474  65.745  1.00  0.00     0.000 HD 
BRANCH  30  32
HETATM   32  O   UNL     1     -10.396  11.396  64.007  1.00  0.00    -0.297 OA 
HETATM   33  C   UNL     1     -10.845  12.726  64.124  1.00  0.00    -0.406 C  
ENDBRANCH  30  32
ENDBRANCH  24  30
ENDBRANCH  22  24
ENDBRANCH   5  20
TORSDOF 8
ENDMDL
MODEL      107
REMARK 921   NORMALIZED FREE ENERGY PREDICTED BY IDOCK:   -5.06 KCAL/MOL
REMARK 922        TOTAL FREE ENERGY PREDICTED BY IDOCK:   -8.83 KCAL/MOL
REMARK 923 INTER-LIGAND FREE ENERGY PREDICTED BY IDOCK:   -7.34 KCAL/MOL
REMARK 924 INTRA-LIGAND FREE ENERGY PREDICTED BY IDOCK:   -1.49 KCAL/MOL
REMARK 927      BINDING AFFINITY PREDICTED BY RF-SCORE:    0.00 PKD
ROOT
HETATM    1  C   UNL     1     -10.390  13.035  66.276  1.00  0.00    -0.285 C  
HETATM    2  S   UNL     1     -11.484  14.284  65.654  1.00  0.00    -0.336 SA 
HETATM    3  C   UNL     1     -10.620  15.834  66.032  1.00  0.00    -0.326 C  
HETATM    4  C   UNL     1      -9.250  15.780  66.645  1.00  0.00    -0.283 C  
HETATM    5  CA  UNL     1     -10.617  11.915  67.399  1.00  0.00    -0.225 C  
HETATM    6  CA  UNL     1      -8.610  14.668  67.054  1.00  0.00    -0.224 C  
HETATM    7  C   UNL     1      -9.147  12.288  67.737  1.00  0.00    -0.191 C  
HETATM    8  C   UNL     1      -7.203  14.759  67.571  1.00  0.00    -0.197 C  
HETATM    9  N   UNL     1      -9.255  13.445  67.053  1.00  0.00    -0.235 N  
HETATM   10  OXT UNL     1      -6.396  15.532  67.077  1.00  0.00    -0.287 OA 
HETATM   11  O   UNL     1      -8.306  11.890  68.487  1.00  0.00    -0.156 OA 
HETATM   12  O   UNL     1      -6.853  13.942  68.575  1.00  0.00    -0.083 OA 
ENDROOT
BRANCH   4  13
HETATM   13  C   UNL     1      -8.697  17.185  66.902  1.00  0.00    -0.232 C  
BRANCH  13  14
HETATM   14  O   UNL     1      -8.339  17.867  65.683  1.00  0.00    -0.434 OA 
BRANCH  14  15
HETATM   15  C   UNL     1      -7.366  18.795  65.765  1.00  0.00    -0.164 C  
HETATM   16  O   UNL     1      -7.514  20.004  65.852  1.00  0.00    -0.311 OA 
HETATM   17  N   UNL     1      -6.151  18.202  65.683  1.00  0.00    -0.231 N  
HETATM   18  H2  UNL     1      -5.996  17.200  65.576  1.00  0.00     0.000 HD 
HETATM   19  H1  UNL     1      -5.414  18.905  65.745  1.00  0.00     0.000 HD 
ENDBRANCH  14  15
ENDBRANCH  13  14
ENDBRANCH   4  13
BRANCH   5  20
HETATM   20  N   UNL     1     -11.436  11.826  68.672  1.00  0.00    -0.261 N  
HETATM   21  H   UNL     1     -12.050  12.632  68.788  1.00  0.00     0.000 HD 
HETATM   22  C   UNL     1     -11.562  10.909  69.732  1.00  0.00    -0.322 C  
HETATM   23  O   UNL     1     -12.412  11.125  70.583  1.00  0.00    -0.335 OA 
BRANCH  22  24
HETATM   24  C   UNL     1     -10.569   9.783  69.970  1.00  0.00    -0.276 C  
BRANCH  24  25
HETATM   25  C   UNL     1     -10.900   8.425  69.554  1.00  0.00    -0.117 A  
HETATM   26  O   UNL     1     -11.411   7.502  70.428  1.00  0.00    -0.275 OA 
HETATM   27  C   UNL     1     -10.532   7.769  68.385  1.00  0.00    -0.207 A  
HETATM   28  C   UNL     1     -11.250   6.274  69.857  1.00  0.00    -0.429 A  
HETATM   29  C   UNL     1     -10.701   6.385  68.602  1.00  0.00    -0.341 A  
ENDBRANCH  24  25
BRANCH  24  30
HETATM   30  N   UNL     1      -9.492   9.843  70.695  1.00  0.00    -0.301 NA 
HETATM   31  H   UNL     1      -9.417  10.613  71.358  1.00  0.00     0.000 HD 
BRANCH  30  32
HETATM   32  O   UNL     1      -8.432   8.941  70.642  1.00  0.00    -0.146 OA 
HETATM   33  C   UNL     1      -7.926   8.338  71.809  1.00  0.00    -0.128 C  
ENDBRANCH  30  32
ENDBRANCH  24  30
ENDBRANCH  22  24
ENDBRANCH   5  20
TORSDOF 8
ENDMDL
MODEL      108
REMARK 921   NORMALIZED FREE ENERGY PREDICTED BY IDOCK:   -5.06 KCAL/MOL
REMARK 922        TOTAL FREE ENERGY PREDICTED BY IDOCK:   -8.82 KCAL/MOL
REMARK 923 INTER-LIGAND FREE ENERGY PREDICTED BY IDOCK:   -7.57 KCAL/MOL
REMARK 924 INTRA-LIGAND FREE ENERGY PREDICTED BY IDOCK:   -1.25 KCAL/MOL
REMARK 927      BINDING AFFINITY PREDICTED BY RF-SCORE:    0.00 PKD
ROOT
HETATM    1  C   UNL     1      -8.494  10.546  68.581  1.00  0.00    -0.138 C  
HETATM    2  S   UNL     1      -8.084  10.994  66.915  1.00  0.00    -0.147 SA 
HETATM    3  C   UNL     1      -9.491  12.011  66.388  1.00  0.00    -0.231 C  
HETATM    4  C   UNL     1     -10.576  12.331  67.377  1.00  0.00    -0.247 C  
HETATM    5  CA  UNL     1      -8.713   9.107  69.250  1.00  0.00    -0.139 C  
HETATM    6  CA  UNL     1     -10.673  11.845  68.629  1.00  0.00    -0.235 C  
HETATM    7  C   UNL     1      -9.836   9.883  69.994  1.00  0.00    -0.243 C  
HETATM    8  C   UNL     1     -11.771  12.323  69.536  1.00  0.00    -0.332 C  
HETATM    9  N   UNL     1      -9.804  10.866  69.073  1.00  0.00    -0.202 N  
HETATM   10  OXT UNL     1     -12.139  13.488  69.525  1.00  0.00    -0.316 OA 
HETATM   11  O   UNL     1     -10.614   9.646  70.870  1.00  0.00    -0.304 OA 
HETATM   12  O   UNL     1     -12.314  11.434  70.381  1.00  0.00    -0.324 OA 
ENDROOT
BRANCH   4  13
HETATM   13  C   UNL     1     -11.678  13.184  66.741  1.00  0.00    -0.385 C  
BRANCH  13  14
HETATM   14  O   UNL     1     -11.426  13.460  65.349  1.00  0.00    -0.298 OA 
BRANCH  14  15
HETATM   15  C   UNL     1     -12.460  13.309  64.499  1.00  0.00    -0.319 C  
HETATM   16  O   UNL     1     -13.379  12.512  64.600  1.00  0.00    -0.804 OA 
HETATM   17  N   UNL     1     -12.323  14.150  63.447  1.00  0.00    -1.144 N  
HETATM   18  H2  UNL     1     -11.550  14.803  63.317  1.00  0.00     0.000 HD 
HETATM   19  H1  UNL     1     -13.106  14.036  62.803  1.00  0.00     0.000 HD 
ENDBRANCH  14  15
ENDBRANCH  13  14
ENDBRANCH   4  13
BRANCH   5  20
HETATM   20  N   UNL     1      -9.239   7.770  68.765  1.00  0.00    -0.140 N  
HETATM   21  H   UNL     1      -9.778   7.861  67.905  1.00  0.00     0.000 HD 
HETATM   22  C   UNL     1      -9.169   6.435  69.206  1.00  0.00    -0.135 C  
HETATM   23  O   UNL     1      -9.659   5.568  68.498  1.00  0.00    -0.117 OA 
BRANCH  22  24
HETATM   24  C   UNL     1      -8.692   6.050  70.596  1.00  0.00    -0.138 C  
BRANCH  24  25
HETATM   25  C   UNL     1      -9.616   6.112  71.723  1.00  0.00    -0.150 A  
HETATM   26  O   UNL     1     -10.920   5.708  71.615  1.00  0.00    -0.253 OA 
HETATM   27  C   UNL     1      -9.465   6.795  72.924  1.00  0.00    -0.156 A  
HETATM   28  C   UNL     1     -11.595   6.235  72.676  1.00  0.00    -0.175 A  
HETATM   29  C   UNL     1     -10.744   6.925  73.505  1.00  0.00    -0.342 A  
ENDBRANCH  24  25
BRANCH  24  30
HETATM   30  N   UNL     1      -7.461   5.842  70.961  1.00  0.00    -0.088 NA 
HETATM   31  H   UNL     1      -7.196   4.883  71.184  1.00  0.00     0.000 HD 
BRANCH  30  32
HETATM   32  O   UNL     1      -6.476   6.819  71.073  1.00  0.00    -0.046 OA 
HETATM   33  C   UNL     1      -5.385   6.863  70.183  1.00  0.00    -0.019 C  
ENDBRANCH  30  32
ENDBRANCH  24  30
ENDBRANCH  22  24
ENDBRANCH   5  20
TORSDOF 8
ENDMDL
MODEL      109
REMARK 921   NORMALIZED FREE ENERGY PREDICTED BY IDOCK:   -5.05 KCAL/MOL
REMARK 922        TOTAL FREE ENERGY PREDICTED BY IDOCK:   -8.80 KCAL/MOL
REMARK 923 INTER-LIGAND FREE ENERGY PREDICTED BY IDOCK:   -8.06 KCAL/MOL
REMARK 924 INTRA-LIGAND FREE ENERGY PREDICTED BY IDOCK:   -0.74 KCAL/MOL
REMARK 927      BINDING AFFINITY PREDICTED BY RF-SCORE:    0.00 PKD
ROOT
HETATM    1  C   UNL     1     -10.816  12.438  67.946  1.00  0.00    -0.222 C  
HETATM    2  S   UNL     1      -9.760  11.159  67.319  1.00  0.00    -0.166 SA 
HETATM    3  C   UNL     1      -9.988   9.800  68.499  1.00  0.00    -0.160 C  
HETATM    4  C   UNL     1     -10.987   9.953  69.610  1.00  0.00    -0.285 C  
HETATM    5  CA  UNL     1     -10.475  13.922  68.443  1.00  0.00    -0.247 C  
HETATM    6  CA  UNL     1     -11.686  11.068  69.897  1.00  0.00    -0.346 C  
HETATM    7  C   UNL     1     -11.559  13.567  69.499  1.00  0.00    -0.294 C  
HETATM    8  C   UNL     1     -12.718  11.047  70.988  1.00  0.00    -0.386 C  
HETATM    9  N   UNL     1     -11.426  12.252  69.232  1.00  0.00    -0.281 N  
HETATM   10  OXT UNL     1     -13.425  10.068  71.172  1.00  0.00    -0.357 OA 
HETATM   11  O   UNL     1     -12.124  14.140  70.382  1.00  0.00    -0.303 OA 
HETATM   12  O   UNL     1     -12.857  12.152  71.737  1.00  0.00    -0.339 OA 
ENDROOT
BRANCH   4  13
HETATM   13  C   UNL     1     -11.023   8.711  70.505  1.00  0.00    -0.238 C  
BRANCH  13  14
HETATM   14  O   UNL     1     -10.092   8.796  71.602  1.00  0.00    -0.261 OA 
BRANCH  14  15
HETATM   15  C   UNL     1     -10.457   8.211  72.760  1.00  0.00    -0.315 C  
HETATM   16  O   UNL     1     -11.594   8.081  73.187  1.00  0.00    -0.289 OA 
HETATM   17  N   UNL     1      -9.359   7.813  73.446  1.00  0.00    -0.265 N  
HETATM   18  H2  UNL     1      -8.397   7.938  73.131  1.00  0.00     0.000 HD 
HETATM   19  H1  UNL     1      -9.636   7.371  74.322  1.00  0.00     0.000 HD 
ENDBRANCH  14  15
ENDBRANCH  13  14
ENDBRANCH   4  13
BRANCH   5  20
HETATM   20  N   UNL     1      -9.286  14.578  69.118  1.00  0.00    -0.394 N  
HETATM   21  H   UNL     1      -8.911  14.004  69.873  1.00  0.00     0.000 HD 
HETATM   22  C   UNL     1      -8.571  15.780  68.964  1.00  0.00    -0.236 C  
HETATM   23  O   UNL     1      -7.579  15.953  69.655  1.00  0.00    -0.184 OA 
BRANCH  22  24
HETATM   24  C   UNL     1      -9.084  16.942  68.130  1.00  0.00    -0.231 C  
BRANCH  24  25
HETATM   25  C   UNL     1      -8.160  17.693  67.287  1.00  0.00    -0.209 A  
HETATM   26  O   UNL     1      -8.053  17.460  65.941  1.00  0.00    -0.537 OA 
HETATM   27  C   UNL     1      -7.102  18.505  67.680  1.00  0.00    -0.215 A  
HETATM   28  C   UNL     1      -6.880  18.020  65.528  1.00  0.00    -0.059 A  
HETATM   29  C   UNL     1      -6.251  18.664  66.565  1.00  0.00    -0.195 A  
ENDBRANCH  24  25
BRANCH  24  30
HETATM   30  N   UNL     1     -10.257  17.497  68.215  1.00  0.00    -0.343 NA 
HETATM   31  H   UNL     1     -11.060  16.878  68.319  1.00  0.00     0.000 HD 
BRANCH  30  32
HETATM   32  O   UNL     1     -10.507  18.866  68.177  1.00  0.00    -0.374 OA 
HETATM   33  C   UNL     1     -11.019  19.484  67.020  1.00  0.00    -0.330 C  
ENDBRANCH  30  32
ENDBRANCH  24  30
ENDBRANCH  22  24
ENDBRANCH   5  20
TORSDOF 8
ENDMDL
MODEL      110
REMARK 921   NORMALIZED FREE ENERGY PREDICTED BY IDOCK:   -5.04 KCAL/MOL
REMARK 922        TOTAL FREE ENERGY PREDICTED BY IDOCK:   -8.80 KCAL/MOL
REMARK 923 INTER-LIGAND FREE ENERGY PREDICTED BY IDOCK:   -7.64 KCAL/MOL
REMARK 924 INTRA-LIGAND FREE ENERGY PREDICTED BY IDOCK:   -1.16 KCAL/MOL
REMARK 927      BINDING AFFINITY PREDICTED BY RF-SCORE:    0.00 PKD
ROOT
HETATM    1  C   UNL     1      -9.221  11.959  68.696  1.00  0.00    -0.061 C  
HETATM    2  S   UNL     1     -10.957  11.978  69.055  1.00  0.00    -0.180 SA 
HETATM    3  C   UNL     1     -11.223  10.429  69.961  1.00  0.00    -0.316 C  
HETATM    4  C   UNL     1     -10.043   9.558  70.288  1.00  0.00    -0.314 C  
HETATM    5  CA  UNL     1      -8.446  11.980  67.294  1.00  0.00    -0.175 C  
HETATM    6  CA  UNL     1      -8.775   9.759  69.879  1.00  0.00    -0.217 C  
HETATM    7  C   UNL     1      -7.520  10.992  68.057  1.00  0.00    -0.090 C  
HETATM    8  C   UNL     1      -7.680   8.849  70.358  1.00  0.00    -0.098 C  
HETATM    9  N   UNL     1      -8.478  10.764  68.978  1.00  0.00    -0.152 N  
HETATM   10  OXT UNL     1      -7.674   8.412  71.499  1.00  0.00    -0.085 OA 
HETATM   11  O   UNL     1      -6.487  10.433  67.837  1.00  0.00    -0.060 OA 
HETATM   12  O   UNL     1      -6.693   8.556  69.499  1.00  0.00    -0.040 OA 
ENDROOT
BRANCH   4  13
HETATM   13  C   UNL     1     -10.472   8.294  71.038  1.00  0.00    -0.202 C  
BRANCH  13  14
HETATM   14  O   UNL     1     -11.774   7.829  70.634  1.00  0.00    -0.266 OA 
BRANCH  14  15
HETATM   15  C   UNL     1     -12.673   7.602  71.611  1.00  0.00    -0.343 C  
HETATM   16  O   UNL     1     -13.875   7.435  71.474  1.00  0.00    -0.390 OA 
HETATM   17  N   UNL     1     -12.064   7.633  72.820  1.00  0.00    -0.588 N  
HETATM   18  H2  UNL     1     -11.069   7.803  72.968  1.00  0.00     0.000 HD 
HETATM   19  H1  UNL     1     -12.745   7.461  73.559  1.00  0.00     0.000 HD 
ENDBRANCH  14  15
ENDBRANCH  13  14
ENDBRANCH   4  13
BRANCH   5  20
HETATM   20  N   UNL     1      -8.736  11.452  65.902  1.00  0.00    -0.332 N  
HETATM   21  H   UNL     1      -7.977  10.870  65.549  1.00  0.00     0.000 HD 
HETATM   22  C   UNL     1      -9.790  11.565  64.976  1.00  0.00    -0.257 C  
HETATM   23  O   UNL     1      -9.722  10.914  63.945  1.00  0.00    -0.248 OA 
BRANCH  22  24
HETATM   24  C   UNL     1     -10.897  12.596  65.111  1.00  0.00    -0.290 C  
BRANCH  24  25
HETATM   25  C   UNL     1     -10.578  14.017  65.035  1.00  0.00    -0.410 A  
HETATM   26  O   UNL     1      -9.589  14.581  65.798  1.00  0.00    -0.289 OA 
HETATM   27  C   UNL     1     -11.324  15.038  64.457  1.00  0.00    -0.294 A  
HETATM   28  C   UNL     1      -9.793  15.930  65.789  1.00  0.00    -0.345 A  
HETATM   29  C   UNL     1     -10.858  16.260  64.987  1.00  0.00    -0.337 A  
ENDBRANCH  24  25
BRANCH  24  30
HETATM   30  N   UNL     1     -12.121  12.371  65.487  1.00  0.00    -0.559 NA 
HETATM   31  H   UNL     1     -12.306  12.353  66.490  1.00  0.00     0.000 HD 
BRANCH  30  32
HETATM   32  O   UNL     1     -13.200  12.152  64.635  1.00  0.00    -0.659 OA 
HETATM   33  C   UNL     1     -13.013  11.973  63.250  1.00  0.00    -0.040 C  
ENDBRANCH  30  32
ENDBRANCH  24  30
ENDBRANCH  22  24
ENDBRANCH   5  20
TORSDOF 8
ENDMDL
MODEL      111
REMARK 921   NORMALIZED FREE ENERGY PREDICTED BY IDOCK:   -5.04 KCAL/MOL
REMARK 922        TOTAL FREE ENERGY PREDICTED BY IDOCK:   -8.79 KCAL/MOL
REMARK 923 INTER-LIGAND FREE ENERGY PREDICTED BY IDOCK:   -7.87 KCAL/MOL
REMARK 924 INTRA-LIGAND FREE ENERGY PREDICTED BY IDOCK:   -0.92 KCAL/MOL
REMARK 927      BINDING AFFINITY PREDICTED BY RF-SCORE:    0.00 PKD
ROOT
HETATM    1  C   UNL     1      -8.771  11.023  66.989  1.00  0.00    -0.141 C  
HETATM    2  S   UNL     1      -9.243  11.307  68.674  1.00  0.00    -0.124 SA 
HETATM    3  C   UNL     1      -9.506   9.635  69.330  1.00  0.00    -0.192 C  
HETATM    4  C   UNL     1      -9.215   8.449  68.455  1.00  0.00    -0.135 C  
HETATM    5  CA  UNL     1      -9.455  11.496  65.620  1.00  0.00    -0.222 C  
HETATM    6  CA  UNL     1      -8.865   8.493  67.156  1.00  0.00    -0.129 C  
HETATM    7  C   UNL     1      -9.017  10.071  65.180  1.00  0.00    -0.192 C  
HETATM    8  C   UNL     1      -8.520   7.224  66.429  1.00  0.00    -0.129 C  
HETATM    9  N   UNL     1      -8.871   9.690  66.465  1.00  0.00    -0.140 N  
HETATM   10  OXT UNL     1      -7.909   6.323  66.983  1.00  0.00    -0.102 OA 
HETATM   11  O   UNL     1      -9.027   9.440  64.166  1.00  0.00    -0.214 OA 
HETATM   12  O   UNL     1      -8.881   7.126  65.140  1.00  0.00     0.065 OA 
ENDROOT
BRANCH   4  13
HETATM   13  C   UNL     1      -9.512   7.134  69.180  1.00  0.00    -0.147 C  
BRANCH  13  14
HETATM   14  O   UNL     1     -10.916   6.806  69.175  1.00  0.00    -0.249 OA 
BRANCH  14  15
HETATM   15  C   UNL     1     -11.461   6.434  70.349  1.00  0.00    -0.393 C  
HETATM   16  O   UNL     1     -10.969   5.686  71.179  1.00  0.00    -0.246 OA 
HETATM   17  N   UNL     1     -12.697   6.974  70.480  1.00  0.00    -0.559 N  
HETATM   18  H2  UNL     1     -13.148   7.574  69.790  1.00  0.00     0.000 HD 
HETATM   19  H1  UNL     1     -13.109   6.691  71.369  1.00  0.00     0.000 HD 
ENDBRANCH  14  15
ENDBRANCH  13  14
ENDBRANCH   4  13
BRANCH   5  20
HETATM   20  N   UNL     1     -10.880  11.762  65.172  1.00  0.00    -0.292 N  
HETATM   21  H   UNL     1     -11.212  11.057  64.515  1.00  0.00     0.000 HD 
HETATM   22  C   UNL     1     -11.858  12.739  65.436  1.00  0.00    -0.415 C  
HETATM   23  O   UNL     1     -12.967  12.592  64.945  1.00  0.00    -0.830 OA 
BRANCH  22  24
HETATM   24  C   UNL     1     -11.543  14.053  66.133  1.00  0.00    -0.367 C  
BRANCH  24  25
HETATM   25  C   UNL     1     -11.891  14.229  67.538  1.00  0.00    -0.395 A  
HETATM   26  O   UNL     1     -11.897  15.462  68.136  1.00  0.00    -0.320 OA 
HETATM   27  C   UNL     1     -11.991  13.259  68.529  1.00  0.00    -0.340 A  
HETATM   28  C   UNL     1     -11.879  15.257  69.484  1.00  0.00    -0.345 A  
HETATM   29  C   UNL     1     -11.923  13.915  69.777  1.00  0.00    -0.398 A  
ENDBRANCH  24  25
BRANCH  24  30
HETATM   30  N   UNL     1     -11.154  15.155  65.565  1.00  0.00    -0.345 NA 
HETATM   31  H   UNL     1     -11.859  15.702  65.073  1.00  0.00     0.000 HD 
BRANCH  30  32
HETATM   32  O   UNL     1      -9.852  15.651  65.572  1.00  0.00    -0.328 OA 
HETATM   33  C   UNL     1      -8.877  15.132  66.446  1.00  0.00    -0.242 C  
ENDBRANCH  30  32
ENDBRANCH  24  30
ENDBRANCH  22  24
ENDBRANCH   5  20
TORSDOF 8
ENDMDL
MODEL      112
REMARK 921   NORMALIZED FREE ENERGY PREDICTED BY IDOCK:   -5.02 KCAL/MOL
REMARK 922        TOTAL FREE ENERGY PREDICTED BY IDOCK:   -8.77 KCAL/MOL
REMARK 923 INTER-LIGAND FREE ENERGY PREDICTED BY IDOCK:   -7.40 KCAL/MOL
REMARK 924 INTRA-LIGAND FREE ENERGY PREDICTED BY IDOCK:   -1.36 KCAL/MOL
REMARK 927      BINDING AFFINITY PREDICTED BY RF-SCORE:    0.00 PKD
ROOT
HETATM    1  C   UNL     1      -9.282  11.263  66.770  1.00  0.00    -0.175 C  
HETATM    2  S   UNL     1     -11.022  10.986  66.962  1.00  0.00    -0.238 SA 
HETATM    3  C   UNL     1     -11.693  12.651  67.223  1.00  0.00    -0.370 C  
HETATM    4  C   UNL     1     -10.771  13.835  67.143  1.00  0.00    -0.283 C  
HETATM    5  CA  UNL     1      -8.039  10.724  67.625  1.00  0.00    -0.114 C  
HETATM    6  CA  UNL     1      -9.434  13.786  66.992  1.00  0.00    -0.255 C  
HETATM    7  C   UNL     1      -7.522  12.163  67.346  1.00  0.00    -0.156 C  
HETATM    8  C   UNL     1      -8.650  15.058  66.841  1.00  0.00    -0.249 C  
HETATM    9  N   UNL     1      -8.766  12.577  67.030  1.00  0.00    -0.205 N  
HETATM   10  OXT UNL     1      -9.094  16.005  66.209  1.00  0.00    -0.284 OA 
HETATM   11  O   UNL     1      -6.515  12.772  67.550  1.00  0.00    -0.141 OA 
HETATM   12  O   UNL     1      -7.431  15.110  67.399  1.00  0.00    -0.182 OA 
ENDROOT
BRANCH   4  13
HETATM   13  C   UNL     1     -11.520  15.145  67.405  1.00  0.00    -0.277 C  
BRANCH  13  14
HETATM   14  O   UNL     1     -11.951  15.267  68.775  1.00  0.00    -0.321 OA 
BRANCH  14  15
HETATM   15  C   UNL     1     -11.089  15.840  69.638  1.00  0.00    -0.307 C  
HETATM   16  O   UNL     1     -10.460  16.873  69.466  1.00  0.00    -0.303 OA 
HETATM   17  N   UNL     1     -10.961  15.072  70.746  1.00  0.00    -0.520 N  
HETATM   18  H2  UNL     1     -11.447  14.189  70.904  1.00  0.00     0.000 HD 
HETATM   19  H1  UNL     1     -10.309  15.506  71.399  1.00  0.00     0.000 HD 
ENDBRANCH  14  15
ENDBRANCH  13  14
ENDBRANCH   4  13
BRANCH   5  20
HETATM   20  N   UNL     1      -7.818  10.365  69.082  1.00  0.00    -0.122 N  
HETATM   21  H   UNL     1      -6.988  10.818  69.465  1.00  0.00     0.000 HD 
HETATM   22  C   UNL     1      -8.470   9.564  70.037  1.00  0.00    -0.195 C  
HETATM   23  O   UNL     1      -8.044   9.571  71.182  1.00  0.00    -0.308 OA 
BRANCH  22  24
HETATM   24  C   UNL     1      -9.544   8.553  69.670  1.00  0.00    -0.170 C  
BRANCH  24  25
HETATM   25  C   UNL     1     -10.674   8.338  70.565  1.00  0.00    -0.225 A  
HETATM   26  O   UNL     1     -11.704   9.236  70.663  1.00  0.00    -0.268 OA 
HETATM   27  C   UNL     1     -10.785   7.425  71.608  1.00  0.00    -0.239 A  
HETATM   28  C   UNL     1     -12.374   8.956  71.818  1.00  0.00    -0.357 A  
HETATM   29  C   UNL     1     -11.838   7.857  72.443  1.00  0.00    -0.402 A  
ENDBRANCH  24  25
BRANCH  24  30
HETATM   30  N   UNL     1      -9.487   7.682  68.706  1.00  0.00    -0.151 NA 
HETATM   31  H   UNL     1      -8.642   7.669  68.136  1.00  0.00     0.000 HD 
BRANCH  30  32
HETATM   32  O   UNL     1     -10.486   6.765  68.388  1.00  0.00    -0.178 OA 
HETATM   33  C   UNL     1     -11.012   6.679  67.085  1.00  0.00    -0.408 C  
ENDBRANCH  30  32
ENDBRANCH  24  30
ENDBRANCH  22  24
ENDBRANCH   5  20
TORSDOF 8
ENDMDL
MODEL      113
REMARK 921   NORMALIZED FREE ENERGY PREDICTED BY IDOCK:   -5.00 KCAL/MOL
REMARK 922        TOTAL FREE ENERGY PREDICTED BY IDOCK:   -8.73 KCAL/MOL
REMARK 923 INTER-LIGAND FREE ENERGY PREDICTED BY IDOCK:   -7.68 KCAL/MOL
REMARK 924 INTRA-LIGAND FREE ENERGY PREDICTED BY IDOCK:   -1.06 KCAL/MOL
REMARK 927      BINDING AFFINITY PREDICTED BY RF-SCORE:    0.00 PKD
ROOT
HETATM    1  C   UNL     1      -9.071  10.592  68.617  1.00  0.00    -0.170 C  
HETATM    2  S   UNL     1     -10.117   9.865  69.850  1.00  0.00    -0.257 SA 
HETATM    3  C   UNL     1     -10.699   8.335  69.067  1.00  0.00    -0.079 C  
HETATM    4  C   UNL     1     -10.173   7.959  67.711  1.00  0.00    -0.276 C  
HETATM    5  CA  UNL     1      -9.171  12.002  67.864  1.00  0.00    -0.190 C  
HETATM    6  CA  UNL     1      -9.364   8.711  66.940  1.00  0.00    -0.170 C  
HETATM    7  C   UNL     1      -8.683  11.136  66.670  1.00  0.00    -0.166 C  
HETATM    8  C   UNL     1      -8.848   8.165  65.639  1.00  0.00    -0.120 C  
HETATM    9  N   UNL     1      -9.045  10.005  67.308  1.00  0.00    -0.138 N  
HETATM   10  OXT UNL     1      -8.538   6.989  65.524  1.00  0.00    -0.146 OA 
HETATM   11  O   UNL     1      -8.352  11.333  65.539  1.00  0.00    -0.028 OA 
HETATM   12  O   UNL     1      -8.710   9.021  64.615  1.00  0.00    -0.179 OA 
ENDROOT
BRANCH   4  13
HETATM   13  C   UNL     1     -10.792   6.649  67.215  1.00  0.00    -0.385 C  
BRANCH  13  14
HETATM   14  O   UNL     1     -10.065   5.490  67.669  1.00  0.00    -0.152 OA 
BRANCH  14  15
HETATM   15  C   UNL     1     -10.157   4.377  66.915  1.00  0.00    -0.120 C  
HETATM   16  O   UNL     1      -9.673   3.284  67.164  1.00  0.00    -0.127 OA 
HETATM   17  N   UNL     1     -10.837   4.643  65.775  1.00  0.00    -0.766 N  
HETATM   18  H2  UNL     1     -11.223   5.553  65.523  1.00  0.00     0.000 HD 
HETATM   19  H1  UNL     1     -10.906   3.800  65.204  1.00  0.00     0.000 HD 
ENDBRANCH  14  15
ENDBRANCH  13  14
ENDBRANCH   4  13
BRANCH   5  20
HETATM   20  N   UNL     1     -10.311  12.901  67.422  1.00  0.00    -0.232 N  
HETATM   21  H   UNL     1     -10.383  12.954  66.406  1.00  0.00     0.000 HD 
HETATM   22  C   UNL     1     -11.292  13.680  68.062  1.00  0.00    -0.285 C  
HETATM   23  O   UNL     1     -12.133  14.231  67.369  1.00  0.00    -0.400 OA 
BRANCH  22  24
HETATM   24  C   UNL     1     -11.236  14.021  69.542  1.00  0.00    -0.199 C  
BRANCH  24  25
HETATM   25  C   UNL     1     -12.260  13.507  70.444  1.00  0.00    -0.356 A  
HETATM   26  O   UNL     1     -12.989  14.331  71.261  1.00  0.00    -0.321 OA 
HETATM   27  C   UNL     1     -12.481  12.191  70.835  1.00  0.00    -0.374 A  
HETATM   28  C   UNL     1     -13.559  13.546  72.220  1.00  0.00    -0.592 A  
HETATM   29  C   UNL     1     -13.265  12.221  72.008  1.00  0.00    -0.508 A  
ENDBRANCH  24  25
BRANCH  24  30
HETATM   30  N   UNL     1     -10.464  14.904  70.103  1.00  0.00    -0.485 NA 
HETATM   31  H   UNL     1     -10.783  15.316  70.979  1.00  0.00     0.000 HD 
BRANCH  30  32
HETATM   32  O   UNL     1      -9.236  15.335  69.605  1.00  0.00    -0.230 OA 
HETATM   33  C   UNL     1      -9.105  16.580  68.961  1.00  0.00    -0.229 C  
ENDBRANCH  30  32
ENDBRANCH  24  30
ENDBRANCH  22  24
ENDBRANCH   5  20
TORSDOF 8
ENDMDL
MODEL      114
REMARK 921   NORMALIZED FREE ENERGY PREDICTED BY IDOCK:   -4.98 KCAL/MOL
REMARK 922        TOTAL FREE ENERGY PREDICTED BY IDOCK:   -8.70 KCAL/MOL
REMARK 923 INTER-LIGAND FREE ENERGY PREDICTED BY IDOCK:   -7.36 KCAL/MOL
REMARK 924 INTRA-LIGAND FREE ENERGY PREDICTED BY IDOCK:   -1.34 KCAL/MOL
REMARK 927      BINDING AFFINITY PREDICTED BY RF-SCORE:    0.00 PKD
ROOT
HETATM    1  C   UNL     1     -10.391  13.695  68.395  1.00  0.00    -0.248 C  
HETATM    2  S   UNL     1     -11.837  12.719  68.084  1.00  0.00    -0.270 SA 
HETATM    3  C   UNL     1     -11.197  11.288  67.171  1.00  0.00    -0.275 C  
HETATM    4  C   UNL     1      -9.717  11.157  66.955  1.00  0.00    -0.216 C  
HETATM    5  CA  UNL     1     -10.027  15.192  67.955  1.00  0.00    -0.221 C  
HETATM    6  CA  UNL     1      -8.786  12.071  67.289  1.00  0.00    -0.175 C  
HETATM    7  C   UNL     1      -8.622  14.551  67.780  1.00  0.00    -0.175 C  
HETATM    8  C   UNL     1      -7.329  11.765  67.089  1.00  0.00    -0.146 C  
HETATM    9  N   UNL     1      -9.159  13.314  67.764  1.00  0.00    -0.192 N  
HETATM   10  OXT UNL     1      -6.884  10.644  67.286  1.00  0.00    -0.075 OA 
HETATM   11  O   UNL     1      -7.524  14.938  67.512  1.00  0.00    -0.169 OA 
HETATM   12  O   UNL     1      -6.525  12.772  66.715  1.00  0.00     0.017 OA 
ENDROOT
BRANCH   4  13
HETATM   13  C   UNL     1      -9.377   9.896  66.155  1.00  0.00    -0.181 C  
BRANCH  13  14
HETATM   14  O   UNL     1      -9.891   9.943  64.809  1.00  0.00    -0.307 OA 
BRANCH  14  15
HETATM   15  C   UNL     1      -9.307  10.812  63.961  1.00  0.00    -0.252 C  
HETATM   16  O   UNL     1      -9.796  11.837  63.512  1.00  0.00    -0.350 OA 
HETATM   17  N   UNL     1      -8.077  10.365  63.613  1.00  0.00    -0.257 N  
HETATM   18  H2  UNL     1      -7.655   9.497  63.945  1.00  0.00     0.000 HD 
HETATM   19  H1  UNL     1      -7.634  11.022  62.971  1.00  0.00     0.000 HD 
ENDBRANCH  14  15
ENDBRANCH  13  14
ENDBRANCH   4  13
BRANCH   5  20
HETATM   20  N   UNL     1     -10.353  16.065  66.758  1.00  0.00    -0.295 N  
HETATM   21  H   UNL     1     -11.011  15.612  66.124  1.00  0.00     0.000 HD 
HETATM   22  C   UNL     1      -9.974  17.341  66.304  1.00  0.00    -0.300 C  
HETATM   23  O   UNL     1     -10.516  17.780  65.301  1.00  0.00    -0.605 OA 
BRANCH  22  24
HETATM   24  C   UNL     1      -8.796  18.106  66.884  1.00  0.00    -0.267 C  
BRANCH  24  25
HETATM   25  C   UNL     1      -7.830  18.735  65.991  1.00  0.00    -0.171 A  
HETATM   26  O   UNL     1      -6.865  18.012  65.340  1.00  0.00    -0.449 OA 
HETATM   27  C   UNL     1      -7.531  20.086  65.859  1.00  0.00    -0.321 A  
HETATM   28  C   UNL     1      -5.918  18.896  64.913  1.00  0.00    -0.282 A  
HETATM   29  C   UNL     1      -6.277  20.186  65.220  1.00  0.00    -0.284 A  
ENDBRANCH  24  25
BRANCH  24  30
HETATM   30  N   UNL     1      -8.418  18.116  68.127  1.00  0.00    -0.266 NA 
HETATM   31  H   UNL     1      -7.799  17.367  68.434  1.00  0.00     0.000 HD 
BRANCH  30  32
HETATM   32  O   UNL     1      -8.790  19.066  69.076  1.00  0.00    -0.291 OA 
HETATM   33  C   UNL     1      -9.919  19.886  68.886  1.00  0.00    -0.331 C  
ENDBRANCH  30  32
ENDBRANCH  24  30
ENDBRANCH  22  24
ENDBRANCH   5  20
TORSDOF 8
ENDMDL
MODEL      115
REMARK 921   NORMALIZED FREE ENERGY PREDICTED BY IDOCK:   -4.97 KCAL/MOL
REMARK 922        TOTAL FREE ENERGY PREDICTED BY IDOCK:   -8.69 KCAL/MOL
REMARK 923 INTER-LIGAND FREE ENERGY PREDICTED BY IDOCK:   -7.27 KCAL/MOL
REMARK 924 INTRA-LIGAND FREE ENERGY PREDICTED BY IDOCK:   -1.42 KCAL/MOL
REMARK 927      BINDING AFFINITY PREDICTED BY RF-SCORE:    0.00 PKD
ROOT
HETATM    1  C   UNL     1      -7.953  11.039  68.368  1.00  0.00    -0.131 C  
HETATM    2  S   UNL     1      -6.964  10.820  69.823  1.00  0.00    -0.110 SA 
HETATM    3  C   UNL     1      -7.326   9.116  70.331  1.00  0.00    -0.100 C  
HETATM    4  C   UNL     1      -8.218   8.267  69.471  1.00  0.00    -0.119 C  
HETATM    5  CA  UNL     1      -9.129  12.080  68.053  1.00  0.00    -0.188 C  
HETATM    6  CA  UNL     1      -8.886   8.680  68.377  1.00  0.00    -0.142 C  
HETATM    7  C   UNL     1      -9.724  10.834  67.340  1.00  0.00    -0.171 C  
HETATM    8  C   UNL     1      -9.676   7.694  67.564  1.00  0.00    -0.156 C  
HETATM    9  N   UNL     1      -8.897  10.016  68.022  1.00  0.00    -0.125 N  
HETATM   10  OXT UNL     1      -9.276   6.554  67.387  1.00  0.00    -0.121 OA 
HETATM   11  O   UNL     1     -10.679  10.603  66.659  1.00  0.00    -0.239 OA 
HETATM   12  O   UNL     1     -10.824   8.117  67.013  1.00  0.00    -0.265 OA 
ENDROOT
BRANCH   4  13
HETATM   13  C   UNL     1      -8.414   6.873  70.073  1.00  0.00    -0.140 C  
BRANCH  13  14
HETATM   14  O   UNL     1      -9.506   6.826  71.011  1.00  0.00    -0.164 OA 
BRANCH  14  15
HETATM   15  C   UNL     1     -10.606   6.143  70.636  1.00  0.00    -0.249 C  
HETATM   16  O   UNL     1     -10.656   4.973  70.287  1.00  0.00    -0.229 OA 
HETATM   17  N   UNL     1     -11.685   6.960  70.643  1.00  0.00    -0.363 N  
HETATM   18  H2  UNL     1     -11.669   7.948  70.896  1.00  0.00     0.000 HD 
HETATM   19  H1  UNL     1     -12.517   6.442  70.359  1.00  0.00     0.000 HD 
ENDBRANCH  14  15
ENDBRANCH  13  14
ENDBRANCH   4  13
BRANCH   5  20
HETATM   20  N   UNL     1     -10.199  12.767  68.879  1.00  0.00    -0.429 N  
HETATM   21  H   UNL     1     -10.494  12.198  69.672  1.00  0.00     0.000 HD 
HETATM   22  C   UNL     1     -10.887  13.994  68.825  1.00  0.00    -0.263 C  
HETATM   23  O   UNL     1     -11.655  14.264  69.736  1.00  0.00    -0.267 OA 
BRANCH  22  24
HETATM   24  C   UNL     1     -10.866  14.897  67.603  1.00  0.00    -0.286 C  
BRANCH  24  25
HETATM   25  C   UNL     1     -11.353  14.395  66.323  1.00  0.00    -0.350 A  
HETATM   26  O   UNL     1     -12.618  13.892  66.174  1.00  0.00    -0.452 OA 
HETATM   27  C   UNL     1     -10.618  14.084  65.185  1.00  0.00    -0.400 A  
HETATM   28  C   UNL     1     -12.633  13.176  65.013  1.00  0.00    -0.438 A  
HETATM   29  C   UNL     1     -11.420  13.253  64.374  1.00  0.00    -0.416 A  
ENDBRANCH  24  25
BRANCH  24  30
HETATM   30  N   UNL     1     -10.273  16.049  67.503  1.00  0.00    -0.268 NA 
HETATM   31  H   UNL     1      -9.260  16.045  67.389  1.00  0.00     0.000 HD 
BRANCH  30  32
HETATM   32  O   UNL     1     -10.906  17.289  67.541  1.00  0.00    -0.314 OA 
HETATM   33  C   UNL     1     -10.269  18.450  67.061  1.00  0.00    -0.379 C  
ENDBRANCH  30  32
ENDBRANCH  24  30
ENDBRANCH  22  24
ENDBRANCH   5  20
TORSDOF 8
ENDMDL
MODEL      116
REMARK 921   NORMALIZED FREE ENERGY PREDICTED BY IDOCK:   -4.96 KCAL/MOL
REMARK 922        TOTAL FREE ENERGY PREDICTED BY IDOCK:   -8.68 KCAL/MOL
REMARK 923 INTER-LIGAND FREE ENERGY PREDICTED BY IDOCK:   -6.93 KCAL/MOL
REMARK 924 INTRA-LIGAND FREE ENERGY PREDICTED BY IDOCK:   -1.76 KCAL/MOL
REMARK 927      BINDING AFFINITY PREDICTED BY RF-SCORE:    0.00 PKD
ROOT
HETATM    1  C   UNL     1      -7.548  11.375  68.616  1.00  0.00    -0.130 C  
HETATM    2  S   UNL     1      -7.317  12.393  67.183  1.00  0.00    -0.023 SA 
HETATM    3  C   UNL     1      -9.007  12.863  66.717  1.00  0.00    -0.179 C  
HETATM    4  C   UNL     1     -10.154  12.433  67.587  1.00  0.00    -0.199 C  
HETATM    5  CA  UNL     1      -7.155   9.846  68.883  1.00  0.00    -0.071 C  
HETATM    6  CA  UNL     1     -10.073  11.622  68.658  1.00  0.00    -0.198 C  
HETATM    7  C   UNL     1      -8.522   9.865  69.621  1.00  0.00    -0.187 C  
HETATM    8  C   UNL     1     -11.296  11.347  69.485  1.00  0.00    -0.289 C  
HETATM    9  N   UNL     1      -8.884  10.993  68.976  1.00  0.00    -0.110 N  
HETATM   10  OXT UNL     1     -12.125  12.220  69.700  1.00  0.00    -0.279 OA 
HETATM   11  O   UNL     1      -9.152   9.104  70.292  1.00  0.00    -0.180 OA 
HETATM   12  O   UNL     1     -11.435  10.119  70.006  1.00  0.00    -0.257 OA 
ENDROOT
BRANCH   4  13
HETATM   13  C   UNL     1     -11.494  12.913  67.021  1.00  0.00    -0.339 C  
BRANCH  13  14
HETATM   14  O   UNL     1     -11.986  12.057  65.970  1.00  0.00    -0.559 OA 
BRANCH  14  15
HETATM   15  C   UNL     1     -12.483  12.661  64.873  1.00  0.00    -0.494 C  
HETATM   16  O   UNL     1     -12.646  12.156  63.773  1.00  0.00    -0.590 OA 
HETATM   17  N   UNL     1     -12.742  13.963  65.136  1.00  0.00    -0.689 N  
HETATM   18  H2  UNL     1     -12.584  14.421  66.034  1.00  0.00     0.000 HD 
HETATM   19  H1  UNL     1     -13.118  14.420  64.304  1.00  0.00     0.000 HD 
ENDBRANCH  14  15
ENDBRANCH  13  14
ENDBRANCH   4  13
BRANCH   5  20
HETATM   20  N   UNL     1      -7.047   8.602  68.021  1.00  0.00    -0.081 N  
HETATM   21  H   UNL     1      -6.156   8.122  68.153  1.00  0.00     0.000 HD 
HETATM   22  C   UNL     1      -7.867   7.945  67.086  1.00  0.00    -0.109 C  
HETATM   23  O   UNL     1      -7.480   6.881  66.627  1.00  0.00    -0.079 OA 
BRANCH  22  24
HETATM   24  C   UNL     1      -9.104   8.587  66.480  1.00  0.00    -0.176 C  
BRANCH  24  25
HETATM   25  C   UNL     1      -8.998   9.325  65.227  1.00  0.00    -0.213 A  
HETATM   26  O   UNL     1      -7.791   9.562  64.624  1.00  0.00    -0.112 OA 
HETATM   27  C   UNL     1      -9.963  10.109  64.605  1.00  0.00    -0.304 A  
HETATM   28  C   UNL     1      -7.982  10.567  63.721  1.00  0.00    -0.013 A  
HETATM   29  C   UNL     1      -9.301  10.947  63.682  1.00  0.00    -0.285 A  
ENDBRANCH  24  25
BRANCH  24  30
HETATM   30  N   UNL     1     -10.261   8.729  67.056  1.00  0.00    -0.260 NA 
HETATM   31  H   UNL     1     -10.653   9.669  67.093  1.00  0.00     0.000 HD 
BRANCH  30  32
HETATM   32  O   UNL     1     -11.010   7.702  67.625  1.00  0.00    -0.135 OA 
HETATM   33  C   UNL     1     -11.012   6.406  67.074  1.00  0.00    -0.389 C  
ENDBRANCH  30  32
ENDBRANCH  24  30
ENDBRANCH  22  24
ENDBRANCH   5  20
TORSDOF 8
ENDMDL
MODEL      117
REMARK 921   NORMALIZED FREE ENERGY PREDICTED BY IDOCK:   -4.95 KCAL/MOL
REMARK 922        TOTAL FREE ENERGY PREDICTED BY IDOCK:   -8.67 KCAL/MOL
REMARK 923 INTER-LIGAND FREE ENERGY PREDICTED BY IDOCK:   -7.23 KCAL/MOL
REMARK 924 INTRA-LIGAND FREE ENERGY PREDICTED BY IDOCK:   -1.44 KCAL/MOL
REMARK 927      BINDING AFFINITY PREDICTED BY RF-SCORE:    0.00 PKD
ROOT
HETATM    1  C   UNL     1      -8.289   9.687  67.335  1.00  0.00    -0.114 C  
HETATM    2  S   UNL     1      -7.450  10.841  68.387  1.00  0.00    -0.101 SA 
HETATM    3  C   UNL     1      -7.565  10.081  70.030  1.00  0.00    -0.172 C  
HETATM    4  C   UNL     1      -8.193   8.723  70.169  1.00  0.00    -0.117 C  
HETATM    5  CA  UNL     1      -9.584   9.869  66.411  1.00  0.00    -0.200 C  
HETATM    6  CA  UNL     1      -8.793   8.026  69.185  1.00  0.00    -0.145 C  
HETATM    7  C   UNL     1      -9.869   8.432  66.928  1.00  0.00    -0.245 C  
HETATM    8  C   UNL     1      -9.302   6.639  69.453  1.00  0.00    -0.147 C  
HETATM    9  N   UNL     1      -8.996   8.596  67.942  1.00  0.00    -0.140 N  
HETATM   10  OXT UNL     1      -8.692   5.869  70.180  1.00  0.00    -0.137 OA 
HETATM   11  O   UNL     1     -10.685   7.585  66.718  1.00  0.00    -0.319 OA 
HETATM   12  O   UNL     1     -10.436   6.261  68.842  1.00  0.00    -0.185 OA 
ENDROOT
BRANCH   4  13
HETATM   13  C   UNL     1      -8.210   8.262  71.629  1.00  0.00    -0.137 C  
BRANCH  13  14
HETATM   14  O   UNL     1      -9.468   8.532  72.277  1.00  0.00    -0.262 OA 
BRANCH  14  15
HETATM   15  C   UNL     1      -9.942   7.587  73.112  1.00  0.00    -0.289 C  
HETATM   16  O   UNL     1     -10.986   7.626  73.744  1.00  0.00    -0.220 OA 
HETATM   17  N   UNL     1      -9.058   6.566  73.207  1.00  0.00    -0.128 N  
HETATM   18  H2  UNL     1      -8.164   6.519  72.718  1.00  0.00     0.000 HD 
HETATM   19  H1  UNL     1      -9.416   5.850  73.839  1.00  0.00     0.000 HD 
ENDBRANCH  14  15
ENDBRANCH  13  14
ENDBRANCH   4  13
BRANCH   5  20
HETATM   20  N   UNL     1     -10.845  10.709  66.488  1.00  0.00    -0.156 N  
HETATM   21  H   UNL     1     -11.585  10.239  67.009  1.00  0.00     0.000 HD 
HETATM   22  C   UNL     1     -11.249  11.974  66.022  1.00  0.00    -0.335 C  
HETATM   23  O   UNL     1     -12.351  12.385  66.351  1.00  0.00    -0.539 OA 
BRANCH  22  24
HETATM   24  C   UNL     1     -10.467  12.756  64.979  1.00  0.00    -0.314 C  
BRANCH  24  25
HETATM   25  C   UNL     1     -10.227  14.181  65.171  1.00  0.00    -0.384 A  
HETATM   26  O   UNL     1      -9.367  14.651  66.127  1.00  0.00    -0.285 OA 
HETATM   27  C   UNL     1     -10.964  15.252  64.677  1.00  0.00    -0.322 A  
HETATM   28  C   UNL     1      -9.649  15.973  66.309  1.00  0.00    -0.307 A  
HETATM   29  C   UNL     1     -10.635  16.387  65.448  1.00  0.00    -0.338 A  
ENDBRANCH  24  25
BRANCH  24  30
HETATM   30  N   UNL     1     -10.127  12.339  63.795  1.00  0.00    -0.527 NA 
HETATM   31  H   UNL     1      -9.645  13.000  63.187  1.00  0.00     0.000 HD 
BRANCH  30  32
HETATM   32  O   UNL     1     -10.368  11.064  63.289  1.00  0.00    -0.345 OA 
HETATM   33  C   UNL     1      -9.331  10.292  62.730  1.00  0.00    -0.314 C  
ENDBRANCH  30  32
ENDBRANCH  24  30
ENDBRANCH  22  24
ENDBRANCH   5  20
TORSDOF 8
ENDMDL
MODEL      118
REMARK 921   NORMALIZED FREE ENERGY PREDICTED BY IDOCK:   -4.95 KCAL/MOL
REMARK 922        TOTAL FREE ENERGY PREDICTED BY IDOCK:   -8.66 KCAL/MOL
REMARK 923 INTER-LIGAND FREE ENERGY PREDICTED BY IDOCK:   -8.03 KCAL/MOL
REMARK 924 INTRA-LIGAND FREE ENERGY PREDICTED BY IDOCK:   -0.63 KCAL/MOL
REMARK 927      BINDING AFFINITY PREDICTED BY RF-SCORE:    0.00 PKD
ROOT
HETATM    1  C   UNL     1      -9.941  14.127  66.992  1.00  0.00    -0.260 C  
HETATM    2  S   UNL     1      -8.821  13.152  67.960  1.00  0.00    -0.196 SA 
HETATM    3  C   UNL     1      -8.900  11.514  67.183  1.00  0.00    -0.168 C  
HETATM    4  C   UNL     1      -9.730  11.329  65.944  1.00  0.00    -0.258 C  
HETATM    5  CA  UNL     1     -11.272  14.913  67.412  1.00  0.00    -0.338 C  
HETATM    6  CA  UNL     1     -10.532  12.255  65.385  1.00  0.00    -0.269 C  
HETATM    7  C   UNL     1     -11.741  14.386  66.027  1.00  0.00    -0.375 C  
HETATM    8  C   UNL     1     -11.237  11.954  64.093  1.00  0.00    -0.376 C  
HETATM    9  N   UNL     1     -10.757  13.464  66.015  1.00  0.00    -0.276 N  
HETATM   10  OXT UNL     1     -10.696  11.302  63.213  1.00  0.00    -0.344 OA 
HETATM   11  O   UNL     1     -12.704  14.523  65.333  1.00  0.00    -0.348 OA 
HETATM   12  O   UNL     1     -12.472  12.451  63.926  1.00  0.00    -0.530 OA 
ENDROOT
BRANCH   4  13
HETATM   13  C   UNL     1      -9.681   9.881  65.450  1.00  0.00    -0.306 C  
BRANCH  13  14
HETATM   14  O   UNL     1      -9.138   8.981  66.435  1.00  0.00    -0.150 OA 
BRANCH  14  15
HETATM   15  C   UNL     1      -8.325   8.003  65.989  1.00  0.00    -0.126 C  
HETATM   16  O   UNL     1      -8.399   7.424  64.917  1.00  0.00    -0.114 OA 
HETATM   17  N   UNL     1      -7.407   7.694  66.935  1.00  0.00    -0.088 N  
HETATM   18  H2  UNL     1      -7.340   8.137  67.852  1.00  0.00     0.000 HD 
HETATM   19  H1  UNL     1      -6.791   6.954  66.597  1.00  0.00     0.000 HD 
ENDBRANCH  14  15
ENDBRANCH  13  14
ENDBRANCH   4  13
BRANCH   5  20
HETATM   20  N   UNL     1     -12.360  14.698  68.446  1.00  0.00    -0.606 N  
HETATM   21  H   UNL     1     -13.233  14.385  68.022  1.00  0.00     0.000 HD 
HETATM   22  C   UNL     1     -12.467  14.822  69.844  1.00  0.00    -0.240 C  
HETATM   23  O   UNL     1     -13.510  14.473  70.375  1.00  0.00    -0.042 OA 
BRANCH  22  24
HETATM   24  C   UNL     1     -11.430  15.543  70.688  1.00  0.00    -0.358 C  
BRANCH  24  25
HETATM   25  C   UNL     1     -11.590  15.605  72.137  1.00  0.00    -0.443 A  
HETATM   26  O   UNL     1     -11.831  14.487  72.889  1.00  0.00    -0.005 OA 
HETATM   27  C   UNL     1     -11.803  16.726  72.932  1.00  0.00    -0.144 A  
HETATM   28  C   UNL     1     -12.303  14.907  74.098  1.00  0.00    -0.329 A  
HETATM   29  C   UNL     1     -12.316  16.279  74.169  1.00  0.00    -0.631 A  
ENDBRANCH  24  25
BRANCH  24  30
HETATM   30  N   UNL     1     -10.473  16.306  70.251  1.00  0.00    -0.088 NA 
HETATM   31  H   UNL     1      -9.548  16.177  70.660  1.00  0.00     0.000 HD 
BRANCH  30  32
HETATM   32  O   UNL     1     -10.606  17.286  69.270  1.00  0.00    -0.319 OA 
HETATM   33  C   UNL     1      -9.488  17.774  68.567  1.00  0.00    -0.304 C  
ENDBRANCH  30  32
ENDBRANCH  24  30
ENDBRANCH  22  24
ENDBRANCH   5  20
TORSDOF 8
ENDMDL
MODEL      119
REMARK 921   NORMALIZED FREE ENERGY PREDICTED BY IDOCK:   -4.95 KCAL/MOL
REMARK 922        TOTAL FREE ENERGY PREDICTED BY IDOCK:   -8.65 KCAL/MOL
REMARK 923 INTER-LIGAND FREE ENERGY PREDICTED BY IDOCK:   -7.02 KCAL/MOL
REMARK 924 INTRA-LIGAND FREE ENERGY PREDICTED BY IDOCK:   -1.63 KCAL/MOL
REMARK 927      BINDING AFFINITY PREDICTED BY RF-SCORE:    0.00 PKD
ROOT
HETATM    1  C   UNL     1      -8.929   9.523  68.220  1.00  0.00    -0.124 C  
HETATM    2  S   UNL     1     -10.643   9.125  67.998  1.00  0.00    -0.156 SA 
HETATM    3  C   UNL     1     -11.442  10.748  67.852  1.00  0.00    -0.227 C  
HETATM    4  C   UNL     1     -10.592  11.987  67.848  1.00  0.00    -0.227 C  
HETATM    5  CA  UNL     1      -7.930   9.195  69.428  1.00  0.00    -0.097 C  
HETATM    6  CA  UNL     1      -9.262  12.033  68.051  1.00  0.00    -0.192 C  
HETATM    7  C   UNL     1      -7.431  10.629  69.097  1.00  0.00    -0.123 C  
HETATM    8  C   UNL     1      -8.530  13.340  67.933  1.00  0.00    -0.177 C  
HETATM    9  N   UNL     1      -8.566  10.897  68.422  1.00  0.00    -0.139 N  
HETATM   10  OXT UNL     1      -8.839  14.164  67.086  1.00  0.00    -0.208 OA 
HETATM   11  O   UNL     1      -6.544  11.341  69.466  1.00  0.00    -0.103 OA 
HETATM   12  O   UNL     1      -7.505  13.559  68.771  1.00  0.00    -0.109 OA 
ENDROOT
BRANCH   4  13
HETATM   13  C   UNL     1     -11.448  13.251  67.732  1.00  0.00    -0.317 C  
BRANCH  13  14
HETATM   14  O   UNL     1     -12.177  13.536  68.942  1.00  0.00    -0.315 OA 
BRANCH  14  15
HETATM   15  C   UNL     1     -11.901  14.700  69.562  1.00  0.00    -0.330 C  
HETATM   16  O   UNL     1     -10.797  15.196  69.728  1.00  0.00    -0.261 OA 
HETATM   17  N   UNL     1     -13.039  15.252  70.044  1.00  0.00    -0.588 N  
HETATM   18  H2  UNL     1     -13.970  14.846  69.950  1.00  0.00     0.000 HD 
HETATM   19  H1  UNL     1     -12.830  16.133  70.513  1.00  0.00     0.000 HD 
ENDBRANCH  14  15
ENDBRANCH  13  14
ENDBRANCH   4  13
BRANCH   5  20
HETATM   20  N   UNL     1      -8.082   9.030  70.928  1.00  0.00    -0.159 N  
HETATM   21  H   UNL     1      -7.239   9.310  71.430  1.00  0.00     0.000 HD 
HETATM   22  C   UNL     1      -9.094   8.589  71.800  1.00  0.00    -0.235 C  
HETATM   23  O   UNL     1      -8.894   8.670  73.003  1.00  0.00    -0.355 OA 
BRANCH  22  24
HETATM   24  C   UNL     1     -10.328   7.843  71.320  1.00  0.00    -0.191 C  
BRANCH  24  25
HETATM   25  C   UNL     1     -11.654   8.324  71.687  1.00  0.00    -0.284 A  
HETATM   26  O   UNL     1     -12.721   7.476  71.830  1.00  0.00    -0.322 OA 
HETATM   27  C   UNL     1     -12.129   9.630  71.679  1.00  0.00    -0.481 A  
HETATM   28  C   UNL     1     -13.851   8.238  71.791  1.00  0.00    -0.396 A  
HETATM   29  C   UNL     1     -13.539   9.572  71.686  1.00  0.00    -0.426 A  
ENDBRANCH  24  25
BRANCH  24  30
HETATM   30  N   UNL     1     -10.351   6.673  70.753  1.00  0.00    -0.200 NA 
HETATM   31  H   UNL     1     -11.191   6.109  70.879  1.00  0.00     0.000 HD 
BRANCH  30  32
HETATM   32  O   UNL     1      -9.324   6.127  69.987  1.00  0.00    -0.152 OA 
HETATM   33  C   UNL     1      -9.174   4.733  69.853  1.00  0.00    -0.124 C  
ENDBRANCH  30  32
ENDBRANCH  24  30
ENDBRANCH  22  24
ENDBRANCH   5  20
TORSDOF 8
ENDMDL
MODEL      120
REMARK 921   NORMALIZED FREE ENERGY PREDICTED BY IDOCK:   -4.94 KCAL/MOL
REMARK 922        TOTAL FREE ENERGY PREDICTED BY IDOCK:   -8.65 KCAL/MOL
REMARK 923 INTER-LIGAND FREE ENERGY PREDICTED BY IDOCK:   -7.70 KCAL/MOL
REMARK 924 INTRA-LIGAND FREE ENERGY PREDICTED BY IDOCK:   -0.95 KCAL/MOL
REMARK 927      BINDING AFFINITY PREDICTED BY RF-SCORE:    0.00 PKD
ROOT
HETATM    1  C   UNL     1     -10.218   8.716  68.832  1.00  0.00    -0.207 C  
HETATM    2  S   UNL     1      -8.732   7.824  69.204  1.00  0.00    -0.138 SA 
HETATM    3  C   UNL     1      -8.810   7.598  71.003  1.00  0.00    -0.142 C  
HETATM    4  C   UNL     1     -10.025   8.069  71.750  1.00  0.00    -0.245 C  
HETATM    5  CA  UNL     1     -10.430  10.157  68.165  1.00  0.00    -0.206 C  
HETATM    6  CA  UNL     1     -11.057   8.757  71.226  1.00  0.00    -0.278 C  
HETATM    7  C   UNL     1     -11.567  10.221  69.223  1.00  0.00    -0.119 C  
HETATM    8  C   UNL     1     -12.249   9.086  72.080  1.00  0.00    -0.375 C  
HETATM    9  N   UNL     1     -11.010   9.212  69.922  1.00  0.00    -0.229 N  
HETATM   10  OXT UNL     1     -12.669   8.298  72.913  1.00  0.00    -0.132 OA 
HETATM   11  O   UNL     1     -12.448  10.981  69.499  1.00  0.00    -0.293 OA 
HETATM   12  O   UNL     1     -12.855  10.266  71.876  1.00  0.00    -0.425 OA 
ENDROOT
BRANCH   4  13
HETATM   13  C   UNL     1      -9.895   7.804  73.253  1.00  0.00    -0.299 C  
BRANCH  13  14
HETATM   14  O   UNL     1      -9.171   6.590  73.537  1.00  0.00    -0.130 OA 
BRANCH  14  15
HETATM   15  C   UNL     1      -9.886   5.450  73.590  1.00  0.00    -0.163 C  
HETATM   16  O   UNL     1     -10.818   5.206  74.341  1.00  0.00    -0.323 OA 
HETATM   17  N   UNL     1      -9.392   4.550  72.707  1.00  0.00    -0.127 N  
HETATM   18  H2  UNL     1      -8.595   4.712  72.092  1.00  0.00     0.000 HD 
HETATM   19  H1  UNL     1      -9.933   3.686  72.748  1.00  0.00     0.000 HD 
ENDBRANCH  14  15
ENDBRANCH  13  14
ENDBRANCH   4  13
BRANCH   5  20
HETATM   20  N   UNL     1      -9.652  11.459  68.159  1.00  0.00    -0.183 N  
HETATM   21  H   UNL     1      -9.430  11.776  69.103  1.00  0.00     0.000 HD 
HETATM   22  C   UNL     1      -9.159  12.339  67.178  1.00  0.00    -0.193 C  
HETATM   23  O   UNL     1      -8.479  13.286  67.542  1.00  0.00    -0.177 OA 
BRANCH  22  24
HETATM   24  C   UNL     1      -9.593  12.276  65.723  1.00  0.00    -0.176 C  
BRANCH  24  25
HETATM   25  C   UNL     1     -10.767  13.021  65.283  1.00  0.00    -0.299 A  
HETATM   26  O   UNL     1     -10.664  14.161  64.531  1.00  0.00    -0.403 OA 
HETATM   27  C   UNL     1     -12.077  12.909  65.735  1.00  0.00    -0.513 A  
HETATM   28  C   UNL     1     -11.861  14.809  64.614  1.00  0.00    -0.436 A  
HETATM   29  C   UNL     1     -12.761  14.083  65.356  1.00  0.00    -0.499 A  
ENDBRANCH  24  25
BRANCH  24  30
HETATM   30  N   UNL     1      -9.142  11.460  64.817  1.00  0.00    -0.402 NA 
HETATM   31  H   UNL     1      -8.235  11.028  64.987  1.00  0.00     0.000 HD 
BRANCH  30  32
HETATM   32  O   UNL     1      -9.796  11.128  63.633  1.00  0.00    -0.277 OA 
HETATM   33  C   UNL     1      -9.076  10.789  62.470  1.00  0.00    -0.312 C  
ENDBRANCH  30  32
ENDBRANCH  24  30
ENDBRANCH  22  24
ENDBRANCH   5  20
TORSDOF 8
ENDMDL
MODEL      121
REMARK 921   NORMALIZED FREE ENERGY PREDICTED BY IDOCK:   -4.94 KCAL/MOL
REMARK 922        TOTAL FREE ENERGY PREDICTED BY IDOCK:   -8.65 KCAL/MOL
REMARK 923 INTER-LIGAND FREE ENERGY PREDICTED BY IDOCK:   -7.43 KCAL/MOL
REMARK 924 INTRA-LIGAND FREE ENERGY PREDICTED BY IDOCK:   -1.21 KCAL/MOL
REMARK 927      BINDING AFFINITY PREDICTED BY RF-SCORE:    0.00 PKD
ROOT
HETATM    1  C   UNL     1     -10.547  12.387  67.076  1.00  0.00    -0.225 C  
HETATM    2  S   UNL     1     -11.876  13.446  66.569  1.00  0.00    -0.406 SA 
HETATM    3  C   UNL     1     -11.179  15.113  66.732  1.00  0.00    -0.285 C  
HETATM    4  C   UNL     1      -9.739  15.271  67.127  1.00  0.00    -0.220 C  
HETATM    5  CA  UNL     1     -10.456  11.328  68.274  1.00  0.00    -0.196 C  
HETATM    6  CA  UNL     1      -8.904  14.277  67.486  1.00  0.00    -0.199 C  
HETATM    7  C   UNL     1      -9.014  11.902  68.361  1.00  0.00    -0.163 C  
HETATM    8  C   UNL     1      -7.461  14.577  67.774  1.00  0.00    -0.169 C  
HETATM    9  N   UNL     1      -9.375  12.987  67.646  1.00  0.00    -0.194 N  
HETATM   10  OXT UNL     1      -6.845  15.407  67.124  1.00  0.00    -0.244 OA 
HETATM   11  O   UNL     1      -8.027  11.664  68.991  1.00  0.00    -0.064 OA 
HETATM   12  O   UNL     1      -6.862  13.880  68.751  1.00  0.00    -0.093 OA 
ENDROOT
BRANCH   4  13
HETATM   13  C   UNL     1      -9.344  16.748  67.224  1.00  0.00    -0.231 C  
BRANCH  13  14
HETATM   14  O   UNL     1      -9.645  17.478  66.019  1.00  0.00    -0.473 OA 
BRANCH  14  15
HETATM   15  C   UNL     1      -9.789  18.813  66.133  1.00  0.00    -0.299 C  
HETATM   16  O   UNL     1     -10.786  19.466  65.866  1.00  0.00    -0.473 OA 
HETATM   17  N   UNL     1      -8.627  19.372  66.548  1.00  0.00    -0.328 N  
HETATM   18  H2  UNL     1      -7.769  18.857  66.746  1.00  0.00     0.000 HD 
HETATM   19  H1  UNL     1      -8.737  20.382  66.634  1.00  0.00     0.000 HD 
ENDBRANCH  14  15
ENDBRANCH  13  14
ENDBRANCH   4  13
BRANCH   5  20
HETATM   20  N   UNL     1     -11.060  11.227  69.662  1.00  0.00    -0.396 N  
HETATM   21  H   UNL     1     -11.310  12.142  70.037  1.00  0.00     0.000 HD 
HETATM   22  C   UNL     1     -11.362  10.187  70.560  1.00  0.00    -0.338 C  
HETATM   23  O   UNL     1     -11.942  10.472  71.597  1.00  0.00    -0.247 OA 
BRANCH  22  24
HETATM   24  C   UNL     1     -10.832   8.773  70.392  1.00  0.00    -0.228 C  
BRANCH  24  25
HETATM   25  C   UNL     1      -9.402   8.516  70.517  1.00  0.00    -0.170 A  
HETATM   26  O   UNL     1      -8.635   9.126  71.474  1.00  0.00    -0.339 OA 
HETATM   27  C   UNL     1      -8.556   7.893  69.606  1.00  0.00    -0.133 A  
HETATM   28  C   UNL     1      -7.332   8.987  71.096  1.00  0.00    -0.096 A  
HETATM   29  C   UNL     1      -7.232   8.245  69.944  1.00  0.00    -0.059 A  
ENDBRANCH  24  25
BRANCH  24  30
HETATM   30  N   UNL     1     -11.495   7.747  69.948  1.00  0.00    -0.462 NA 
HETATM   31  H   UNL     1     -11.391   7.515  68.961  1.00  0.00     0.000 HD 
BRANCH  30  32
HETATM   32  O   UNL     1     -12.335   6.938  70.709  1.00  0.00    -0.376 OA 
HETATM   33  C   UNL     1     -11.962   6.502  71.995  1.00  0.00    -0.326 C  
ENDBRANCH  30  32
ENDBRANCH  24  30
ENDBRANCH  22  24
ENDBRANCH   5  20
TORSDOF 8
ENDMDL
MODEL      122
REMARK 921   NORMALIZED FREE ENERGY PREDICTED BY IDOCK:   -4.93 KCAL/MOL
REMARK 922        TOTAL FREE ENERGY PREDICTED BY IDOCK:   -8.63 KCAL/MOL
REMARK 923 INTER-LIGAND FREE ENERGY PREDICTED BY IDOCK:   -6.56 KCAL/MOL
REMARK 924 INTRA-LIGAND FREE ENERGY PREDICTED BY IDOCK:   -2.07 KCAL/MOL
REMARK 927      BINDING AFFINITY PREDICTED BY RF-SCORE:    0.00 PKD
ROOT
HETATM    1  C   UNL     1     -10.611   8.570  67.580  1.00  0.00    -0.198 C  
HETATM    2  S   UNL     1     -11.078   9.797  68.771  1.00  0.00    -0.028 SA 
HETATM    3  C   UNL     1     -10.774  11.365  67.910  1.00  0.00    -0.200 C  
HETATM    4  C   UNL     1     -10.325  11.340  66.477  1.00  0.00    -0.284 C  
HETATM    5  CA  UNL     1      -9.491   7.426  67.644  1.00  0.00    -0.136 C  
HETATM    6  CA  UNL     1     -10.015  10.240  65.765  1.00  0.00    -0.271 C  
HETATM    7  C   UNL     1      -9.319   7.836  66.155  1.00  0.00    -0.100 C  
HETATM    8  C   UNL     1      -9.664  10.363  64.310  1.00  0.00    -0.326 C  
HETATM    9  N   UNL     1      -9.964   9.000  66.373  1.00  0.00    -0.294 N  
HETATM   10  OXT UNL     1     -10.233  11.166  63.586  1.00  0.00    -0.324 OA 
HETATM   11  O   UNL     1      -8.680   7.450  65.222  1.00  0.00    -0.058 OA 
HETATM   12  O   UNL     1      -8.722   9.540  63.823  1.00  0.00    -0.202 OA 
ENDROOT
BRANCH   4  13
HETATM   13  C   UNL     1     -10.109  12.756  65.934  1.00  0.00    -0.276 C  
BRANCH  13  14
HETATM   14  O   UNL     1     -11.193  13.645  66.268  1.00  0.00    -0.299 OA 
BRANCH  14  15
HETATM   15  C   UNL     1     -12.014  14.012  65.265  1.00  0.00    -0.379 C  
HETATM   16  O   UNL     1     -13.230  13.900  65.238  1.00  0.00    -0.774 OA 
HETATM   17  N   UNL     1     -11.292  14.493  64.225  1.00  0.00    -0.623 N  
HETATM   18  H2  UNL     1     -10.275  14.567  64.205  1.00  0.00     0.000 HD 
HETATM   19  H1  UNL     1     -11.914  14.770  63.466  1.00  0.00     0.000 HD 
ENDBRANCH  14  15
ENDBRANCH  13  14
ENDBRANCH   4  13
BRANCH   5  20
HETATM   20  N   UNL     1      -8.133   7.294  68.307  1.00  0.00    -0.123 N  
HETATM   21  H   UNL     1      -7.814   6.326  68.334  1.00  0.00     0.000 HD 
HETATM   22  C   UNL     1      -7.204   8.173  68.894  1.00  0.00    -0.078 C  
HETATM   23  O   UNL     1      -6.135   7.714  69.269  1.00  0.00    -0.032 OA 
BRANCH  22  24
HETATM   24  C   UNL     1      -7.543   9.609  69.257  1.00  0.00    -0.091 C  
BRANCH  24  25
HETATM   25  C   UNL     1      -7.242  10.684  68.319  1.00  0.00    -0.083 A  
HETATM   26  O   UNL     1      -6.859  10.435  67.027  1.00  0.00    -0.080 OA 
HETATM   27  C   UNL     1      -7.020  12.029  68.592  1.00  0.00    -0.096 A  
HETATM   28  C   UNL     1      -6.295  11.580  66.546  1.00  0.00    -0.054 A  
HETATM   29  C   UNL     1      -6.359  12.587  67.478  1.00  0.00    -0.154 A  
ENDBRANCH  24  25
BRANCH  24  30
HETATM   30  N   UNL     1      -7.914  10.044  70.424  1.00  0.00    -0.407 NA 
HETATM   31  H   UNL     1      -8.143  11.034  70.503  1.00  0.00     0.000 HD 
BRANCH  30  32
HETATM   32  O   UNL     1      -8.024   9.269  71.576  1.00  0.00    -0.334 OA 
HETATM   33  C   UNL     1      -9.179   8.506  71.837  1.00  0.00    -0.255 C  
ENDBRANCH  30  32
ENDBRANCH  24  30
ENDBRANCH  22  24
ENDBRANCH   5  20
TORSDOF 8
ENDMDL
MODEL      123
REMARK 921   NORMALIZED FREE ENERGY PREDICTED BY IDOCK:   -4.92 KCAL/MOL
REMARK 922        TOTAL FREE ENERGY PREDICTED BY IDOCK:   -8.62 KCAL/MOL
REMARK 923 INTER-LIGAND FREE ENERGY PREDICTED BY IDOCK:   -7.59 KCAL/MOL
REMARK 924 INTRA-LIGAND FREE ENERGY PREDICTED BY IDOCK:   -1.03 KCAL/MOL
REMARK 927      BINDING AFFINITY PREDICTED BY RF-SCORE:    0.00 PKD
ROOT
HETATM    1  C   UNL     1     -10.232  13.173  68.817  1.00  0.00    -0.097 C  
HETATM    2  S   UNL     1     -11.829  12.415  68.942  1.00  0.00    -0.265 SA 
HETATM    3  C   UNL     1     -11.553  10.733  68.322  1.00  0.00    -0.221 C  
HETATM    4  C   UNL     1     -10.162  10.307  67.949  1.00  0.00    -0.217 C  
HETATM    5  CA  UNL     1      -9.747  14.455  67.987  1.00  0.00    -0.221 C  
HETATM    6  CA  UNL     1      -9.072  11.099  67.927  1.00  0.00    -0.150 C  
HETATM    7  C   UNL     1      -8.493  13.560  67.786  1.00  0.00    -0.184 C  
HETATM    8  C   UNL     1      -7.725  10.512  67.616  1.00  0.00    -0.097 C  
HETATM    9  N   UNL     1      -9.188  12.460  68.137  1.00  0.00    -0.202 N  
HETATM   10  OXT UNL     1      -7.411   9.401  68.014  1.00  0.00    -0.078 OA 
HETATM   11  O   UNL     1      -7.413  13.687  67.290  1.00  0.00    -0.150 OA 
HETATM   12  O   UNL     1      -6.867  11.262  66.908  1.00  0.00    -0.115 OA 
ENDROOT
BRANCH   4  13
HETATM   13  C   UNL     1     -10.137   8.864  67.435  1.00  0.00    -0.227 C  
BRANCH  13  14
HETATM   14  O   UNL     1     -10.499   7.911  68.454  1.00  0.00    -0.205 OA 
BRANCH  14  15
HETATM   15  C   UNL     1     -10.716   6.643  68.055  1.00  0.00    -0.265 C  
HETATM   16  O   UNL     1     -10.332   5.626  68.612  1.00  0.00    -0.184 OA 
HETATM   17  N   UNL     1     -11.397   6.634  66.885  1.00  0.00    -0.824 N  
HETATM   18  H2  UNL     1     -11.702   7.466  66.379  1.00  0.00     0.000 HD 
HETATM   19  H1  UNL     1     -11.561   5.673  66.583  1.00  0.00     0.000 HD 
ENDBRANCH  14  15
ENDBRANCH  13  14
ENDBRANCH   4  13
BRANCH   5  20
HETATM   20  N   UNL     1     -10.149  15.092  66.670  1.00  0.00    -0.255 N  
HETATM   21  H   UNL     1     -10.324  14.395  65.947  1.00  0.00     0.000 HD 
HETATM   22  C   UNL     1     -10.339  16.403  66.197  1.00  0.00    -0.344 C  
HETATM   23  O   UNL     1     -10.758  16.550  65.059  1.00  0.00    -0.662 OA 
BRANCH  22  24
HETATM   24  C   UNL     1      -9.866  17.630  66.959  1.00  0.00    -0.307 C  
BRANCH  24  25
HETATM   25  C   UNL     1      -8.455  17.773  67.299  1.00  0.00    -0.231 A  
HETATM   26  O   UNL     1      -8.036  18.538  68.356  1.00  0.00    -0.305 OA 
HETATM   27  C   UNL     1      -7.346  17.440  66.529  1.00  0.00    -0.312 A  
HETATM   28  C   UNL     1      -6.705  18.776  68.179  1.00  0.00    -0.224 A  
HETATM   29  C   UNL     1      -6.236  18.132  67.060  1.00  0.00    -0.186 A  
ENDBRANCH  24  25
BRANCH  24  30
HETATM   30  N   UNL     1     -10.619  18.520  67.534  1.00  0.00    -0.426 NA 
HETATM   31  H   UNL     1     -10.847  18.375  68.517  1.00  0.00     0.000 HD 
BRANCH  30  32
HETATM   32  O   UNL     1     -11.140  19.656  66.919  1.00  0.00    -0.396 OA 
HETATM   33  C   UNL     1     -10.539  20.207  65.771  1.00  0.00    -0.239 C  
ENDBRANCH  30  32
ENDBRANCH  24  30
ENDBRANCH  22  24
ENDBRANCH   5  20
TORSDOF 8
ENDMDL
MODEL      124
REMARK 921   NORMALIZED FREE ENERGY PREDICTED BY IDOCK:   -4.91 KCAL/MOL
REMARK 922        TOTAL FREE ENERGY PREDICTED BY IDOCK:   -8.60 KCAL/MOL
REMARK 923 INTER-LIGAND FREE ENERGY PREDICTED BY IDOCK:   -6.44 KCAL/MOL
REMARK 924 INTRA-LIGAND FREE ENERGY PREDICTED BY IDOCK:   -2.16 KCAL/MOL
REMARK 927      BINDING AFFINITY PREDICTED BY RF-SCORE:    0.00 PKD
ROOT
HETATM    1  C   UNL     1      -8.779   7.559  67.097  1.00  0.00    -0.121 C  
HETATM    2  S   UNL     1     -10.498   7.928  67.328  1.00  0.00    -0.308 SA 
HETATM    3  C   UNL     1     -10.758   9.403  66.304  1.00  0.00     0.265 C  
HETATM    4  C   UNL     1      -9.625   9.926  65.468  1.00  0.00    -0.341 C  
HETATM    5  CA  UNL     1      -7.578   7.482  68.152  1.00  0.00    -0.114 C  
HETATM    6  CA  UNL     1      -8.361   9.462  65.472  1.00  0.00    -0.134 C  
HETATM    7  C   UNL     1      -6.808   8.139  66.973  1.00  0.00    -0.070 C  
HETATM    8  C   UNL     1      -7.351  10.029  64.515  1.00  0.00    -0.142 C  
HETATM    9  N   UNL     1      -7.966   8.505  66.387  1.00  0.00    -0.097 N  
HETATM   10  OXT UNL     1      -7.664  10.342  63.376  1.00  0.00    -0.145 OA 
HETATM   11  O   UNL     1      -5.676   8.448  66.746  1.00  0.00    -0.042 OA 
HETATM   12  O   UNL     1      -6.086  10.154  64.944  1.00  0.00    -0.107 OA 
ENDROOT
BRANCH   4  13
HETATM   13  C   UNL     1     -10.036  11.180  64.690  1.00  0.00    -0.302 C  
BRANCH  13  14
HETATM   14  O   UNL     1     -11.278  11.738  65.163  1.00  0.00    -0.302 OA 
BRANCH  14  15
HETATM   15  C   UNL     1     -12.109  12.252  64.235  1.00  0.00    -0.412 C  
HETATM   16  O   UNL     1     -12.873  13.194  64.380  1.00  0.00    -0.672 OA 
HETATM   17  N   UNL     1     -12.028  11.535  63.090  1.00  0.00    -0.917 N  
HETATM   18  H2  UNL     1     -11.425  10.724  62.949  1.00  0.00     0.000 HD 
HETATM   19  H1  UNL     1     -12.658  11.925  62.388  1.00  0.00     0.000 HD 
ENDBRANCH  14  15
ENDBRANCH  13  14
ENDBRANCH   4  13
BRANCH   5  20
HETATM   20  N   UNL     1      -7.246   8.193  69.450  1.00  0.00    -0.066 N  
HETATM   21  H   UNL     1      -6.641   7.632  70.049  1.00  0.00     0.000 HD 
HETATM   22  C   UNL     1      -7.564   9.433  70.035  1.00  0.00    -0.113 C  
HETATM   23  O   UNL     1      -7.036   9.722  71.097  1.00  0.00    -0.327 OA 
BRANCH  22  24
HETATM   24  C   UNL     1      -8.672  10.331  69.509  1.00  0.00    -0.139 C  
BRANCH  24  25
HETATM   25  C   UNL     1      -8.357  11.384  68.550  1.00  0.00    -0.153 A  
HETATM   26  O   UNL     1      -7.076  11.624  68.129  1.00  0.00    -0.070 OA 
HETATM   27  C   UNL     1      -9.162  12.440  68.136  1.00  0.00    -0.205 A  
HETATM   28  C   UNL     1      -7.062  12.866  67.566  1.00  0.00    -0.152 A  
HETATM   29  C   UNL     1      -8.321  13.415  67.558  1.00  0.00    -0.190 A  
ENDBRANCH  24  25
BRANCH  24  30
HETATM   30  N   UNL     1      -9.887  10.406  69.963  1.00  0.00    -0.405 NA 
HETATM   31  H   UNL     1     -10.418  11.248  69.743  1.00  0.00     0.000 HD 
BRANCH  30  32
HETATM   32  O   UNL     1     -10.525   9.431  70.727  1.00  0.00    -0.257 OA 
HETATM   33  C   UNL     1     -11.773   9.676  71.331  1.00  0.00    -0.404 C  
ENDBRANCH  30  32
ENDBRANCH  24  30
ENDBRANCH  22  24
ENDBRANCH   5  20
TORSDOF 8
ENDMDL
MODEL      125
REMARK 921   NORMALIZED FREE ENERGY PREDICTED BY IDOCK:   -4.91 KCAL/MOL
REMARK 922        TOTAL FREE ENERGY PREDICTED BY IDOCK:   -8.60 KCAL/MOL
REMARK 923 INTER-LIGAND FREE ENERGY PREDICTED BY IDOCK:   -7.11 KCAL/MOL
REMARK 924 INTRA-LIGAND FREE ENERGY PREDICTED BY IDOCK:   -1.48 KCAL/MOL
REMARK 927      BINDING AFFINITY PREDICTED BY RF-SCORE:    0.00 PKD
ROOT
HETATM    1  C   UNL     1     -10.153  10.166  70.086  1.00  0.00    -0.141 C  
HETATM    2  S   UNL     1     -11.589  10.209  71.124  1.00  0.00    -0.291 SA 
HETATM    3  C   UNL     1     -12.021   8.458  71.327  1.00  0.00    -0.288 C  
HETATM    4  C   UNL     1     -11.130   7.408  70.727  1.00  0.00    -0.285 C  
HETATM    5  CA  UNL     1      -9.895  10.796  68.636  1.00  0.00    -0.184 C  
HETATM    6  CA  UNL     1     -10.061   7.635  69.940  1.00  0.00    -0.198 C  
HETATM    7  C   UNL     1      -9.130   9.456  68.447  1.00  0.00    -0.128 C  
HETATM    8  C   UNL     1      -9.210   6.485  69.483  1.00  0.00    -0.142 C  
HETATM    9  N   UNL     1      -9.767   8.912  69.503  1.00  0.00    -0.170 N  
HETATM   10  OXT UNL     1      -8.978   5.536  70.217  1.00  0.00    -0.133 OA 
HETATM   11  O   UNL     1      -8.447   8.965  67.598  1.00  0.00    -0.120 OA 
HETATM   12  O   UNL     1      -8.687   6.547  68.249  1.00  0.00    -0.118 OA 
ENDROOT
BRANCH   4  13
HETATM   13  C   UNL     1     -11.669   5.999  70.993  1.00  0.00     0.013 C  
BRANCH  13  14
HETATM   14  O   UNL     1     -11.962   5.776  72.386  1.00  0.00    -0.275 OA 
BRANCH  14  15
HETATM   15  C   UNL     1     -10.913   5.582  73.209  1.00  0.00    -0.292 C  
HETATM   16  O   UNL     1     -10.588   6.282  74.155  1.00  0.00    -0.267 OA 
HETATM   17  N   UNL     1     -10.203   4.501  72.810  1.00  0.00    -0.172 N  
HETATM   18  H2  UNL     1     -10.430   3.917  72.005  1.00  0.00     0.000 HD 
HETATM   19  H1  UNL     1      -9.409   4.355  73.433  1.00  0.00     0.000 HD 
ENDBRANCH  14  15
ENDBRANCH  13  14
ENDBRANCH   4  13
BRANCH   5  20
HETATM   20  N   UNL     1     -10.760  11.077  67.422  1.00  0.00    -0.240 N  
HETATM   21  H   UNL     1     -10.973  10.227  66.900  1.00  0.00     0.000 HD 
HETATM   22  C   UNL     1     -11.340  12.217  66.835  1.00  0.00    -0.343 C  
HETATM   23  O   UNL     1     -12.071  12.059  65.869  1.00  0.00    -0.546 OA 
BRANCH  22  24
HETATM   24  C   UNL     1     -10.948  13.633  67.222  1.00  0.00    -0.287 C  
BRANCH  24  25
HETATM   25  C   UNL     1     -11.395  14.187  68.495  1.00  0.00    -0.283 A  
HETATM   26  O   UNL     1     -11.991  13.413  69.455  1.00  0.00    -0.307 OA 
HETATM   27  C   UNL     1     -11.560  15.523  68.842  1.00  0.00    -0.384 A  
HETATM   28  C   UNL     1     -12.620  14.257  70.321  1.00  0.00    -0.319 A  
HETATM   29  C   UNL     1     -12.395  15.568  69.979  1.00  0.00    -0.345 A  
ENDBRANCH  24  25
BRANCH  24  30
HETATM   30  N   UNL     1     -10.395  14.520  66.449  1.00  0.00    -0.286 NA 
HETATM   31  H   UNL     1      -9.413  14.738  66.614  1.00  0.00     0.000 HD 
BRANCH  30  32
HETATM   32  O   UNL     1     -11.034  15.198  65.414  1.00  0.00    -0.336 OA 
HETATM   33  C   UNL     1     -10.734  16.544  65.126  1.00  0.00    -0.244 C  
ENDBRANCH  30  32
ENDBRANCH  24  30
ENDBRANCH  22  24
ENDBRANCH   5  20
TORSDOF 8
ENDMDL
MODEL      126
REMARK 921   NORMALIZED FREE ENERGY PREDICTED BY IDOCK:   -4.90 KCAL/MOL
REMARK 922        TOTAL FREE ENERGY PREDICTED BY IDOCK:   -8.59 KCAL/MOL
REMARK 923 INTER-LIGAND FREE ENERGY PREDICTED BY IDOCK:   -7.37 KCAL/MOL
REMARK 924 INTRA-LIGAND FREE ENERGY PREDICTED BY IDOCK:   -1.22 KCAL/MOL
REMARK 927      BINDING AFFINITY PREDICTED BY RF-SCORE:    0.00 PKD
ROOT
HETATM    1  C   UNL     1     -10.913  10.172  70.604  1.00  0.00    -0.285 C  
HETATM    2  S   UNL     1     -12.554   9.602  70.952  1.00  0.00    -0.168 SA 
HETATM    3  C   UNL     1     -12.292   8.222  72.101  1.00  0.00    -0.360 C  
HETATM    4  C   UNL     1     -10.898   7.913  72.570  1.00  0.00    -0.403 C  
HETATM    5  CA  UNL     1     -10.112  10.265  69.220  1.00  0.00    -0.227 C  
HETATM    6  CA  UNL     1      -9.769   8.504  72.136  1.00  0.00    -0.317 C  
HETATM    7  C   UNL     1      -8.939   9.820  70.137  1.00  0.00    -0.195 C  
HETATM    8  C   UNL     1      -8.450   8.150  72.761  1.00  0.00    -0.188 C  
HETATM    9  N   UNL     1      -9.803   9.397  71.082  1.00  0.00    -0.263 N  
HETATM   10  OXT UNL     1      -8.355   7.926  73.958  1.00  0.00    -0.210 OA 
HETATM   11  O   UNL     1      -7.761   9.658  70.015  1.00  0.00    -0.119 OA 
HETATM   12  O   UNL     1      -7.371   8.116  71.964  1.00  0.00    -0.078 OA 
ENDROOT
BRANCH   4  13
HETATM   13  C   UNL     1     -10.882   6.710  73.518  1.00  0.00    -0.197 C  
BRANCH  13  14
HETATM   14  O   UNL     1     -11.340   5.501  72.882  1.00  0.00    -0.291 OA 
BRANCH  14  15
HETATM   15  C   UNL     1     -10.483   4.461  72.857  1.00  0.00    -0.186 C  
HETATM   16  O   UNL     1      -9.388   4.431  72.319  1.00  0.00    -0.122 OA 
HETATM   17  N   UNL     1     -11.030   3.393  73.483  1.00  0.00    -0.223 N  
HETATM   18  H2  UNL     1     -11.955   3.378  73.913  1.00  0.00     0.000 HD 
HETATM   19  H1  UNL     1     -10.381   2.606  73.464  1.00  0.00     0.000 HD 
ENDBRANCH  14  15
ENDBRANCH  13  14
ENDBRANCH   4  13
BRANCH   5  20
HETATM   20  N   UNL     1     -10.100   9.461  67.934  1.00  0.00    -0.183 N  
HETATM   21  H   UNL     1     -10.138   8.458  68.111  1.00  0.00     0.000 HD 
HETATM   22  C   UNL     1     -10.051   9.753  66.558  1.00  0.00    -0.239 C  
HETATM   23  O   UNL     1     -10.145   8.826  65.769  1.00  0.00    -0.046 OA 
BRANCH  22  24
HETATM   24  C   UNL     1      -9.694  11.129  66.020  1.00  0.00    -0.226 C  
BRANCH  24  25
HETATM   25  C   UNL     1     -10.636  11.839  65.163  1.00  0.00    -0.283 A  
HETATM   26  O   UNL     1     -11.891  12.181  65.590  1.00  0.00    -0.427 OA 
HETATM   27  C   UNL     1     -10.570  12.033  63.787  1.00  0.00    -0.478 A  
HETATM   28  C   UNL     1     -12.630  12.469  64.480  1.00  0.00    -0.421 A  
HETATM   29  C   UNL     1     -11.864  12.379  63.344  1.00  0.00    -0.571 A  
ENDBRANCH  24  25
BRANCH  24  30
HETATM   30  N   UNL     1      -8.528  11.702  66.077  1.00  0.00    -0.380 NA 
HETATM   31  H   UNL     1      -8.317  12.403  65.368  1.00  0.00     0.000 HD 
BRANCH  30  32
HETATM   32  O   UNL     1      -7.544  11.437  67.027  1.00  0.00    -0.136 OA 
HETATM   33  C   UNL     1      -6.659  12.442  67.462  1.00  0.00    -0.147 C  
ENDBRANCH  30  32
ENDBRANCH  24  30
ENDBRANCH  22  24
ENDBRANCH   5  20
TORSDOF 8
ENDMDL
MODEL      127
REMARK 921   NORMALIZED FREE ENERGY PREDICTED BY IDOCK:   -4.89 KCAL/MOL
REMARK 922        TOTAL FREE ENERGY PREDICTED BY IDOCK:   -8.57 KCAL/MOL
REMARK 923 INTER-LIGAND FREE ENERGY PREDICTED BY IDOCK:   -7.41 KCAL/MOL
REMARK 924 INTRA-LIGAND FREE ENERGY PREDICTED BY IDOCK:   -1.16 KCAL/MOL
REMARK 927      BINDING AFFINITY PREDICTED BY RF-SCORE:    0.00 PKD
ROOT
HETATM    1  C   UNL     1      -8.750   9.288  68.486  1.00  0.00    -0.128 C  
HETATM    2  S   UNL     1      -9.127   9.712  70.166  1.00  0.00    -0.208 SA 
HETATM    3  C   UNL     1     -10.044   8.269  70.775  1.00  0.00    -0.190 C  
HETATM    4  C   UNL     1     -10.213   7.076  69.878  1.00  0.00    -0.213 C  
HETATM    5  CA  UNL     1      -9.151  10.008  67.113  1.00  0.00    -0.138 C  
HETATM    6  CA  UNL     1      -9.833   6.995  68.589  1.00  0.00    -0.148 C  
HETATM    7  C   UNL     1      -9.291   8.532  66.650  1.00  0.00    -0.189 C  
HETATM    8  C   UNL     1      -9.990   5.702  67.840  1.00  0.00    -0.143 C  
HETATM    9  N   UNL     1      -9.347   8.108  67.928  1.00  0.00    -0.134 N  
HETATM   10  OXT UNL     1      -9.799   4.627  68.387  1.00  0.00    -0.149 OA 
HETATM   11  O   UNL     1      -9.516   7.968  65.620  1.00  0.00     0.027 OA 
HETATM   12  O   UNL     1     -10.319   5.770  66.542  1.00  0.00    -0.215 OA 
ENDROOT
BRANCH   4  13
HETATM   13  C   UNL     1     -11.025   5.973  70.564  1.00  0.00    -0.319 C  
BRANCH  13  14
HETATM   14  O   UNL     1     -10.425   5.535  71.799  1.00  0.00    -0.215 OA 
BRANCH  14  15
HETATM   15  C   UNL     1     -11.222   5.492  72.885  1.00  0.00    -0.305 C  
HETATM   16  O   UNL     1     -11.010   4.887  73.924  1.00  0.00    -0.303 OA 
HETATM   17  N   UNL     1     -12.359   6.191  72.654  1.00  0.00    -0.521 N  
HETATM   18  H2  UNL     1     -12.579   6.678  71.785  1.00  0.00     0.000 HD 
HETATM   19  H1  UNL     1     -12.962   6.158  73.476  1.00  0.00     0.000 HD 
ENDBRANCH  14  15
ENDBRANCH  13  14
ENDBRANCH   4  13
BRANCH   5  20
HETATM   20  N   UNL     1     -10.342  10.818  66.638  1.00  0.00    -0.233 N  
HETATM   21  H   UNL     1     -10.633  10.552  65.697  1.00  0.00     0.000 HD 
HETATM   22  C   UNL     1     -11.146  11.844  67.169  1.00  0.00    -0.293 C  
HETATM   23  O   UNL     1     -12.107  12.220  66.516  1.00  0.00    -0.616 OA 
BRANCH  22  24
HETATM   24  C   UNL     1     -10.762  12.631  68.411  1.00  0.00    -0.242 C  
BRANCH  24  25
HETATM   25  C   UNL     1     -11.787  12.996  69.383  1.00  0.00    -0.322 A  
HETATM   26  O   UNL     1     -12.326  14.255  69.431  1.00  0.00    -0.310 OA 
HETATM   27  C   UNL     1     -12.174  12.307  70.526  1.00  0.00    -0.387 A  
HETATM   28  C   UNL     1     -12.938  14.385  70.643  1.00  0.00    -0.289 A  
HETATM   29  C   UNL     1     -12.861  13.215  71.360  1.00  0.00    -0.401 A  
ENDBRANCH  24  25
BRANCH  24  30
HETATM   30  N   UNL     1      -9.619  13.206  68.639  1.00  0.00    -0.401 NA 
HETATM   31  H   UNL     1      -8.958  12.713  69.238  1.00  0.00     0.000 HD 
BRANCH  30  32
HETATM   32  O   UNL     1      -9.223  14.442  68.133  1.00  0.00    -0.185 OA 
HETATM   33  C   UNL     1      -9.821  14.985  66.979  1.00  0.00    -0.238 C  
ENDBRANCH  30  32
ENDBRANCH  24  30
ENDBRANCH  22  24
ENDBRANCH   5  20
TORSDOF 8
ENDMDL
MODEL      128
REMARK 921   NORMALIZED FREE ENERGY PREDICTED BY IDOCK:   -4.88 KCAL/MOL
REMARK 922        TOTAL FREE ENERGY PREDICTED BY IDOCK:   -8.56 KCAL/MOL
REMARK 923 INTER-LIGAND FREE ENERGY PREDICTED BY IDOCK:   -6.32 KCAL/MOL
REMARK 924 INTRA-LIGAND FREE ENERGY PREDICTED BY IDOCK:   -2.24 KCAL/MOL
REMARK 927      BINDING AFFINITY PREDICTED BY RF-SCORE:    0.00 PKD
ROOT
HETATM    1  C   UNL     1     -11.824   6.913  71.317  1.00  0.00    -0.341 C  
HETATM    2  S   UNL     1     -12.135   8.397  72.235  1.00  0.00    -0.382 SA 
HETATM    3  C   UNL     1     -11.506   9.709  71.150  1.00  0.00    -0.384 C  
HETATM    4  C   UNL     1     -10.985   9.348  69.788  1.00  0.00    -0.234 C  
HETATM    5  CA  UNL     1     -10.931   5.632  71.675  1.00  0.00    -0.211 C  
HETATM    6  CA  UNL     1     -10.834   8.100  69.305  1.00  0.00    -0.050 C  
HETATM    7  C   UNL     1     -10.601   5.727  70.160  1.00  0.00    -0.307 C  
HETATM    8  C   UNL     1     -10.380   7.895  67.887  1.00  0.00    -0.221 C  
HETATM    9  N   UNL     1     -11.040   7.001  70.117  1.00  0.00    -0.275 N  
HETATM   10  OXT UNL     1     -10.754   8.635  66.990  1.00  0.00    -0.271 OA 
HETATM   11  O   UNL     1      -9.986   5.077  69.368  1.00  0.00    -0.188 OA 
HETATM   12  O   UNL     1      -9.573   6.853  67.635  1.00  0.00    -0.125 OA 
ENDROOT
BRANCH   4  13
HETATM   13  C   UNL     1     -10.488  10.585  69.034  1.00  0.00    -0.217 C  
BRANCH  13  14
HETATM   14  O   UNL     1     -11.559  11.486  68.688  1.00  0.00    -0.259 OA 
BRANCH  14  15
HETATM   15  C   UNL     1     -11.342  12.800  68.891  1.00  0.00    -0.296 C  
HETATM   16  O   UNL     1     -10.970  13.616  68.062  1.00  0.00    -0.240 OA 
HETATM   17  N   UNL     1     -11.546  13.109  70.194  1.00  0.00    -0.533 N  
HETATM   18  H2  UNL     1     -11.823  12.444  70.916  1.00  0.00     0.000 HD 
HETATM   19  H1  UNL     1     -11.381  14.104  70.347  1.00  0.00     0.000 HD 
ENDBRANCH  14  15
ENDBRANCH  13  14
ENDBRANCH   4  13
BRANCH   5  20
HETATM   20  N   UNL     1      -9.660   5.402  72.471  1.00  0.00    -0.149 N  
HETATM   21  H   UNL     1      -9.665   4.500  72.946  1.00  0.00     0.000 HD 
HETATM   22  C   UNL     1      -8.476   6.122  72.717  1.00  0.00    -0.123 C  
HETATM   23  O   UNL     1      -7.595   5.577  73.364  1.00  0.00    -0.094 OA 
BRANCH  22  24
HETATM   24  C   UNL     1      -8.326   7.597  72.387  1.00  0.00    -0.117 C  
BRANCH  24  25
HETATM   25  C   UNL     1      -7.765   7.999  71.102  1.00  0.00    -0.087 A  
HETATM   26  O   UNL     1      -7.381   7.083  70.159  1.00  0.00    -0.077 OA 
HETATM   27  C   UNL     1      -7.280   9.247  70.727  1.00  0.00    -0.126 A  
HETATM   28  C   UNL     1      -6.570   7.730  69.274  1.00  0.00    -0.040 A  
HETATM   29  C   UNL     1      -6.467   9.064  69.588  1.00  0.00    -0.042 A  
ENDBRANCH  24  25
BRANCH  24  30
HETATM   30  N   UNL     1      -8.467   8.592  73.212  1.00  0.00    -0.389 NA 
HETATM   31  H   UNL     1      -9.134   9.319  72.958  1.00  0.00     0.000 HD 
BRANCH  30  32
HETATM   32  O   UNL     1      -7.781   8.746  74.415  1.00  0.00    -0.411 OA 
HETATM   33  C   UNL     1      -6.375   8.693  74.466  1.00  0.00    -0.136 C  
ENDBRANCH  30  32
ENDBRANCH  24  30
ENDBRANCH  22  24
ENDBRANCH   5  20
TORSDOF 8
ENDMDL
MODEL      129
REMARK 921   NORMALIZED FREE ENERGY PREDICTED BY IDOCK:   -4.88 KCAL/MOL
REMARK 922        TOTAL FREE ENERGY PREDICTED BY IDOCK:   -8.55 KCAL/MOL
REMARK 923 INTER-LIGAND FREE ENERGY PREDICTED BY IDOCK:   -7.17 KCAL/MOL
REMARK 924 INTRA-LIGAND FREE ENERGY PREDICTED BY IDOCK:   -1.39 KCAL/MOL
REMARK 927      BINDING AFFINITY PREDICTED BY RF-SCORE:    0.00 PKD
ROOT
HETATM    1  C   UNL     1      -9.365  13.185  68.096  1.00  0.00    -0.217 C  
HETATM    2  S   UNL     1      -9.297  14.948  67.930  1.00  0.00    -0.194 SA 
HETATM    3  C   UNL     1     -10.747  15.520  68.859  1.00  0.00    -0.242 C  
HETATM    4  C   UNL     1     -11.589  14.517  69.595  1.00  0.00    -0.346 C  
HETATM    5  CA  UNL     1      -9.488  12.036  66.987  1.00  0.00    -0.198 C  
HETATM    6  CA  UNL     1     -11.439  13.179  69.558  1.00  0.00    -0.226 C  
HETATM    7  C   UNL     1     -10.402  11.407  68.074  1.00  0.00    -0.184 C  
HETATM    8  C   UNL     1     -12.305  12.303  70.417  1.00  0.00    -0.228 C  
HETATM    9  N   UNL     1     -10.530  12.598  68.693  1.00  0.00    -0.230 N  
HETATM   10  OXT UNL     1     -12.627  12.643  71.546  1.00  0.00    -0.270 OA 
HETATM   11  O   UNL     1     -10.987  10.375  68.219  1.00  0.00    -0.235 OA 
HETATM   12  O   UNL     1     -12.689  11.120  69.914  1.00  0.00    -0.168 OA 
ENDROOT
BRANCH   4  13
HETATM   13  C   UNL     1     -12.770  15.190  70.302  1.00  0.00    -0.299 C  
BRANCH  13  14
HETATM   14  O   UNL     1     -12.359  15.958  71.450  1.00  0.00    -0.423 OA 
BRANCH  14  15
HETATM   15  C   UNL     1     -13.101  15.832  72.568  1.00  0.00    -0.474 C  
HETATM   16  O   UNL     1     -12.791  16.186  73.695  1.00  0.00    -0.533 OA 
HETATM   17  N   UNL     1     -14.261  15.192  72.286  1.00  0.00    -0.519 N  
HETATM   18  H2  UNL     1     -14.533  14.856  71.362  1.00  0.00     0.000 HD 
HETATM   19  H1  UNL     1     -14.822  15.097  73.132  1.00  0.00     0.000 HD 
ENDBRANCH  14  15
ENDBRANCH  13  14
ENDBRANCH   4  13
BRANCH   5  20
HETATM   20  N   UNL     1     -10.149  11.930  65.626  1.00  0.00    -0.236 N  
HETATM   21  H   UNL     1     -11.066  12.376  65.611  1.00  0.00     0.000 HD 
HETATM   22  C   UNL     1      -9.815  11.369  64.379  1.00  0.00    -0.261 C  
HETATM   23  O   UNL     1     -10.579  11.548  63.443  1.00  0.00    -0.381 OA 
BRANCH  22  24
HETATM   24  C   UNL     1      -8.660  10.398  64.196  1.00  0.00    -0.181 C  
BRANCH  24  25
HETATM   25  C   UNL     1      -8.798   9.016  64.637  1.00  0.00    -0.096 A  
HETATM   26  O   UNL     1      -9.301   8.694  65.870  1.00  0.00    -0.219 OA 
HETATM   27  C   UNL     1      -8.237   7.873  64.079  1.00  0.00    -0.026 A  
HETATM   28  C   UNL     1      -8.950   7.400  66.124  1.00  0.00    -0.149 A  
HETATM   29  C   UNL     1      -8.282   6.855  65.055  1.00  0.00    -0.096 A  
ENDBRANCH  24  25
BRANCH  24  30
HETATM   30  N   UNL     1      -7.444  10.701  63.850  1.00  0.00    -0.352 NA 
HETATM   31  H   UNL     1      -7.314  11.153  62.946  1.00  0.00     0.000 HD 
BRANCH  30  32
HETATM   32  O   UNL     1      -6.304  10.459  64.613  1.00  0.00    -0.127 OA 
HETATM   33  C   UNL     1      -6.158  11.006  65.902  1.00  0.00    -0.057 C  
ENDBRANCH  30  32
ENDBRANCH  24  30
ENDBRANCH  22  24
ENDBRANCH   5  20
TORSDOF 8
ENDMDL
MODEL      130
REMARK 921   NORMALIZED FREE ENERGY PREDICTED BY IDOCK:   -4.88 KCAL/MOL
REMARK 922        TOTAL FREE ENERGY PREDICTED BY IDOCK:   -8.55 KCAL/MOL
REMARK 923 INTER-LIGAND FREE ENERGY PREDICTED BY IDOCK:   -5.98 KCAL/MOL
REMARK 924 INTRA-LIGAND FREE ENERGY PREDICTED BY IDOCK:   -2.58 KCAL/MOL
REMARK 927      BINDING AFFINITY PREDICTED BY RF-SCORE:    0.00 PKD
ROOT
HETATM    1  C   UNL     1      -8.577   7.151  67.737  1.00  0.00    -0.126 C  
HETATM    2  S   UNL     1     -10.328   7.209  68.004  1.00  0.00    -0.205 SA 
HETATM    3  C   UNL     1     -10.840   8.724  67.147  1.00  0.00     0.008 C  
HETATM    4  C   UNL     1      -9.820   9.511  66.375  1.00  0.00    -0.320 C  
HETATM    5  CA  UNL     1      -7.362   7.156  68.781  1.00  0.00    -0.096 C  
HETATM    6  CA  UNL     1      -8.497   9.262  66.331  1.00  0.00    -0.123 C  
HETATM    7  C   UNL     1      -6.727   8.054  67.682  1.00  0.00    -0.069 C  
HETATM    8  C   UNL     1      -7.608  10.086  65.444  1.00  0.00    -0.138 C  
HETATM    9  N   UNL     1      -7.938   8.288  67.137  1.00  0.00    -0.104 N  
HETATM   10  OXT UNL     1      -7.985  10.465  64.346  1.00  0.00    -0.154 OA 
HETATM   11  O   UNL     1      -5.664   8.565  67.493  1.00  0.00    -0.038 OA 
HETATM   12  O   UNL     1      -6.373  10.367  65.887  1.00  0.00    -0.100 OA 
ENDROOT
BRANCH   4  13
HETATM   13  C   UNL     1     -10.441  10.758  65.739  1.00  0.00    -0.188 C  
BRANCH  13  14
HETATM   14  O   UNL     1     -11.549  11.272  66.503  1.00  0.00    -0.344 OA 
BRANCH  14  15
HETATM   15  C   UNL     1     -11.338  12.406  67.200  1.00  0.00    -0.329 C  
HETATM   16  O   UNL     1     -11.029  13.496  66.746  1.00  0.00    -0.287 OA 
HETATM   17  N   UNL     1     -11.466  12.166  68.527  1.00  0.00    -0.274 N  
HETATM   18  H2  UNL     1     -11.690  11.259  68.938  1.00  0.00     0.000 HD 
HETATM   19  H1  UNL     1     -11.306  13.024  69.055  1.00  0.00     0.000 HD 
ENDBRANCH  14  15
ENDBRANCH  13  14
ENDBRANCH   4  13
BRANCH   5  20
HETATM   20  N   UNL     1      -7.129   7.768  70.150  1.00  0.00    -0.053 N  
HETATM   21  H   UNL     1      -6.453   7.234  70.696  1.00  0.00     0.000 HD 
HETATM   22  C   UNL     1      -7.612   8.886  70.854  1.00  0.00    -0.110 C  
HETATM   23  O   UNL     1      -7.128   9.131  71.948  1.00  0.00    -0.314 OA 
BRANCH  22  24
HETATM   24  C   UNL     1      -8.831   9.676  70.408  1.00  0.00    -0.178 C  
BRANCH  24  25
HETATM   25  C   UNL     1     -10.161   9.262  70.840  1.00  0.00    -0.301 A  
HETATM   26  O   UNL     1     -11.269  10.039  70.626  1.00  0.00    -0.304 OA 
HETATM   27  C   UNL     1     -10.502   8.244  71.723  1.00  0.00    -0.325 A  
HETATM   28  C   UNL     1     -12.249   9.582  71.456  1.00  0.00    -0.386 A  
HETATM   29  C   UNL     1     -11.821   8.484  72.162  1.00  0.00    -0.448 A  
ENDBRANCH  24  25
BRANCH  24  30
HETATM   30  N   UNL     1      -8.860  10.606  69.499  1.00  0.00    -0.398 NA 
HETATM   31  H   UNL     1      -9.775  10.913  69.173  1.00  0.00     0.000 HD 
BRANCH  30  32
HETATM   32  O   UNL     1      -7.743  11.216  68.934  1.00  0.00    -0.131 OA 
HETATM   33  C   UNL     1      -7.827  12.490  68.341  1.00  0.00    -0.141 C  
ENDBRANCH  30  32
ENDBRANCH  24  30
ENDBRANCH  22  24
ENDBRANCH   5  20
TORSDOF 8
ENDMDL
MODEL      131
REMARK 921   NORMALIZED FREE ENERGY PREDICTED BY IDOCK:   -4.87 KCAL/MOL
REMARK 922        TOTAL FREE ENERGY PREDICTED BY IDOCK:   -8.54 KCAL/MOL
REMARK 923 INTER-LIGAND FREE ENERGY PREDICTED BY IDOCK:   -7.36 KCAL/MOL
REMARK 924 INTRA-LIGAND FREE ENERGY PREDICTED BY IDOCK:   -1.18 KCAL/MOL
REMARK 927      BINDING AFFINITY PREDICTED BY RF-SCORE:    0.00 PKD
ROOT
HETATM    1  C   UNL     1      -8.924  14.883  69.240  1.00  0.00    -0.099 C  
HETATM    2  S   UNL     1     -10.647  15.227  69.004  1.00  0.00    -0.257 SA 
HETATM    3  C   UNL     1     -11.264  13.748  68.153  1.00  0.00    -0.271 C  
HETATM    4  C   UNL     1     -10.332  12.594  67.918  1.00  0.00    -0.221 C  
HETATM    5  CA  UNL     1      -7.624  15.660  68.719  1.00  0.00    -0.162 C  
HETATM    6  CA  UNL     1      -9.013  12.576  68.189  1.00  0.00    -0.199 C  
HETATM    7  C   UNL     1      -7.107  14.204  68.552  1.00  0.00    -0.103 C  
HETATM    8  C   UNL     1      -8.222  11.316  67.980  1.00  0.00    -0.134 C  
HETATM    9  N   UNL     1      -8.365  13.722  68.608  1.00  0.00    -0.115 N  
HETATM   10  OXT UNL     1      -8.700  10.219  68.226  1.00  0.00    -0.121 OA 
HETATM   11  O   UNL     1      -6.075  13.684  68.246  1.00  0.00    -0.087 OA 
HETATM   12  O   UNL     1      -6.960  11.437  67.542  1.00  0.00    -0.088 OA 
ENDROOT
BRANCH   4  13
HETATM   13  C   UNL     1     -11.032  11.451  67.177  1.00  0.00    -0.285 C  
BRANCH  13  14
HETATM   14  O   UNL     1     -11.049  11.650  65.750  1.00  0.00    -0.302 OA 
BRANCH  14  15
HETATM   15  C   UNL     1     -10.493  10.685  64.991  1.00  0.00    -0.208 C  
HETATM   16  O   UNL     1      -9.960   9.660  65.388  1.00  0.00    -0.316 OA 
HETATM   17  N   UNL     1     -10.556  11.027  63.683  1.00  0.00    -0.541 N  
HETATM   18  H2  UNL     1     -10.964  11.890  63.324  1.00  0.00     0.000 HD 
HETATM   19  H1  UNL     1     -10.135  10.296  63.109  1.00  0.00     0.000 HD 
ENDBRANCH  14  15
ENDBRANCH  13  14
ENDBRANCH   4  13
BRANCH   5  20
HETATM   20  N   UNL     1      -7.287  16.476  67.485  1.00  0.00    -0.133 N  
HETATM   21  H   UNL     1      -6.298  16.718  67.446  1.00  0.00     0.000 HD 
HETATM   22  C   UNL     1      -7.999  16.981  66.381  1.00  0.00    -0.307 C  
HETATM   23  O   UNL     1      -7.369  17.547  65.501  1.00  0.00    -0.355 OA 
BRANCH  22  24
HETATM   24  C   UNL     1      -9.517  17.028  66.331  1.00  0.00    -0.271 C  
BRANCH  24  25
HETATM   25  C   UNL     1     -10.234  16.239  65.337  1.00  0.00    -0.229 A  
HETATM   26  O   UNL     1     -11.209  16.782  64.543  1.00  0.00    -0.997 OA 
HETATM   27  C   UNL     1     -10.280  14.855  65.206  1.00  0.00    -0.404 A  
HETATM   28  C   UNL     1     -11.928  15.747  64.021  1.00  0.00     0.156 A  
HETATM   29  C   UNL     1     -11.402  14.540  64.410  1.00  0.00    -0.247 A  
ENDBRANCH  24  25
BRANCH  24  30
HETATM   30  N   UNL     1     -10.285  17.861  66.968  1.00  0.00    -0.343 NA 
HETATM   31  H   UNL     1     -11.289  17.787  66.808  1.00  0.00     0.000 HD 
BRANCH  30  32
HETATM   32  O   UNL     1      -9.851  18.847  67.850  1.00  0.00    -0.317 OA 
HETATM   33  C   UNL     1     -10.138  20.208  67.626  1.00  0.00    -0.402 C  
ENDBRANCH  30  32
ENDBRANCH  24  30
ENDBRANCH  22  24
ENDBRANCH   5  20
TORSDOF 8
ENDMDL
MODEL      132
REMARK 921   NORMALIZED FREE ENERGY PREDICTED BY IDOCK:   -4.86 KCAL/MOL
REMARK 922        TOTAL FREE ENERGY PREDICTED BY IDOCK:   -8.52 KCAL/MOL
REMARK 923 INTER-LIGAND FREE ENERGY PREDICTED BY IDOCK:   -7.41 KCAL/MOL
REMARK 924 INTRA-LIGAND FREE ENERGY PREDICTED BY IDOCK:   -1.12 KCAL/MOL
REMARK 927      BINDING AFFINITY PREDICTED BY RF-SCORE:    0.00 PKD
ROOT
HETATM    1  C   UNL     1     -11.198   9.434  70.225  1.00  0.00    -0.246 C  
HETATM    2  S   UNL     1     -12.441   9.982  71.363  1.00  0.00    -0.444 SA 
HETATM    3  C   UNL     1     -12.653  11.737  70.950  1.00  0.00    -0.289 C  
HETATM    4  C   UNL     1     -11.895  12.314  69.789  1.00  0.00    -0.388 C  
HETATM    5  CA  UNL     1      -9.745   8.811  70.487  1.00  0.00    -0.190 C  
HETATM    6  CA  UNL     1     -10.963  11.674  69.057  1.00  0.00    -0.233 C  
HETATM    7  C   UNL     1      -9.402   9.688  69.251  1.00  0.00    -0.180 C  
HETATM    8  C   UNL     1     -10.348  12.353  67.867  1.00  0.00    -0.210 C  
HETATM    9  N   UNL     1     -10.525  10.414  69.421  1.00  0.00    -0.224 N  
HETATM   10  OXT UNL     1     -11.010  13.076  67.138  1.00  0.00    -0.260 OA 
HETATM   11  O   UNL     1      -8.446   9.864  68.556  1.00  0.00    -0.108 OA 
HETATM   12  O   UNL     1      -9.051  12.117  67.615  1.00  0.00    -0.169 OA 
ENDROOT
BRANCH   4  13
HETATM   13  C   UNL     1     -12.195  13.805  69.611  1.00  0.00    -0.305 C  
BRANCH  13  14
HETATM   14  O   UNL     1     -11.632  14.610  70.666  1.00  0.00    -0.278 OA 
BRANCH  14  15
HETATM   15  C   UNL     1     -12.449  15.506  71.253  1.00  0.00    -0.425 C  
HETATM   16  O   UNL     1     -12.155  16.291  72.141  1.00  0.00    -0.496 OA 
HETATM   17  N   UNL     1     -13.702  15.391  70.753  1.00  0.00    -0.845 N  
HETATM   18  H2  UNL     1     -13.986  14.723  70.036  1.00  0.00     0.000 HD 
HETATM   19  H1  UNL     1     -14.320  16.070  71.198  1.00  0.00     0.000 HD 
ENDBRANCH  14  15
ENDBRANCH  13  14
ENDBRANCH   4  13
BRANCH   5  20
HETATM   20  N   UNL     1      -8.684   8.983  71.558  1.00  0.00    -0.153 N  
HETATM   21  H   UNL     1      -8.021   9.722  71.322  1.00  0.00     0.000 HD 
HETATM   22  C   UNL     1      -8.385   8.379  72.793  1.00  0.00    -0.135 C  
HETATM   23  O   UNL     1      -7.468   8.842  73.454  1.00  0.00    -0.368 OA 
BRANCH  22  24
HETATM   24  C   UNL     1      -9.016   7.072  73.244  1.00  0.00    -0.133 C  
BRANCH  24  25
HETATM   25  C   UNL     1      -8.285   5.821  73.083  1.00  0.00    -0.117 A  
HETATM   26  O   UNL     1      -8.158   5.205  71.866  1.00  0.00    -0.111 OA 
HETATM   27  C   UNL     1      -7.863   4.937  74.070  1.00  0.00    -0.101 A  
HETATM   28  C   UNL     1      -7.777   3.917  72.104  1.00  0.00    -0.071 A  
HETATM   29  C   UNL     1      -7.594   3.699  73.448  1.00  0.00    -0.062 A  
ENDBRANCH  24  25
BRANCH  24  30
HETATM   30  N   UNL     1     -10.253   6.894  73.601  1.00  0.00    -0.304 NA 
HETATM   31  H   UNL     1     -10.610   7.476  74.358  1.00  0.00     0.000 HD 
BRANCH  30  32
HETATM   32  O   UNL     1     -11.132   5.974  73.035  1.00  0.00    -0.260 OA 
HETATM   33  C   UNL     1     -11.975   6.331  71.964  1.00  0.00    -0.300 C  
ENDBRANCH  30  32
ENDBRANCH  24  30
ENDBRANCH  22  24
ENDBRANCH   5  20
TORSDOF 8
ENDMDL
MODEL      133
REMARK 921   NORMALIZED FREE ENERGY PREDICTED BY IDOCK:   -4.85 KCAL/MOL
REMARK 922        TOTAL FREE ENERGY PREDICTED BY IDOCK:   -8.51 KCAL/MOL
REMARK 923 INTER-LIGAND FREE ENERGY PREDICTED BY IDOCK:   -7.59 KCAL/MOL
REMARK 924 INTRA-LIGAND FREE ENERGY PREDICTED BY IDOCK:   -0.92 KCAL/MOL
REMARK 927      BINDING AFFINITY PREDICTED BY RF-SCORE:    0.00 PKD
ROOT
HETATM    1  C   UNL     1     -11.937  10.848  69.666  1.00  0.00    -0.343 C  
HETATM    2  S   UNL     1     -12.856  10.168  71.020  1.00  0.00    -0.379 SA 
HETATM    3  C   UNL     1     -13.363  11.630  71.968  1.00  0.00    -0.300 C  
HETATM    4  C   UNL     1     -13.032  12.997  71.440  1.00  0.00    -0.373 C  
HETATM    5  CA  UNL     1     -10.412  10.630  69.226  1.00  0.00    -0.227 C  
HETATM    6  CA  UNL     1     -12.285  13.265  70.353  1.00  0.00    -0.332 C  
HETATM    7  C   UNL     1     -10.531  12.146  68.908  1.00  0.00    -0.113 C  
HETATM    8  C   UNL     1     -12.110  14.685  69.895  1.00  0.00    -0.335 C  
HETATM    9  N   UNL     1     -11.630  12.250  69.682  1.00  0.00    -0.295 N  
HETATM   10  OXT UNL     1     -13.025  15.491  69.965  1.00  0.00    -0.159 OA 
HETATM   11  O   UNL     1      -9.836  12.980  68.407  1.00  0.00    -0.228 OA 
HETATM   12  O   UNL     1     -10.921  15.032  69.377  1.00  0.00    -0.244 OA 
ENDROOT
BRANCH   4  13
HETATM   13  C   UNL     1     -13.529  14.096  72.385  1.00  0.00    -0.517 C  
BRANCH  13  14
HETATM   14  O   UNL     1     -12.495  14.569  73.270  1.00  0.00    -0.345 OA 
BRANCH  14  15
HETATM   15  C   UNL     1     -12.352  15.904  73.385  1.00  0.00    -0.538 C  
HETATM   16  O   UNL     1     -11.780  16.648  72.604  1.00  0.00    -0.486 OA 
HETATM   17  N   UNL     1     -12.900  16.332  74.547  1.00  0.00    -0.971 N  
HETATM   18  H2  UNL     1     -13.354  15.731  75.235  1.00  0.00     0.000 HD 
HETATM   19  H1  UNL     1     -12.791  17.342  74.634  1.00  0.00     0.000 HD 
ENDBRANCH  14  15
ENDBRANCH  13  14
ENDBRANCH   4  13
BRANCH   5  20
HETATM   20  N   UNL     1      -9.115  10.352  69.962  1.00  0.00    -0.336 N  
HETATM   21  H   UNL     1      -9.020  10.929  70.798  1.00  0.00     0.000 HD 
HETATM   22  C   UNL     1      -8.011   9.500  69.780  1.00  0.00    -0.133 C  
HETATM   23  O   UNL     1      -7.149   9.480  70.645  1.00  0.00    -0.111 OA 
BRANCH  22  24
HETATM   24  C   UNL     1      -7.748   8.758  68.480  1.00  0.00    -0.099 C  
BRANCH  24  25
HETATM   25  C   UNL     1      -7.784   9.480  67.213  1.00  0.00    -0.091 A  
HETATM   26  O   UNL     1      -8.696   9.186  66.234  1.00  0.00    -0.130 OA 
HETATM   27  C   UNL     1      -6.819  10.325  66.676  1.00  0.00    -0.091 A  
HETATM   28  C   UNL     1      -8.238   9.742  65.076  1.00  0.00    -0.142 A  
HETATM   29  C   UNL     1      -7.078  10.444  65.294  1.00  0.00    -0.098 A  
ENDBRANCH  24  25
BRANCH  24  30
HETATM   30  N   UNL     1      -7.676   7.469  68.326  1.00  0.00    -0.117 NA 
HETATM   31  H   UNL     1      -8.547   6.970  68.150  1.00  0.00     0.000 HD 
BRANCH  30  32
HETATM   32  O   UNL     1      -6.507   6.714  68.383  1.00  0.00    -0.045 OA 
HETATM   33  C   UNL     1      -5.540   6.786  67.361  1.00  0.00    -0.013 C  
ENDBRANCH  30  32
ENDBRANCH  24  30
ENDBRANCH  22  24
ENDBRANCH   5  20
TORSDOF 8
ENDMDL
MODEL      134
REMARK 921   NORMALIZED FREE ENERGY PREDICTED BY IDOCK:   -4.84 KCAL/MOL
REMARK 922        TOTAL FREE ENERGY PREDICTED BY IDOCK:   -8.50 KCAL/MOL
REMARK 923 INTER-LIGAND FREE ENERGY PREDICTED BY IDOCK:   -6.35 KCAL/MOL
REMARK 924 INTRA-LIGAND FREE ENERGY PREDICTED BY IDOCK:   -2.15 KCAL/MOL
REMARK 927      BINDING AFFINITY PREDICTED BY RF-SCORE:    0.00 PKD
ROOT
HETATM    1  C   UNL     1     -11.671   8.950  70.629  1.00  0.00    -0.179 C  
HETATM    2  S   UNL     1     -11.309  10.547  69.951  1.00  0.00    -0.331 SA 
HETATM    3  C   UNL     1     -10.516  10.166  68.364  1.00  0.00    -0.208 C  
HETATM    4  C   UNL     1     -10.410   8.734  67.921  1.00  0.00    -0.281 C  
HETATM    5  CA  UNL     1     -11.183   8.259  71.990  1.00  0.00    -0.323 C  
HETATM    6  CA  UNL     1     -10.762   7.655  68.646  1.00  0.00    -0.059 C  
HETATM    7  C   UNL     1     -11.139   7.010  71.066  1.00  0.00    -0.264 C  
HETATM    8  C   UNL     1     -10.680   6.284  68.037  1.00  0.00    -0.295 C  
HETATM    9  N   UNL     1     -11.147   7.790  69.966  1.00  0.00    -0.220 N  
HETATM   10  OXT UNL     1     -10.964   6.094  66.864  1.00  0.00    -0.343 OA 
HETATM   11  O   UNL     1     -10.929   5.842  71.204  1.00  0.00    -0.265 OA 
HETATM   12  O   UNL     1     -10.313   5.269  68.833  1.00  0.00    -0.200 OA 
ENDROOT
BRANCH   4  13
HETATM   13  C   UNL     1      -9.700   8.618  66.569  1.00  0.00    -0.255 C  
BRANCH  13  14
HETATM   14  O   UNL     1     -10.114   9.639  65.640  1.00  0.00    -0.296 OA 
BRANCH  14  15
HETATM   15  C   UNL     1      -9.241   9.973  64.669  1.00  0.00    -0.258 C  
HETATM   16  O   UNL     1      -8.126  10.448  64.820  1.00  0.00    -0.160 OA 
HETATM   17  N   UNL     1      -9.794   9.754  63.453  1.00  0.00    -0.395 N  
HETATM   18  H2  UNL     1     -10.734   9.390  63.295  1.00  0.00     0.000 HD 
HETATM   19  H1  UNL     1      -9.133  10.007  62.718  1.00  0.00     0.000 HD 
ENDBRANCH  14  15
ENDBRANCH  13  14
ENDBRANCH   4  13
BRANCH   5  20
HETATM   20  N   UNL     1      -9.924   8.327  72.833  1.00  0.00    -0.271 N  
HETATM   21  H   UNL     1     -10.131   8.301  73.831  1.00  0.00     0.000 HD 
HETATM   22  C   UNL     1      -8.542   8.418  72.582  1.00  0.00    -0.171 C  
HETATM   23  O   UNL     1      -7.779   8.367  73.535  1.00  0.00    -0.280 OA 
BRANCH  22  24
HETATM   24  C   UNL     1      -7.973   8.770  71.218  1.00  0.00    -0.139 C  
BRANCH  24  25
HETATM   25  C   UNL     1      -7.416   7.721  70.372  1.00  0.00    -0.078 A  
HETATM   26  O   UNL     1      -7.133   7.930  69.048  1.00  0.00    -0.066 OA 
HETATM   27  C   UNL     1      -7.340   6.357  70.629  1.00  0.00    -0.079 A  
HETATM   28  C   UNL     1      -7.001   6.703  68.466  1.00  0.00    -0.080 A  
HETATM   29  C   UNL     1      -7.133   5.702  69.397  1.00  0.00    -0.065 A  
ENDBRANCH  24  25
BRANCH  24  30
HETATM   30  N   UNL     1      -7.741   9.966  70.763  1.00  0.00    -0.394 NA 
HETATM   31  H   UNL     1      -8.457  10.390  70.174  1.00  0.00     0.000 HD 
BRANCH  30  32
HETATM   32  O   UNL     1      -6.594  10.715  71.013  1.00  0.00    -0.289 OA 
HETATM   33  C   UNL     1      -5.790  11.195  69.961  1.00  0.00    -0.112 C  
ENDBRANCH  30  32
ENDBRANCH  24  30
ENDBRANCH  22  24
ENDBRANCH   5  20
TORSDOF 8
ENDMDL
MODEL      135
REMARK 921   NORMALIZED FREE ENERGY PREDICTED BY IDOCK:   -4.84 KCAL/MOL
REMARK 922        TOTAL FREE ENERGY PREDICTED BY IDOCK:   -8.50 KCAL/MOL
REMARK 923 INTER-LIGAND FREE ENERGY PREDICTED BY IDOCK:   -7.17 KCAL/MOL
REMARK 924 INTRA-LIGAND FREE ENERGY PREDICTED BY IDOCK:   -1.33 KCAL/MOL
REMARK 927      BINDING AFFINITY PREDICTED BY RF-SCORE:    0.00 PKD
ROOT
HETATM    1  C   UNL     1      -8.219  11.041  68.459  1.00  0.00    -0.146 C  
HETATM    2  S   UNL     1      -7.293   9.981  69.536  1.00  0.00    -0.130 SA 
HETATM    3  C   UNL     1      -7.061   8.473  68.554  1.00  0.00    -0.073 C  
HETATM    4  C   UNL     1      -7.554   8.438  67.135  1.00  0.00    -0.093 C  
HETATM    5  CA  UNL     1      -9.667  11.702  68.637  1.00  0.00    -0.143 C  
HETATM    6  CA  UNL     1      -8.267   9.402  66.522  1.00  0.00    -0.115 C  
HETATM    7  C   UNL     1      -9.751  11.366  67.123  1.00  0.00    -0.182 C  
HETATM    8  C   UNL     1      -8.618   9.266  65.068  1.00  0.00    -0.177 C  
HETATM    9  N   UNL     1      -8.726  10.496  67.232  1.00  0.00    -0.126 N  
HETATM   10  OXT UNL     1      -7.835   8.772  64.271  1.00  0.00    -0.118 OA 
HETATM   11  O   UNL     1     -10.527  11.563  66.236  1.00  0.00    -0.235 OA 
HETATM   12  O   UNL     1      -9.811   9.731  64.668  1.00  0.00    -0.228 OA 
ENDROOT
BRANCH   4  13
HETATM   13  C   UNL     1      -7.280   7.081  66.481  1.00  0.00    -0.082 C  
BRANCH  13  14
HETATM   14  O   UNL     1      -8.331   6.127  66.730  1.00  0.00    -0.108 OA 
BRANCH  14  15
HETATM   15  C   UNL     1      -8.553   5.199  65.778  1.00  0.00    -0.135 C  
HETATM   16  O   UNL     1      -8.494   3.987  65.912  1.00  0.00    -0.108 OA 
HETATM   17  N   UNL     1      -8.809   5.801  64.592  1.00  0.00    -0.362 N  
HETATM   18  H2  UNL     1      -8.831   6.810  64.442  1.00  0.00     0.000 HD 
HETATM   19  H1  UNL     1      -8.976   5.099  63.872  1.00  0.00     0.000 HD 
ENDBRANCH  14  15
ENDBRANCH  13  14
ENDBRANCH   4  13
BRANCH   5  20
HETATM   20  N   UNL     1     -10.952  11.294  69.333  1.00  0.00    -0.330 N  
HETATM   21  H   UNL     1     -11.108  10.287  69.285  1.00  0.00     0.000 HD 
HETATM   22  C   UNL     1     -11.982  11.956  70.026  1.00  0.00    -0.332 C  
HETATM   23  O   UNL     1     -12.855  11.278  70.545  1.00  0.00    -0.201 OA 
BRANCH  22  24
HETATM   24  C   UNL     1     -12.160  13.465  69.991  1.00  0.00    -0.334 C  
BRANCH  24  25
HETATM   25  C   UNL     1     -12.465  14.187  71.221  1.00  0.00    -0.370 A  
HETATM   26  O   UNL     1     -13.744  14.298  71.700  1.00  0.00    -0.362 OA 
HETATM   27  C   UNL     1     -11.653  15.067  71.926  1.00  0.00    -0.426 A  
HETATM   28  C   UNL     1     -13.748  15.317  72.607  1.00  0.00    -0.508 A  
HETATM   29  C   UNL     1     -12.485  15.832  72.772  1.00  0.00    -0.558 A  
ENDBRANCH  24  25
BRANCH  24  30
HETATM   30  N   UNL     1     -12.265  14.206  68.928  1.00  0.00    -0.538 NA 
HETATM   31  H   UNL     1     -12.246  15.217  69.060  1.00  0.00     0.000 HD 
BRANCH  30  32
HETATM   32  O   UNL     1     -12.400  13.734  67.625  1.00  0.00    -0.260 OA 
HETATM   33  C   UNL     1     -11.900  14.462  66.528  1.00  0.00    -0.390 C  
ENDBRANCH  30  32
ENDBRANCH  24  30
ENDBRANCH  22  24
ENDBRANCH   5  20
TORSDOF 8
ENDMDL
MODEL      136
REMARK 921   NORMALIZED FREE ENERGY PREDICTED BY IDOCK:   -4.84 KCAL/MOL
REMARK 922        TOTAL FREE ENERGY PREDICTED BY IDOCK:   -8.49 KCAL/MOL
REMARK 923 INTER-LIGAND FREE ENERGY PREDICTED BY IDOCK:   -6.21 KCAL/MOL
REMARK 924 INTRA-LIGAND FREE ENERGY PREDICTED BY IDOCK:   -2.28 KCAL/MOL
REMARK 927      BINDING AFFINITY PREDICTED BY RF-SCORE:    0.00 PKD
ROOT
HETATM    1  C   UNL     1      -7.354  11.317  69.095  1.00  0.00    -0.104 C  
HETATM    2  S   UNL     1      -6.990  12.153  67.575  1.00  0.00    -0.151 SA 
HETATM    3  C   UNL     1      -8.580  12.163  66.702  1.00  0.00    -0.122 C  
HETATM    4  C   UNL     1      -9.797  11.611  67.388  1.00  0.00    -0.197 C  
HETATM    5  CA  UNL     1      -6.754   9.967  69.714  1.00  0.00    -0.086 C  
HETATM    6  CA  UNL     1      -9.819  10.995  68.585  1.00  0.00    -0.193 C  
HETATM    7  C   UNL     1      -8.235   9.782  70.146  1.00  0.00    -0.179 C  
HETATM    8  C   UNL     1     -11.128  10.571  69.187  1.00  0.00    -0.250 C  
HETATM    9  N   UNL     1      -8.641  10.699  69.245  1.00  0.00    -0.127 N  
HETATM   10  OXT UNL     1     -12.132  11.256  69.066  1.00  0.00    -0.394 OA 
HETATM   11  O   UNL     1      -8.850   8.999  70.807  1.00  0.00    -0.194 OA 
HETATM   12  O   UNL     1     -11.151   9.426  69.887  1.00  0.00    -0.238 OA 
ENDROOT
BRANCH   4  13
HETATM   13  C   UNL     1     -11.033  11.694  66.487  1.00  0.00    -0.299 C  
BRANCH  13  14
HETATM   14  O   UNL     1     -11.160  12.978  65.845  1.00  0.00    -0.276 OA 
BRANCH  14  15
HETATM   15  C   UNL     1     -12.295  13.668  66.076  1.00  0.00    -0.445 C  
HETATM   16  O   UNL     1     -13.104  14.044  65.243  1.00  0.00    -0.782 OA 
HETATM   17  N   UNL     1     -12.407  13.948  67.396  1.00  0.00    -0.482 N  
HETATM   18  H2  UNL     1     -11.732  13.677  68.111  1.00  0.00     0.000 HD 
HETATM   19  H1  UNL     1     -13.266  14.470  67.571  1.00  0.00     0.000 HD 
ENDBRANCH  14  15
ENDBRANCH  13  14
ENDBRANCH   4  13
BRANCH   5  20
HETATM   20  N   UNL     1      -6.215   8.672  69.136  1.00  0.00    -0.042 N  
HETATM   21  H   UNL     1      -5.327   8.406  69.560  1.00  0.00     0.000 HD 
HETATM   22  C   UNL     1      -6.634   7.747  68.162  1.00  0.00    -0.059 C  
HETATM   23  O   UNL     1      -5.968   6.735  68.004  1.00  0.00    -0.028 OA 
BRANCH  22  24
HETATM   24  C   UNL     1      -7.751   8.040  67.174  1.00  0.00    -0.101 C  
BRANCH  24  25
HETATM   25  C   UNL     1      -9.097   7.541  67.433  1.00  0.00    -0.126 A  
HETATM   26  O   UNL     1      -9.362   6.659  68.446  1.00  0.00    -0.126 OA 
HETATM   27  C   UNL     1     -10.216   7.618  66.611  1.00  0.00    -0.272 A  
HETATM   28  C   UNL     1     -10.582   6.106  68.191  1.00  0.00    -0.264 A  
HETATM   29  C   UNL     1     -11.144   6.655  67.064  1.00  0.00    -0.395 A  
ENDBRANCH  24  25
BRANCH  24  30
HETATM   30  N   UNL     1      -7.617   8.543  65.983  1.00  0.00    -0.088 NA 
HETATM   31  H   UNL     1      -8.408   8.453  65.346  1.00  0.00     0.000 HD 
BRANCH  30  32
HETATM   32  O   UNL     1      -6.482   9.193  65.504  1.00  0.00    -0.066 OA 
HETATM   33  C   UNL     1      -6.532   9.997  64.349  1.00  0.00    -0.131 C  
ENDBRANCH  30  32
ENDBRANCH  24  30
ENDBRANCH  22  24
ENDBRANCH   5  20
TORSDOF 8
ENDMDL
MODEL      137
REMARK 921   NORMALIZED FREE ENERGY PREDICTED BY IDOCK:   -4.83 KCAL/MOL
REMARK 922        TOTAL FREE ENERGY PREDICTED BY IDOCK:   -8.48 KCAL/MOL
REMARK 923 INTER-LIGAND FREE ENERGY PREDICTED BY IDOCK:   -6.41 KCAL/MOL
REMARK 924 INTRA-LIGAND FREE ENERGY PREDICTED BY IDOCK:   -2.07 KCAL/MOL
REMARK 927      BINDING AFFINITY PREDICTED BY RF-SCORE:    0.00 PKD
ROOT
HETATM    1  C   UNL     1      -7.966  11.157  68.682  1.00  0.00    -0.145 C  
HETATM    2  S   UNL     1      -9.515  11.817  68.128  1.00  0.00    -0.196 SA 
HETATM    3  C   UNL     1     -10.742  10.900  69.101  1.00  0.00    -0.226 C  
HETATM    4  C   UNL     1     -10.273   9.929  70.147  1.00  0.00    -0.326 C  
HETATM    5  CA  UNL     1      -6.808  10.398  67.876  1.00  0.00    -0.070 C  
HETATM    6  CA  UNL     1      -8.994   9.577  70.381  1.00  0.00    -0.243 C  
HETATM    7  C   UNL     1      -6.758   9.569  69.190  1.00  0.00    -0.049 C  
HETATM    8  C   UNL     1      -8.667   8.656  71.521  1.00  0.00    -0.202 C  
HETATM    9  N   UNL     1      -7.981  10.011  69.547  1.00  0.00    -0.142 N  
HETATM   10  OXT UNL     1      -9.269   8.723  72.582  1.00  0.00    -0.327 OA 
HETATM   11  O   UNL     1      -6.073   8.696  69.635  1.00  0.00    -0.032 OA 
HETATM   12  O   UNL     1      -7.670   7.775  71.346  1.00  0.00    -0.077 OA 
ENDROOT
BRANCH   4  13
HETATM   13  C   UNL     1     -11.452   9.247  70.846  1.00  0.00    -0.303 C  
BRANCH  13  14
HETATM   14  O   UNL     1     -11.631   7.883  70.419  1.00  0.00    -0.211 OA 
BRANCH  14  15
HETATM   15  C   UNL     1     -12.372   7.085  71.213  1.00  0.00    -0.383 C  
HETATM   16  O   UNL     1     -11.965   6.172  71.914  1.00  0.00    -0.312 OA 
HETATM   17  N   UNL     1     -13.683   7.401  71.096  1.00  0.00    -0.613 N  
HETATM   18  H2  UNL     1     -14.056   8.136  70.495  1.00  0.00     0.000 HD 
HETATM   19  H1  UNL     1     -14.243   6.797  71.698  1.00  0.00     0.000 HD 
ENDBRANCH  14  15
ENDBRANCH  13  14
ENDBRANCH   4  13
BRANCH   5  20
HETATM   20  N   UNL     1      -6.770   9.471  66.676  1.00  0.00    -0.071 N  
HETATM   21  H   UNL     1      -5.864   9.490  66.208  1.00  0.00     0.000 HD 
HETATM   22  C   UNL     1      -7.672   8.594  66.046  1.00  0.00    -0.100 C  
HETATM   23  O   UNL     1      -7.262   7.919  65.113  1.00  0.00    -0.059 OA 
BRANCH  22  24
HETATM   24  C   UNL     1      -9.162   8.592  66.342  1.00  0.00    -0.199 C  
BRANCH  24  25
HETATM   25  C   UNL     1      -9.724   7.575  67.224  1.00  0.00    -0.167 A  
HETATM   26  O   UNL     1      -8.977   6.960  68.193  1.00  0.00    -0.125 OA 
HETATM   27  C   UNL     1     -10.922   6.883  67.086  1.00  0.00    -0.427 A  
HETATM   28  C   UNL     1      -9.648   5.833  68.566  1.00  0.00    -0.126 A  
HETATM   29  C   UNL     1     -10.847   5.735  67.903  1.00  0.00    -0.257 A  
ENDBRANCH  24  25
BRANCH  24  30
HETATM   30  N   UNL     1     -10.071   9.297  65.737  1.00  0.00    -0.376 NA 
HETATM   31  H   UNL     1     -11.008   9.296  66.139  1.00  0.00     0.000 HD 
BRANCH  30  32
HETATM   32  O   UNL     1      -9.871  10.055  64.586  1.00  0.00    -0.318 OA 
HETATM   33  C   UNL     1     -10.685  11.166  64.290  1.00  0.00    -0.333 C  
ENDBRANCH  30  32
ENDBRANCH  24  30
ENDBRANCH  22  24
ENDBRANCH   5  20
TORSDOF 8
ENDMDL
MODEL      138
REMARK 921   NORMALIZED FREE ENERGY PREDICTED BY IDOCK:   -4.82 KCAL/MOL
REMARK 922        TOTAL FREE ENERGY PREDICTED BY IDOCK:   -8.47 KCAL/MOL
REMARK 923 INTER-LIGAND FREE ENERGY PREDICTED BY IDOCK:   -7.03 KCAL/MOL
REMARK 924 INTRA-LIGAND FREE ENERGY PREDICTED BY IDOCK:   -1.44 KCAL/MOL
REMARK 927      BINDING AFFINITY PREDICTED BY RF-SCORE:    0.00 PKD
ROOT
HETATM    1  C   UNL     1     -10.940  12.254  65.272  1.00  0.00    -0.307 C  
HETATM    2  S   UNL     1     -10.183  11.813  63.731  1.00  0.00    -0.440 SA 
HETATM    3  C   UNL     1      -9.415  10.205  64.078  1.00  0.00    -0.282 C  
HETATM    4  C   UNL     1      -9.619   9.570  65.424  1.00  0.00    -0.342 C  
HETATM    5  CA  UNL     1     -10.697  13.515  66.230  1.00  0.00    -0.288 C  
HETATM    6  CA  UNL     1     -10.248  10.129  66.475  1.00  0.00    -0.223 C  
HETATM    7  C   UNL     1     -10.893  12.427  67.323  1.00  0.00    -0.243 C  
HETATM    8  C   UNL     1     -10.453   9.337  67.735  1.00  0.00    -0.255 C  
HETATM    9  N   UNL     1     -10.663  11.447  66.427  1.00  0.00    -0.268 N  
HETATM   10  OXT UNL     1     -10.709   8.144  67.698  1.00  0.00    -0.221 OA 
HETATM   11  O   UNL     1     -10.966  12.406  68.516  1.00  0.00    -0.222 OA 
HETATM   12  O   UNL     1     -10.372   9.992  68.903  1.00  0.00    -0.182 OA 
ENDROOT
BRANCH   4  13
HETATM   13  C   UNL     1      -8.884   8.231  65.527  1.00  0.00    -0.110 C  
BRANCH  13  14
HETATM   14  O   UNL     1      -7.457   8.394  65.644  1.00  0.00    -0.078 OA 
BRANCH  14  15
HETATM   15  C   UNL     1      -6.815   7.570  66.495  1.00  0.00    -0.062 C  
HETATM   16  O   UNL     1      -5.734   7.031  66.315  1.00  0.00    -0.028 OA 
HETATM   17  N   UNL     1      -7.569   7.364  67.600  1.00  0.00    -0.104 N  
HETATM   18  H2  UNL     1      -8.489   7.773  67.764  1.00  0.00     0.000 HD 
HETATM   19  H1  UNL     1      -7.083   6.740  68.244  1.00  0.00     0.000 HD 
ENDBRANCH  14  15
ENDBRANCH  13  14
ENDBRANCH   4  13
BRANCH   5  20
HETATM   20  N   UNL     1      -9.503  14.386  66.571  1.00  0.00    -0.281 N  
HETATM   21  H   UNL     1      -8.622  13.946  66.308  1.00  0.00     0.000 HD 
HETATM   22  C   UNL     1      -9.308  15.649  67.160  1.00  0.00    -0.218 C  
HETATM   23  O   UNL     1      -8.170  16.093  67.206  1.00  0.00    -0.157 OA 
BRANCH  22  24
HETATM   24  C   UNL     1     -10.405  16.388  67.908  1.00  0.00    -0.286 C  
BRANCH  24  25
HETATM   25  C   UNL     1     -11.057  15.755  69.048  1.00  0.00    -0.282 A  
HETATM   26  O   UNL     1     -12.378  15.392  69.020  1.00  0.00    -0.176 OA 
HETATM   27  C   UNL     1     -10.605  15.668  70.360  1.00  0.00    -0.287 A  
HETATM   28  C   UNL     1     -12.771  15.198  70.311  1.00  0.00    -0.299 A  
HETATM   29  C   UNL     1     -11.717  15.368  71.176  1.00  0.00    -0.418 A  
ENDBRANCH  24  25
BRANCH  24  30
HETATM   30  N   UNL     1     -10.992  17.485  67.533  1.00  0.00    -0.192 NA 
HETATM   31  H   UNL     1     -12.011  17.485  67.506  1.00  0.00     0.000 HD 
BRANCH  30  32
HETATM   32  O   UNL     1     -10.344  18.662  67.165  1.00  0.00    -0.360 OA 
HETATM   33  C   UNL     1     -10.487  19.202  65.872  1.00  0.00    -0.424 C  
ENDBRANCH  30  32
ENDBRANCH  24  30
ENDBRANCH  22  24
ENDBRANCH   5  20
TORSDOF 8
ENDMDL
MODEL      139
REMARK 921   NORMALIZED FREE ENERGY PREDICTED BY IDOCK:   -4.82 KCAL/MOL
REMARK 922        TOTAL FREE ENERGY PREDICTED BY IDOCK:   -8.47 KCAL/MOL
REMARK 923 INTER-LIGAND FREE ENERGY PREDICTED BY IDOCK:   -6.41 KCAL/MOL
REMARK 924 INTRA-LIGAND FREE ENERGY PREDICTED BY IDOCK:   -2.05 KCAL/MOL
REMARK 927      BINDING AFFINITY PREDICTED BY RF-SCORE:    0.00 PKD
ROOT
HETATM    1  C   UNL     1      -8.478   5.748  71.966  1.00  0.00    -0.126 C  
HETATM    2  S   UNL     1      -9.740   4.508  72.072  1.00  0.00    -0.178 SA 
HETATM    3  C   UNL     1      -9.895   3.910  70.366  1.00  0.00    -0.105 C  
HETATM    4  C   UNL     1      -8.965   4.444  69.314  1.00  0.00    -0.148 C  
HETATM    5  CA  UNL     1      -8.522   7.313  72.306  1.00  0.00    -0.115 C  
HETATM    6  CA  UNL     1      -8.063   5.430  69.484  1.00  0.00    -0.096 C  
HETATM    7  C   UNL     1      -7.617   7.375  71.044  1.00  0.00    -0.086 C  
HETATM    8  C   UNL     1      -7.138   5.801  68.359  1.00  0.00    -0.077 C  
HETATM    9  N   UNL     1      -8.013   6.142  70.667  1.00  0.00    -0.109 N  
HETATM   10  OXT UNL     1      -6.675   4.952  67.613  1.00  0.00    -0.052 OA 
HETATM   11  O   UNL     1      -7.004   8.219  70.462  1.00  0.00    -0.036 OA 
HETATM   12  O   UNL     1      -6.815   7.096  68.220  1.00  0.00    -0.068 OA 
ENDROOT
BRANCH   4  13
HETATM   13  C   UNL     1      -9.262   3.832  67.943  1.00  0.00    -0.172 C  
BRANCH  13  14
HETATM   14  O   UNL     1     -10.286   4.552  67.228  1.00  0.00    -0.135 OA 
BRANCH  14  15
HETATM   15  C   UNL     1     -10.140   4.656  65.892  1.00  0.00    -0.258 C  
HETATM   16  O   UNL     1      -9.089   4.701  65.273  1.00  0.00    -0.142 OA 
HETATM   17  N   UNL     1     -11.353   4.762  65.300  1.00  0.00    -0.965 N  
HETATM   18  H2  UNL     1     -12.246   4.762  65.793  1.00  0.00     0.000 HD 
HETATM   19  H1  UNL     1     -11.243   4.842  64.289  1.00  0.00     0.000 HD 
ENDBRANCH  14  15
ENDBRANCH  13  14
ENDBRANCH   4  13
BRANCH   5  20
HETATM   20  N   UNL     1      -9.584   8.394  72.237  1.00  0.00    -0.278 N  
HETATM   21  H   UNL     1      -9.658   8.912  73.113  1.00  0.00     0.000 HD 
HETATM   22  C   UNL     1     -10.493   8.860  71.269  1.00  0.00    -0.287 C  
HETATM   23  O   UNL     1     -11.170   9.840  71.539  1.00  0.00    -0.360 OA 
BRANCH  22  24
HETATM   24  C   UNL     1     -10.806   8.091  69.997  1.00  0.00    -0.235 C  
BRANCH  24  25
HETATM   25  C   UNL     1     -10.177   8.481  68.740  1.00  0.00    -0.200 A  
HETATM   26  O   UNL     1      -9.445   9.633  68.622  1.00  0.00    -0.143 OA 
HETATM   27  C   UNL     1     -10.409   7.974  67.467  1.00  0.00    -0.330 A  
HETATM   28  C   UNL     1      -9.327   9.901  67.290  1.00  0.00    -0.145 A  
HETATM   29  C   UNL     1      -9.916   8.914  66.537  1.00  0.00    -0.358 A  
ENDBRANCH  24  25
BRANCH  24  30
HETATM   30  N   UNL     1     -11.747   7.207  69.840  1.00  0.00    -0.558 NA 
HETATM   31  H   UNL     1     -11.929   6.882  68.891  1.00  0.00     0.000 HD 
BRANCH  30  32
HETATM   32  O   UNL     1     -12.527   6.669  70.860  1.00  0.00    -0.325 OA 
HETATM   33  C   UNL     1     -13.588   7.398  71.432  1.00  0.00    -0.325 C  
ENDBRANCH  30  32
ENDBRANCH  24  30
ENDBRANCH  22  24
ENDBRANCH   5  20
TORSDOF 8
ENDMDL
MODEL      140
REMARK 921   NORMALIZED FREE ENERGY PREDICTED BY IDOCK:   -4.81 KCAL/MOL
REMARK 922        TOTAL FREE ENERGY PREDICTED BY IDOCK:   -8.46 KCAL/MOL
REMARK 923 INTER-LIGAND FREE ENERGY PREDICTED BY IDOCK:   -7.33 KCAL/MOL
REMARK 924 INTRA-LIGAND FREE ENERGY PREDICTED BY IDOCK:   -1.13 KCAL/MOL
REMARK 927      BINDING AFFINITY PREDICTED BY RF-SCORE:    0.00 PKD
ROOT
HETATM    1  C   UNL     1      -9.091  10.501  68.464  1.00  0.00    -0.154 C  
HETATM    2  S   UNL     1      -8.610  10.824  66.789  1.00  0.00    -0.139 SA 
HETATM    3  C   UNL     1      -9.709  12.177  66.283  1.00  0.00    -0.238 C  
HETATM    4  C   UNL     1     -10.651  12.773  67.290  1.00  0.00    -0.245 C  
HETATM    5  CA  UNL     1      -9.669   9.171  69.145  1.00  0.00    -0.163 C  
HETATM    6  CA  UNL     1     -10.849  12.329  68.546  1.00  0.00    -0.237 C  
HETATM    7  C   UNL     1     -10.532  10.216  69.906  1.00  0.00    -0.275 C  
HETATM    8  C   UNL     1     -11.763  13.081  69.472  1.00  0.00    -0.317 C  
HETATM    9  N   UNL     1     -10.260  11.156  68.979  1.00  0.00    -0.201 N  
HETATM   10  OXT UNL     1     -11.811  14.302  69.461  1.00  0.00    -0.287 OA 
HETATM   11  O   UNL     1     -11.328  10.193  70.798  1.00  0.00    -0.318 OA 
HETATM   12  O   UNL     1     -12.504  12.367  70.332  1.00  0.00    -0.239 OA 
ENDROOT
BRANCH   4  13
HETATM   13  C   UNL     1     -11.501  13.886  66.671  1.00  0.00    -0.355 C  
BRANCH  13  14
HETATM   14  O   UNL     1     -12.245  13.436  65.522  1.00  0.00    -0.400 OA 
BRANCH  14  15
HETATM   15  C   UNL     1     -12.103  14.144  64.385  1.00  0.00    -0.463 C  
HETATM   16  O   UNL     1     -12.657  13.932  63.317  1.00  0.00    -0.824 OA 
HETATM   17  N   UNL     1     -11.193  15.131  64.563  1.00  0.00    -0.655 N  
HETATM   18  H2  UNL     1     -10.689  15.312  65.431  1.00  0.00     0.000 HD 
HETATM   19  H1  UNL     1     -11.085  15.667  63.702  1.00  0.00     0.000 HD 
ENDBRANCH  14  15
ENDBRANCH  13  14
ENDBRANCH   4  13
BRANCH   5  20
HETATM   20  N   UNL     1     -10.539   8.020  68.677  1.00  0.00    -0.360 N  
HETATM   21  H   UNL     1     -11.408   7.959  69.207  1.00  0.00     0.000 HD 
HETATM   22  C   UNL     1     -10.446   7.015  67.696  1.00  0.00    -0.237 C  
HETATM   23  O   UNL     1     -11.405   6.277  67.536  1.00  0.00    -0.246 OA 
BRANCH  22  24
HETATM   24  C   UNL     1      -9.150   6.686  66.974  1.00  0.00    -0.130 C  
BRANCH  24  25
HETATM   25  C   UNL     1      -7.938   6.426  67.743  1.00  0.00    -0.114 A  
HETATM   26  O   UNL     1      -6.925   7.344  67.836  1.00  0.00    -0.068 OA 
HETATM   27  C   UNL     1      -7.479   5.212  68.241  1.00  0.00    -0.075 A  
HETATM   28  C   UNL     1      -5.818   6.680  68.274  1.00  0.00    -0.020 A  
HETATM   29  C   UNL     1      -6.104   5.361  68.525  1.00  0.00    -0.026 A  
ENDBRANCH  24  25
BRANCH  24  30
HETATM   30  N   UNL     1      -8.928   6.794  65.698  1.00  0.00    -0.358 NA 
HETATM   31  H   UNL     1      -9.420   7.534  65.199  1.00  0.00     0.000 HD 
BRANCH  30  32
HETATM   32  O   UNL     1      -8.072   5.983  64.956  1.00  0.00    -0.122 OA 
HETATM   33  C   UNL     1      -7.068   6.535  64.137  1.00  0.00    -0.057 C  
ENDBRANCH  30  32
ENDBRANCH  24  30
ENDBRANCH  22  24
ENDBRANCH   5  20
TORSDOF 8
ENDMDL
MODEL      141
REMARK 921   NORMALIZED FREE ENERGY PREDICTED BY IDOCK:   -4.81 KCAL/MOL
REMARK 922        TOTAL FREE ENERGY PREDICTED BY IDOCK:   -8.46 KCAL/MOL
REMARK 923 INTER-LIGAND FREE ENERGY PREDICTED BY IDOCK:   -7.23 KCAL/MOL
REMARK 924 INTRA-LIGAND FREE ENERGY PREDICTED BY IDOCK:   -1.23 KCAL/MOL
REMARK 927      BINDING AFFINITY PREDICTED BY RF-SCORE:    0.00 PKD
ROOT
HETATM    1  C   UNL     1      -8.363  13.190  68.336  1.00  0.00    -0.122 C  
HETATM    2  S   UNL     1      -7.208  14.160  67.406  1.00  0.00     0.011 SA 
HETATM    3  C   UNL     1      -8.147  15.655  66.986  1.00  0.00    -0.241 C  
HETATM    4  C   UNL     1      -9.539  15.822  67.524  1.00  0.00    -0.224 C  
HETATM    5  CA  UNL     1      -8.959  11.729  68.060  1.00  0.00    -0.176 C  
HETATM    6  CA  UNL     1     -10.231  14.904  68.226  1.00  0.00    -0.225 C  
HETATM    7  C   UNL     1     -10.243  12.402  68.620  1.00  0.00    -0.157 C  
HETATM    8  C   UNL     1     -11.587  15.245  68.774  1.00  0.00    -0.362 C  
HETATM    9  N   UNL     1      -9.728  13.628  68.402  1.00  0.00    -0.227 N  
HETATM   10  OXT UNL     1     -11.831  16.358  69.214  1.00  0.00    -0.136 OA 
HETATM   11  O   UNL     1     -11.350  12.049  68.902  1.00  0.00    -0.235 OA 
HETATM   12  O   UNL     1     -12.514  14.276  68.792  1.00  0.00    -0.157 OA 
ENDROOT
BRANCH   4  13
HETATM   13  C   UNL     1     -10.168  17.135  67.049  1.00  0.00    -0.313 C  
BRANCH  13  14
HETATM   14  O   UNL     1      -9.445  18.292  67.513  1.00  0.00    -0.263 OA 
BRANCH  14  15
HETATM   15  C   UNL     1     -10.125  19.453  67.578  1.00  0.00    -0.398 C  
HETATM   16  O   UNL     1     -10.506  20.131  66.637  1.00  0.00    -0.429 OA 
HETATM   17  N   UNL     1     -10.299  19.818  68.871  1.00  0.00    -0.594 N  
HETATM   18  H2  UNL     1      -9.963  19.290  69.677  1.00  0.00     0.000 HD 
HETATM   19  H1  UNL     1     -10.814  20.697  68.920  1.00  0.00     0.000 HD 
ENDBRANCH  14  15
ENDBRANCH  13  14
ENDBRANCH   4  13
BRANCH   5  20
HETATM   20  N   UNL     1      -9.293  10.927  66.816  1.00  0.00    -0.164 N  
HETATM   21  H   UNL     1      -9.187  11.480  65.966  1.00  0.00     0.000 HD 
HETATM   22  C   UNL     1      -9.711   9.611  66.543  1.00  0.00    -0.212 C  
HETATM   23  O   UNL     1      -9.809   9.269  65.374  1.00  0.00    -0.222 OA 
BRANCH  22  24
HETATM   24  C   UNL     1     -10.229   8.671  67.619  1.00  0.00    -0.239 C  
BRANCH  24  25
HETATM   25  C   UNL     1     -10.112   7.229  67.438  1.00  0.00    -0.204 A  
HETATM   26  O   UNL     1      -8.897   6.609  67.309  1.00  0.00    -0.117 OA 
HETATM   27  C   UNL     1     -11.108   6.320  67.101  1.00  0.00    -0.389 A  
HETATM   28  C   UNL     1      -9.129   5.372  66.784  1.00  0.00    -0.116 A  
HETATM   29  C   UNL     1     -10.476   5.151  66.626  1.00  0.00    -0.328 A  
ENDBRANCH  24  25
BRANCH  24  30
HETATM   30  N   UNL     1     -10.963   8.997  68.641  1.00  0.00    -0.448 NA 
HETATM   31  H   UNL     1     -11.955   9.160  68.472  1.00  0.00     0.000 HD 
BRANCH  30  32
HETATM   32  O   UNL     1     -10.506   9.141  69.949  1.00  0.00    -0.206 OA 
HETATM   33  C   UNL     1     -11.401   9.343  71.018  1.00  0.00    -0.337 C  
ENDBRANCH  30  32
ENDBRANCH  24  30
ENDBRANCH  22  24
ENDBRANCH   5  20
TORSDOF 8
ENDMDL
MODEL      142
REMARK 921   NORMALIZED FREE ENERGY PREDICTED BY IDOCK:   -4.77 KCAL/MOL
REMARK 922        TOTAL FREE ENERGY PREDICTED BY IDOCK:   -8.39 KCAL/MOL
REMARK 923 INTER-LIGAND FREE ENERGY PREDICTED BY IDOCK:   -7.35 KCAL/MOL
REMARK 924 INTRA-LIGAND FREE ENERGY PREDICTED BY IDOCK:   -1.04 KCAL/MOL
REMARK 927      BINDING AFFINITY PREDICTED BY RF-SCORE:    0.00 PKD
ROOT
HETATM    1  C   UNL     1     -11.481  10.261  68.668  1.00  0.00    -0.112 C  
HETATM    2  S   UNL     1     -11.609  11.807  69.526  1.00  0.00    -0.338 SA 
HETATM    3  C   UNL     1     -11.039  13.021  68.304  1.00  0.00    -0.263 C  
HETATM    4  C   UNL     1     -10.694  12.560  66.916  1.00  0.00    -0.268 C  
HETATM    5  CA  UNL     1     -10.622   8.951  69.002  1.00  0.00    -0.183 C  
HETATM    6  CA  UNL     1     -10.664  11.281  66.494  1.00  0.00    -0.271 C  
HETATM    7  C   UNL     1     -10.461   8.947  67.456  1.00  0.00    -0.269 C  
HETATM    8  C   UNL     1     -10.384  10.976  65.050  1.00  0.00    -0.295 C  
HETATM    9  N   UNL     1     -10.834  10.241  67.387  1.00  0.00    -0.288 N  
HETATM   10  OXT UNL     1     -10.817  11.687  64.156  1.00  0.00    -0.322 OA 
HETATM   11  O   UNL     1      -9.974   8.222  66.641  1.00  0.00    -0.247 OA 
HETATM   12  O   UNL     1      -9.666   9.877  64.772  1.00  0.00    -0.309 OA 
ENDROOT
BRANCH   4  13
HETATM   13  C   UNL     1     -10.222  13.724  66.041  1.00  0.00    -0.308 C  
BRANCH  13  14
HETATM   14  O   UNL     1     -11.318  14.454  65.457  1.00  0.00    -0.319 OA 
BRANCH  14  15
HETATM   15  C   UNL     1     -11.035  15.657  64.920  1.00  0.00    -0.431 C  
HETATM   16  O   UNL     1     -10.196  16.453  65.312  1.00  0.00    -0.575 OA 
HETATM   17  N   UNL     1     -11.865  15.909  63.880  1.00  0.00    -0.929 N  
HETATM   18  H2  UNL     1     -12.597  15.279  63.550  1.00  0.00     0.000 HD 
HETATM   19  H1  UNL     1     -11.650  16.820  63.474  1.00  0.00     0.000 HD 
ENDBRANCH  14  15
ENDBRANCH  13  14
ENDBRANCH   4  13
BRANCH   5  20
HETATM   20  N   UNL     1      -9.283   8.689  69.665  1.00  0.00    -0.155 N  
HETATM   21  H   UNL     1      -8.717   9.535  69.729  1.00  0.00     0.000 HD 
HETATM   22  C   UNL     1      -8.627   7.572  70.214  1.00  0.00    -0.144 C  
HETATM   23  O   UNL     1      -7.548   7.748  70.758  1.00  0.00    -0.076 OA 
BRANCH  22  24
HETATM   24  C   UNL     1      -9.102   6.146  69.989  1.00  0.00    -0.147 C  
BRANCH  24  25
HETATM   25  C   UNL     1      -9.046   5.566  68.653  1.00  0.00    -0.117 A  
HETATM   26  O   UNL     1      -9.888   4.558  68.263  1.00  0.00    -0.147 OA 
HETATM   27  C   UNL     1      -8.043   5.695  67.699  1.00  0.00    -0.101 A  
HETATM   28  C   UNL     1      -9.349   3.991  67.146  1.00  0.00    -0.184 A  
HETATM   29  C   UNL     1      -8.204   4.648  66.766  1.00  0.00    -0.106 A  
ENDBRANCH  24  25
BRANCH  24  30
HETATM   30  N   UNL     1      -9.753   5.406  70.837  1.00  0.00    -0.172 NA 
HETATM   31  H   UNL     1     -10.770   5.464  70.824  1.00  0.00     0.000 HD 
BRANCH  30  32
HETATM   32  O   UNL     1      -9.175   4.539  71.762  1.00  0.00    -0.127 OA 
HETATM   33  C   UNL     1      -9.503   3.170  71.785  1.00  0.00    -0.145 C  
ENDBRANCH  30  32
ENDBRANCH  24  30
ENDBRANCH  22  24
ENDBRANCH   5  20
TORSDOF 8
ENDMDL
MODEL      143
REMARK 921   NORMALIZED FREE ENERGY PREDICTED BY IDOCK:   -4.68 KCAL/MOL
REMARK 922        TOTAL FREE ENERGY PREDICTED BY IDOCK:   -8.27 KCAL/MOL
REMARK 923 INTER-LIGAND FREE ENERGY PREDICTED BY IDOCK:   -7.28 KCAL/MOL
REMARK 924 INTRA-LIGAND FREE ENERGY PREDICTED BY IDOCK:   -0.99 KCAL/MOL
REMARK 927      BINDING AFFINITY PREDICTED BY RF-SCORE:    0.00 PKD
ROOT
HETATM    1  C   UNL     1     -10.361  13.301  67.903  1.00  0.00    -0.238 C  
HETATM    2  S   UNL     1      -9.343  11.967  67.330  1.00  0.00    -0.183 SA 
HETATM    3  C   UNL     1      -9.713  10.620  68.489  1.00  0.00    -0.174 C  
HETATM    4  C   UNL     1     -10.764  10.826  69.541  1.00  0.00    -0.268 C  
HETATM    5  CA  UNL     1      -9.968  14.763  68.426  1.00  0.00    -0.223 C  
HETATM    6  CA  UNL     1     -11.415  11.978  69.793  1.00  0.00    -0.210 C  
HETATM    7  C   UNL     1     -11.128  14.466  69.416  1.00  0.00    -0.261 C  
HETATM    8  C   UNL     1     -12.508  12.011  70.824  1.00  0.00    -0.279 C  
HETATM    9  N   UNL     1     -11.053  13.146  69.151  1.00  0.00    -0.228 N  
HETATM   10  OXT UNL     1     -13.277  11.072  70.962  1.00  0.00    -0.237 OA 
HETATM   11  O   UNL     1     -11.710  15.068  70.269  1.00  0.00    -0.258 OA 
HETATM   12  O   UNL     1     -12.629  13.120  71.569  1.00  0.00    -0.296 OA 
ENDROOT
BRANCH   4  13
HETATM   13  C   UNL     1     -10.920   9.586  70.426  1.00  0.00    -0.278 C  
BRANCH  13  14
HETATM   14  O   UNL     1     -10.013   8.529  70.056  1.00  0.00    -0.183 OA 
BRANCH  14  15
HETATM   15  C   UNL     1     -10.313   7.287  70.486  1.00  0.00    -0.206 C  
HETATM   16  O   UNL     1      -9.569   6.517  71.071  1.00  0.00    -0.174 OA 
HETATM   17  N   UNL     1     -11.579   6.966  70.129  1.00  0.00    -0.522 N  
HETATM   18  H2  UNL     1     -12.213   7.575  69.611  1.00  0.00     0.000 HD 
HETATM   19  H1  UNL     1     -11.806   6.026  70.454  1.00  0.00     0.000 HD 
ENDBRANCH  14  15
ENDBRANCH  13  14
ENDBRANCH   4  13
BRANCH   5  20
HETATM   20  N   UNL     1      -8.785  15.351  69.171  1.00  0.00    -0.227 N  
HETATM   21  H   UNL     1      -8.712  14.985  70.121  1.00  0.00     0.000 HD 
HETATM   22  C   UNL     1      -7.763  16.274  68.881  1.00  0.00    -0.219 C  
HETATM   23  O   UNL     1      -6.897  16.458  69.723  1.00  0.00    -0.177 OA 
BRANCH  22  24
HETATM   24  C   UNL     1      -7.798  17.186  67.667  1.00  0.00    -0.176 C  
BRANCH  24  25
HETATM   25  C   UNL     1      -8.835  18.207  67.556  1.00  0.00    -0.256 A  
HETATM   26  O   UNL     1      -9.508  18.680  68.651  1.00  0.00    -0.342 OA 
HETATM   27  C   UNL     1      -9.489  18.649  66.412  1.00  0.00    -0.319 A  
HETATM   28  C   UNL     1     -10.631  19.305  68.195  1.00  0.00    -0.265 A  
HETATM   29  C   UNL     1     -10.671  19.301  66.822  1.00  0.00    -0.526 A  
ENDBRANCH  24  25
BRANCH  24  30
HETATM   30  N   UNL     1      -7.105  17.048  66.576  1.00  0.00    -0.251 NA 
HETATM   31  H   UNL     1      -7.379  16.300  65.940  1.00  0.00     0.000 HD 
BRANCH  30  32
HETATM   32  O   UNL     1      -6.018  17.836  66.205  1.00  0.00    -0.180 OA 
HETATM   33  C   UNL     1      -5.897  18.344  64.897  1.00  0.00    -0.126 C  
ENDBRANCH  30  32
ENDBRANCH  24  30
ENDBRANCH  22  24
ENDBRANCH   5  20
TORSDOF 8
ENDMDL
MODEL      144
REMARK 921   NORMALIZED FREE ENERGY PREDICTED BY IDOCK:   -4.66 KCAL/MOL
REMARK 922        TOTAL FREE ENERGY PREDICTED BY IDOCK:   -8.24 KCAL/MOL
REMARK 923 INTER-LIGAND FREE ENERGY PREDICTED BY IDOCK:   -7.04 KCAL/MOL
REMARK 924 INTRA-LIGAND FREE ENERGY PREDICTED BY IDOCK:   -1.20 KCAL/MOL
REMARK 927      BINDING AFFINITY PREDICTED BY RF-SCORE:    0.00 PKD
ROOT
HETATM    1  C   UNL     1      -7.494  12.570  68.147  1.00  0.00    -0.117 C  
HETATM    2  S   UNL     1      -6.780  11.739  69.541  1.00  0.00    -0.016 SA 
HETATM    3  C   UNL     1      -7.708  10.183  69.631  1.00  0.00    -0.163 C  
HETATM    4  C   UNL     1      -8.729   9.875  68.572  1.00  0.00    -0.121 C  
HETATM    5  CA  UNL     1      -8.245  13.981  68.046  1.00  0.00    -0.155 C  
HETATM    6  CA  UNL     1      -9.116  10.703  67.584  1.00  0.00    -0.142 C  
HETATM    7  C   UNL     1      -9.124  13.179  67.048  1.00  0.00    -0.231 C  
HETATM    8  C   UNL     1     -10.088  10.224  66.543  1.00  0.00    -0.231 C  
HETATM    9  N   UNL     1      -8.671  12.011  67.546  1.00  0.00    -0.159 N  
HETATM   10  OXT UNL     1     -10.049   9.079  66.120  1.00  0.00    -0.290 OA 
HETATM   11  O   UNL     1     -10.028  13.422  66.304  1.00  0.00    -0.283 OA 
HETATM   12  O   UNL     1     -10.981  11.107  66.071  1.00  0.00    -0.227 OA 
ENDROOT
BRANCH   4  13
HETATM   13  C   UNL     1      -9.413   8.529  68.830  1.00  0.00    -0.147 C  
BRANCH  13  14
HETATM   14  O   UNL     1      -9.833   8.379  70.201  1.00  0.00    -0.178 OA 
BRANCH  14  15
HETATM   15  C   UNL     1     -10.096   7.127  70.625  1.00  0.00    -0.191 C  
HETATM   16  O   UNL     1     -11.077   6.761  71.254  1.00  0.00    -0.245 OA 
HETATM   17  N   UNL     1      -9.074   6.301  70.301  1.00  0.00    -0.153 N  
HETATM   18  H2  UNL     1      -8.228   6.585  69.807  1.00  0.00     0.000 HD 
HETATM   19  H1  UNL     1      -9.274   5.354  70.623  1.00  0.00     0.000 HD 
ENDBRANCH  14  15
ENDBRANCH  13  14
ENDBRANCH   4  13
BRANCH   5  20
HETATM   20  N   UNL     1      -9.124  14.795  68.977  1.00  0.00    -0.307 N  
HETATM   21  H   UNL     1      -9.208  14.364  69.897  1.00  0.00     0.000 HD 
HETATM   22  C   UNL     1      -9.854  15.995  68.887  1.00  0.00    -0.232 C  
HETATM   23  O   UNL     1     -10.404  16.411  69.896  1.00  0.00    -0.235 OA 
BRANCH  22  24
HETATM   24  C   UNL     1     -10.150  16.683  67.565  1.00  0.00    -0.273 C  
BRANCH  24  25
HETATM   25  C   UNL     1      -9.775  18.079  67.375  1.00  0.00    -0.296 A  
HETATM   26  O   UNL     1      -8.511  18.535  67.642  1.00  0.00    -0.259 OA 
HETATM   27  C   UNL     1     -10.609  19.176  67.188  1.00  0.00    -0.564 A  
HETATM   28  C   UNL     1      -8.584  19.894  67.737  1.00  0.00    -0.317 A  
HETATM   29  C   UNL     1      -9.859  20.336  67.478  1.00  0.00    -0.576 A  
ENDBRANCH  24  25
BRANCH  24  30
HETATM   30  N   UNL     1     -10.893  16.222  66.603  1.00  0.00    -0.189 NA 
HETATM   31  H   UNL     1     -11.733  15.708  66.867  1.00  0.00     0.000 HD 
BRANCH  30  32
HETATM   32  O   UNL     1     -10.636  16.372  65.243  1.00  0.00    -0.548 OA 
HETATM   33  C   UNL     1     -11.514  15.853  64.271  1.00  0.00    -0.191 C  
ENDBRANCH  30  32
ENDBRANCH  24  30
ENDBRANCH  22  24
ENDBRANCH   5  20
TORSDOF 8
ENDMDL
MODEL      145
REMARK 921   NORMALIZED FREE ENERGY PREDICTED BY IDOCK:   -4.63 KCAL/MOL
REMARK 922        TOTAL FREE ENERGY PREDICTED BY IDOCK:   -8.20 KCAL/MOL
REMARK 923 INTER-LIGAND FREE ENERGY PREDICTED BY IDOCK:   -6.40 KCAL/MOL
REMARK 924 INTRA-LIGAND FREE ENERGY PREDICTED BY IDOCK:   -1.79 KCAL/MOL
REMARK 927      BINDING AFFINITY PREDICTED BY RF-SCORE:    0.00 PKD
ROOT
HETATM    1  C   UNL     1     -10.459  14.148  68.911  1.00  0.00    -0.222 C  
HETATM    2  S   UNL     1     -12.060  13.506  69.321  1.00  0.00    -0.233 SA 
HETATM    3  C   UNL     1     -11.814  11.709  69.310  1.00  0.00    -0.331 C  
HETATM    4  C   UNL     1     -10.437  11.157  69.077  1.00  0.00    -0.233 C  
HETATM    5  CA  UNL     1      -9.984  15.059  67.682  1.00  0.00    -0.225 C  
HETATM    6  CA  UNL     1      -9.341  11.875  68.764  1.00  0.00     0.024 C  
HETATM    7  C   UNL     1      -8.742  14.128  67.774  1.00  0.00    -0.182 C  
HETATM    8  C   UNL     1      -8.007  11.194  68.645  1.00  0.00    -0.145 C  
HETATM    9  N   UNL     1      -9.439  13.227  68.496  1.00  0.00    -0.164 N  
HETATM   10  OXT UNL     1      -7.693  10.281  69.394  1.00  0.00    -0.117 OA 
HETATM   11  O   UNL     1      -7.674  14.059  67.243  1.00  0.00    -0.175 OA 
HETATM   12  O   UNL     1      -7.160  11.641  67.706  1.00  0.00    -0.082 OA 
ENDROOT
BRANCH   4  13
HETATM   13  C   UNL     1     -10.438   9.626  69.090  1.00  0.00    -0.214 C  
BRANCH  13  14
HETATM   14  O   UNL     1     -10.562   9.086  70.420  1.00  0.00    -0.198 OA 
BRANCH  14  15
HETATM   15  C   UNL     1     -10.676   7.748  70.529  1.00  0.00    -0.236 C  
HETATM   16  O   UNL     1      -9.861   6.982  71.019  1.00  0.00    -0.181 OA 
HETATM   17  N   UNL     1     -11.832   7.333  69.960  1.00  0.00    -0.532 N  
HETATM   18  H2  UNL     1     -12.517   7.944  69.513  1.00  0.00     0.000 HD 
HETATM   19  H1  UNL     1     -11.919   6.320  70.042  1.00  0.00     0.000 HD 
ENDBRANCH  14  15
ENDBRANCH  13  14
ENDBRANCH   4  13
BRANCH   5  20
HETATM   20  N   UNL     1     -10.412  15.213  66.235  1.00  0.00    -0.296 N  
HETATM   21  H   UNL     1     -10.332  16.177  65.914  1.00  0.00     0.000 HD 
HETATM   22  C   UNL     1     -10.891  14.358  65.225  1.00  0.00    -0.361 C  
HETATM   23  O   UNL     1     -11.064  14.824  64.109  1.00  0.00    -0.044 OA 
BRANCH  22  24
HETATM   24  C   UNL     1     -11.384  12.948  65.505  1.00  0.00    -0.307 C  
BRANCH  24  25
HETATM   25  C   UNL     1     -10.447  11.831  65.469  1.00  0.00    -0.267 A  
HETATM   26  O   UNL     1      -9.174  11.967  64.980  1.00  0.00     0.060 OA 
HETATM   27  C   UNL     1     -10.715  10.477  65.630  1.00  0.00    -0.052 A  
HETATM   28  C   UNL     1      -8.703  10.712  64.728  1.00  0.00    -0.160 A  
HETATM   29  C   UNL     1      -9.620   9.760  65.100  1.00  0.00    -0.356 A  
ENDBRANCH  24  25
BRANCH  24  30
HETATM   30  N   UNL     1     -12.624  12.566  65.595  1.00  0.00    -0.517 NA 
HETATM   31  H   UNL     1     -13.042  12.549  66.524  1.00  0.00     0.000 HD 
BRANCH  30  32
HETATM   32  O   UNL     1     -13.428  12.179  64.526  1.00  0.00    -0.614 OA 
HETATM   33  C   UNL     1     -12.912  12.086  63.219  1.00  0.00    -0.040 C  
ENDBRANCH  30  32
ENDBRANCH  24  30
ENDBRANCH  22  24
ENDBRANCH   5  20
TORSDOF 8
ENDMDL
MODEL      146
REMARK 921   NORMALIZED FREE ENERGY PREDICTED BY IDOCK:   -4.63 KCAL/MOL
REMARK 922        TOTAL FREE ENERGY PREDICTED BY IDOCK:   -8.19 KCAL/MOL
REMARK 923 INTER-LIGAND FREE ENERGY PREDICTED BY IDOCK:   -5.56 KCAL/MOL
REMARK 924 INTRA-LIGAND FREE ENERGY PREDICTED BY IDOCK:   -2.63 KCAL/MOL
REMARK 927      BINDING AFFINITY PREDICTED BY RF-SCORE:    0.00 PKD
ROOT
HETATM    1  C   UNL     1      -8.068   7.966  72.516  1.00  0.00    -0.126 C  
HETATM    2  S   UNL     1      -6.754   7.021  71.792  1.00  0.00    -0.053 SA 
HETATM    3  C   UNL     1      -6.977   7.278  70.009  1.00  0.00    -0.060 C  
HETATM    4  C   UNL     1      -8.050   8.214  69.531  1.00  0.00    -0.119 C  
HETATM    5  CA  UNL     1      -9.288   7.512  73.449  1.00  0.00    -0.238 C  
HETATM    6  CA  UNL     1      -8.965   8.828  70.305  1.00  0.00    -0.161 C  
HETATM    7  C   UNL     1     -10.035   8.566  72.585  1.00  0.00    -0.195 C  
HETATM    8  C   UNL     1      -9.926   9.808  69.695  1.00  0.00    -0.223 C  
HETATM    9  N   UNL     1      -9.065   8.526  71.650  1.00  0.00    -0.207 N  
HETATM   10  OXT UNL     1      -9.577  10.565  68.801  1.00  0.00    -0.163 OA 
HETATM   11  O   UNL     1     -11.126   9.053  72.571  1.00  0.00    -0.087 OA 
HETATM   12  O   UNL     1     -11.174   9.845  70.184  1.00  0.00    -0.255 OA 
ENDROOT
BRANCH   4  13
HETATM   13  C   UNL     1      -8.089   8.285  68.002  1.00  0.00    -0.127 C  
BRANCH  13  14
HETATM   14  O   UNL     1      -8.966   7.297  67.427  1.00  0.00    -0.122 OA 
BRANCH  14  15
HETATM   15  C   UNL     1     -10.112   7.743  66.876  1.00  0.00    -0.286 C  
HETATM   16  O   UNL     1     -10.236   8.688  66.112  1.00  0.00    -0.210 OA 
HETATM   17  N   UNL     1     -11.160   7.017  67.331  1.00  0.00    -0.581 N  
HETATM   18  H2  UNL     1     -11.092   6.245  67.994  1.00  0.00     0.000 HD 
HETATM   19  H1  UNL     1     -12.027   7.355  66.914  1.00  0.00     0.000 HD 
ENDBRANCH  14  15
ENDBRANCH  13  14
ENDBRANCH   4  13
BRANCH   5  20
HETATM   20  N   UNL     1     -10.127   6.255  73.577  1.00  0.00    -0.198 N  
HETATM   21  H   UNL     1     -10.045   5.834  74.503  1.00  0.00     0.000 HD 
HETATM   22  C   UNL     1     -10.990   5.524  72.739  1.00  0.00    -0.278 C  
HETATM   23  O   UNL     1     -11.584   4.569  73.216  1.00  0.00    -0.291 OA 
BRANCH  22  24
HETATM   24  C   UNL     1     -11.065   5.748  71.238  1.00  0.00    -0.197 C  
BRANCH  24  25
HETATM   25  C   UNL     1     -10.108   5.086  70.359  1.00  0.00    -0.260 A  
HETATM   26  O   UNL     1     -10.347   4.917  69.020  1.00  0.00    -0.148 OA 
HETATM   27  C   UNL     1      -9.008   4.312  70.710  1.00  0.00    -0.154 A  
HETATM   28  C   UNL     1      -9.484   3.961  68.574  1.00  0.00    -0.148 A  
HETATM   29  C   UNL     1      -8.647   3.547  69.580  1.00  0.00    -0.111 A  
ENDBRANCH  24  25
BRANCH  24  30
HETATM   30  N   UNL     1     -11.786   6.638  70.624  1.00  0.00    -0.397 NA 
HETATM   31  H   UNL     1     -11.293   7.374  70.121  1.00  0.00     0.000 HD 
BRANCH  30  32
HETATM   32  O   UNL     1     -13.179   6.668  70.597  1.00  0.00     0.230 OA 
HETATM   33  C   UNL     1     -13.911   7.437  71.522  1.00  0.00    -0.396 C  
ENDBRANCH  30  32
ENDBRANCH  24  30
ENDBRANCH  22  24
ENDBRANCH   5  20
TORSDOF 8
ENDMDL
MODEL      147
REMARK 921   NORMALIZED FREE ENERGY PREDICTED BY IDOCK:   -4.61 KCAL/MOL
REMARK 922        TOTAL FREE ENERGY PREDICTED BY IDOCK:   -8.16 KCAL/MOL
REMARK 923 INTER-LIGAND FREE ENERGY PREDICTED BY IDOCK:   -7.47 KCAL/MOL
REMARK 924 INTRA-LIGAND FREE ENERGY PREDICTED BY IDOCK:   -0.69 KCAL/MOL
REMARK 927      BINDING AFFINITY PREDICTED BY RF-SCORE:    0.00 PKD
ROOT
HETATM    1  C   UNL     1      -8.016  12.892  67.382  1.00  0.00    -0.178 C  
HETATM    2  S   UNL     1      -6.783  12.484  68.588  1.00  0.00    -0.093 SA 
HETATM    3  C   UNL     1      -7.493  11.059  69.458  1.00  0.00    -0.026 C  
HETATM    4  C   UNL     1      -8.802  10.490  68.989  1.00  0.00    -0.174 C  
HETATM    5  CA  UNL     1      -8.858  14.237  67.164  1.00  0.00    -0.229 C  
HETATM    6  CA  UNL     1      -9.585  11.003  68.021  1.00  0.00    -0.170 C  
HETATM    7  C   UNL     1      -9.977  13.209  66.838  1.00  0.00    -0.245 C  
HETATM    8  C   UNL     1     -10.829  10.275  67.598  1.00  0.00    -0.307 C  
HETATM    9  N   UNL     1      -9.285  12.224  67.447  1.00  0.00    -0.176 N  
HETATM   10  OXT UNL     1     -10.859   9.055  67.539  1.00  0.00    -0.232 OA 
HETATM   11  O   UNL     1     -11.104  13.255  66.446  1.00  0.00    -0.290 OA 
HETATM   12  O   UNL     1     -11.898  11.010  67.258  1.00  0.00    -0.468 OA 
ENDROOT
BRANCH   4  13
HETATM   13  C   UNL     1      -9.240   9.307  69.857  1.00  0.00    -0.195 C  
BRANCH  13  14
HETATM   14  O   UNL     1     -10.247   9.674  70.820  1.00  0.00    -0.290 OA 
BRANCH  14  15
HETATM   15  C   UNL     1     -10.933   8.669  71.400  1.00  0.00    -0.271 C  
HETATM   16  O   UNL     1     -11.629   8.742  72.401  1.00  0.00    -0.352 OA 
HETATM   17  N   UNL     1     -10.707   7.510  70.739  1.00  0.00    -0.225 N  
HETATM   18  H2  UNL     1     -10.105   7.411  69.921  1.00  0.00     0.000 HD 
HETATM   19  H1  UNL     1     -11.226   6.750  71.178  1.00  0.00     0.000 HD 
ENDBRANCH  14  15
ENDBRANCH  13  14
ENDBRANCH   4  13
BRANCH   5  20
HETATM   20  N   UNL     1      -9.399  15.321  68.078  1.00  0.00    -0.195 N  
HETATM   21  H   UNL     1      -9.997  14.940  68.810  1.00  0.00     0.000 HD 
HETATM   22  C   UNL     1      -9.282  16.721  68.167  1.00  0.00    -0.224 C  
HETATM   23  O   UNL     1      -9.808  17.283  69.115  1.00  0.00    -0.254 OA 
BRANCH  22  24
HETATM   24  C   UNL     1      -8.706  17.572  67.048  1.00  0.00    -0.240 C  
BRANCH  24  25
HETATM   25  C   UNL     1      -7.549  18.421  67.306  1.00  0.00    -0.222 A  
HETATM   26  O   UNL     1      -6.293  18.090  66.869  1.00  0.00    -0.161 OA 
HETATM   27  C   UNL     1      -7.438  19.478  68.203  1.00  0.00    -0.335 A  
HETATM   28  C   UNL     1      -5.407  18.849  67.575  1.00  0.00    -0.163 A  
HETATM   29  C   UNL     1      -6.064  19.711  68.419  1.00  0.00    -0.266 A  
ENDBRANCH  24  25
BRANCH  24  30
HETATM   30  N   UNL     1      -9.249  17.793  65.888  1.00  0.00    -0.517 NA 
HETATM   31  H   UNL     1      -9.020  17.146  65.134  1.00  0.00     0.000 HD 
BRANCH  30  32
HETATM   32  O   UNL     1     -10.117  18.840  65.589  1.00  0.00    -0.482 OA 
HETATM   33  C   UNL     1     -10.604  19.696  66.596  1.00  0.00    -0.487 C  
ENDBRANCH  30  32
ENDBRANCH  24  30
ENDBRANCH  22  24
ENDBRANCH   5  20
TORSDOF 8
ENDMDL
MODEL      148
REMARK 921   NORMALIZED FREE ENERGY PREDICTED BY IDOCK:   -4.60 KCAL/MOL
REMARK 922        TOTAL FREE ENERGY PREDICTED BY IDOCK:   -8.15 KCAL/MOL
REMARK 923 INTER-LIGAND FREE ENERGY PREDICTED BY IDOCK:   -6.96 KCAL/MOL
REMARK 924 INTRA-LIGAND FREE ENERGY PREDICTED BY IDOCK:   -1.19 KCAL/MOL
REMARK 927      BINDING AFFINITY PREDICTED BY RF-SCORE:    0.00 PKD
ROOT
HETATM    1  C   UNL     1     -11.358  10.659  67.662  1.00  0.00    -0.207 C  
HETATM    2  S   UNL     1     -10.455   9.135  67.638  1.00  0.00    -0.246 SA 
HETATM    3  C   UNL     1     -10.471   8.601  69.372  1.00  0.00    -0.218 C  
HETATM    4  C   UNL     1     -11.241   9.406  70.380  1.00  0.00    -0.309 C  
HETATM    5  CA  UNL     1     -10.913  12.143  67.253  1.00  0.00    -0.260 C  
HETATM    6  CA  UNL     1     -11.859  10.579  70.148  1.00  0.00    -0.320 C  
HETATM    7  C   UNL     1     -11.781  12.495  68.493  1.00  0.00    -0.324 C  
HETATM    8  C   UNL     1     -12.666  11.229  71.236  1.00  0.00    -0.405 C  
HETATM    9  N   UNL     1     -11.716  11.222  68.933  1.00  0.00    -0.316 N  
HETATM   10  OXT UNL     1     -13.337  10.563  72.011  1.00  0.00    -0.434 OA 
HETATM   11  O   UNL     1     -12.163  13.495  69.024  1.00  0.00    -0.320 OA 
HETATM   12  O   UNL     1     -12.649  12.568  71.311  1.00  0.00    -0.345 OA 
ENDROOT
BRANCH   4  13
HETATM   13  C   UNL     1     -11.120   8.806  71.784  1.00  0.00    -0.347 C  
BRANCH  13  14
HETATM   14  O   UNL     1      -9.880   8.098  71.976  1.00  0.00    -0.191 OA 
BRANCH  14  15
HETATM   15  C   UNL     1      -9.390   8.052  73.230  1.00  0.00    -0.275 C  
HETATM   16  O   UNL     1      -8.316   8.490  73.611  1.00  0.00    -0.373 OA 
HETATM   17  N   UNL     1     -10.247   7.387  74.040  1.00  0.00    -0.399 N  
HETATM   18  H2  UNL     1     -11.135   6.981  73.743  1.00  0.00     0.000 HD 
HETATM   19  H1  UNL     1      -9.876   7.352  74.989  1.00  0.00     0.000 HD 
ENDBRANCH  14  15
ENDBRANCH  13  14
ENDBRANCH   4  13
BRANCH   5  20
HETATM   20  N   UNL     1      -9.611  12.919  67.293  1.00  0.00    -0.214 N  
HETATM   21  H   UNL     1      -9.767  13.925  67.346  1.00  0.00     0.000 HD 
HETATM   22  C   UNL     1      -8.241  12.598  67.276  1.00  0.00    -0.184 C  
HETATM   23  O   UNL     1      -7.434  13.506  67.409  1.00  0.00    -0.168 OA 
BRANCH  22  24
HETATM   24  C   UNL     1      -7.723  11.218  66.905  1.00  0.00    -0.152 C  
BRANCH  24  25
HETATM   25  C   UNL     1      -7.176  10.347  67.940  1.00  0.00    -0.085 A  
HETATM   26  O   UNL     1      -6.987   9.006  67.735  1.00  0.00    -0.076 OA 
HETATM   27  C   UNL     1      -7.025  10.611  69.296  1.00  0.00    -0.096 A  
HETATM   28  C   UNL     1      -6.841   8.428  68.961  1.00  0.00    -0.056 A  
HETATM   29  C   UNL     1      -6.870   9.374  69.957  1.00  0.00    -0.067 A  
ENDBRANCH  24  25
BRANCH  24  30
HETATM   30  N   UNL     1      -7.524  10.764  65.704  1.00  0.00    -0.321 NA 
HETATM   31  H   UNL     1      -6.753  11.167  65.173  1.00  0.00     0.000 HD 
BRANCH  30  32
HETATM   32  O   UNL     1      -8.278   9.772  65.081  1.00  0.00    -0.127 OA 
HETATM   33  C   UNL     1      -7.667   8.764  64.310  1.00  0.00    -0.125 C  
ENDBRANCH  30  32
ENDBRANCH  24  30
ENDBRANCH  22  24
ENDBRANCH   5  20
TORSDOF 8
ENDMDL
MODEL      149
REMARK 921   NORMALIZED FREE ENERGY PREDICTED BY IDOCK:   -4.59 KCAL/MOL
REMARK 922        TOTAL FREE ENERGY PREDICTED BY IDOCK:   -8.14 KCAL/MOL
REMARK 923 INTER-LIGAND FREE ENERGY PREDICTED BY IDOCK:   -7.02 KCAL/MOL
REMARK 924 INTRA-LIGAND FREE ENERGY PREDICTED BY IDOCK:   -1.12 KCAL/MOL
REMARK 927      BINDING AFFINITY PREDICTED BY RF-SCORE:    0.00 PKD
ROOT
HETATM    1  C   UNL     1     -11.857  11.032  68.318  1.00  0.00    -0.148 C  
HETATM    2  S   UNL     1     -10.755   9.700  67.926  1.00  0.00    -0.215 SA 
HETATM    3  C   UNL     1     -10.694   8.732  69.459  1.00  0.00    -0.188 C  
HETATM    4  C   UNL     1     -11.564   9.135  70.617  1.00  0.00    -0.282 C  
HETATM    5  CA  UNL     1     -11.618  12.616  68.325  1.00  0.00    -0.332 C  
HETATM    6  CA  UNL     1     -12.336  10.236  70.679  1.00  0.00    -0.325 C  
HETATM    7  C   UNL     1     -12.523  12.512  69.584  1.00  0.00     0.188 C  
HETATM    8  C   UNL     1     -13.221  10.464  71.871  1.00  0.00    -0.429 C  
HETATM    9  N   UNL     1     -12.285  11.189  69.679  1.00  0.00    -0.314 N  
HETATM   10  OXT UNL     1     -13.793   9.536  72.422  1.00  0.00    -0.424 OA 
HETATM   11  O   UNL     1     -13.035  13.279  70.345  1.00  0.00     0.007 OA 
HETATM   12  O   UNL     1     -13.386  11.727  72.293  1.00  0.00    -0.455 OA 
ENDROOT
BRANCH   4  13
HETATM   13  C   UNL     1     -11.359   8.207  71.818  1.00  0.00    -0.278 C  
BRANCH  13  14
HETATM   14  O   UNL     1     -10.482   7.104  71.519  1.00  0.00    -0.204 OA 
BRANCH  14  15
HETATM   15  C   UNL     1     -10.951   5.865  71.765  1.00  0.00    -0.269 C  
HETATM   16  O   UNL     1     -11.778   5.551  72.607  1.00  0.00    -0.293 OA 
HETATM   17  N   UNL     1     -10.330   4.966  70.966  1.00  0.00    -0.186 N  
HETATM   18  H2  UNL     1      -9.612   5.193  70.278  1.00  0.00     0.000 HD 
HETATM   19  H1  UNL     1     -10.685   4.028  71.152  1.00  0.00     0.000 HD 
ENDBRANCH  14  15
ENDBRANCH  13  14
ENDBRANCH   4  13
BRANCH   5  20
HETATM   20  N   UNL     1     -10.432  13.519  68.610  1.00  0.00    -0.269 N  
HETATM   21  H   UNL     1     -10.638  14.199  69.341  1.00  0.00     0.000 HD 
HETATM   22  C   UNL     1      -9.121  13.652  68.117  1.00  0.00    -0.195 C  
HETATM   23  O   UNL     1      -8.384  14.465  68.654  1.00  0.00    -0.150 OA 
BRANCH  22  24
HETATM   24  C   UNL     1      -8.650  12.981  66.838  1.00  0.00    -0.119 C  
BRANCH  24  25
HETATM   25  C   UNL     1      -9.566  12.840  65.713  1.00  0.00    -0.092 A  
HETATM   26  O   UNL     1     -10.510  13.790  65.421  1.00  0.00    -0.302 OA 
HETATM   27  C   UNL     1      -9.841  11.702  64.963  1.00  0.00    -0.280 A  
HETATM   28  C   UNL     1     -11.425  13.209  64.594  1.00  0.00    -0.333 A  
HETATM   29  C   UNL     1     -11.064  11.918  64.292  1.00  0.00    -0.418 A  
ENDBRANCH  24  25
BRANCH  24  30
HETATM   30  N   UNL     1      -7.542  12.320  66.675  1.00  0.00    -0.374 NA 
HETATM   31  H   UNL     1      -7.608  11.393  66.255  1.00  0.00     0.000 HD 
BRANCH  30  32
HETATM   32  O   UNL     1      -6.273  12.772  67.027  1.00  0.00    -0.252 OA 
HETATM   33  C   UNL     1      -5.259  11.876  67.418  1.00  0.00    -0.090 C  
ENDBRANCH  30  32
ENDBRANCH  24  30
ENDBRANCH  22  24
ENDBRANCH   5  20
TORSDOF 8
ENDMDL
MODEL      150
REMARK 921   NORMALIZED FREE ENERGY PREDICTED BY IDOCK:   -4.59 KCAL/MOL
REMARK 922        TOTAL FREE ENERGY PREDICTED BY IDOCK:   -8.13 KCAL/MOL
REMARK 923 INTER-LIGAND FREE ENERGY PREDICTED BY IDOCK:   -7.55 KCAL/MOL
REMARK 924 INTRA-LIGAND FREE ENERGY PREDICTED BY IDOCK:   -0.57 KCAL/MOL
REMARK 927      BINDING AFFINITY PREDICTED BY RF-SCORE:    0.00 PKD
ROOT
HETATM    1  C   UNL     1     -10.120  12.005  66.934  1.00  0.00    -0.205 C  
HETATM    2  S   UNL     1     -11.501  12.984  66.407  1.00  0.00    -0.359 SA 
HETATM    3  C   UNL     1     -10.924  14.690  66.631  1.00  0.00    -0.323 C  
HETATM    4  C   UNL     1      -9.510  14.934  67.077  1.00  0.00    -0.239 C  
HETATM    5  CA  UNL     1      -9.995  10.925  68.110  1.00  0.00    -0.174 C  
HETATM    6  CA  UNL     1      -8.622  13.989  67.441  1.00  0.00    -0.203 C  
HETATM    7  C   UNL     1      -8.599  11.592  68.258  1.00  0.00    -0.161 C  
HETATM    8  C   UNL     1      -7.212  14.378  67.783  1.00  0.00    -0.175 C  
HETATM    9  N   UNL     1      -9.009  12.667  67.556  1.00  0.00    -0.177 N  
HETATM   10  OXT UNL     1      -6.633  15.264  67.173  1.00  0.00    -0.292 OA 
HETATM   11  O   UNL     1      -7.618  11.404  68.915  1.00  0.00    -0.124 OA 
HETATM   12  O   UNL     1      -6.598  13.699  68.764  1.00  0.00    -0.088 OA 
ENDROOT
BRANCH   4  13
HETATM   13  C   UNL     1      -9.220  16.431  67.221  1.00  0.00    -0.215 C  
BRANCH  13  14
HETATM   14  O   UNL     1      -9.291  17.129  65.962  1.00  0.00    -0.461 OA 
BRANCH  14  15
HETATM   15  C   UNL     1     -10.404  17.848  65.723  1.00  0.00    -0.180 C  
HETATM   16  O   UNL     1     -11.157  17.735  64.768  1.00  0.00    -0.852 OA 
HETATM   17  N   UNL     1     -10.567  18.787  66.686  1.00  0.00    -0.409 N  
HETATM   18  H2  UNL     1      -9.938  18.927  67.477  1.00  0.00     0.000 HD 
HETATM   19  H1  UNL     1     -11.410  19.331  66.505  1.00  0.00     0.000 HD 
ENDBRANCH  14  15
ENDBRANCH  13  14
ENDBRANCH   4  13
BRANCH   5  20
HETATM   20  N   UNL     1     -10.634  10.748  69.474  1.00  0.00    -0.320 N  
HETATM   21  H   UNL     1     -11.055  11.613  69.813  1.00  0.00     0.000 HD 
HETATM   22  C   UNL     1     -10.793   9.691  70.388  1.00  0.00    -0.295 C  
HETATM   23  O   UNL     1     -11.459   9.892  71.392  1.00  0.00    -0.371 OA 
BRANCH  22  24
HETATM   24  C   UNL     1     -10.019   8.387  70.281  1.00  0.00    -0.186 C  
BRANCH  24  25
HETATM   25  C   UNL     1     -10.194   7.534  69.111  1.00  0.00    -0.202 A  
HETATM   26  O   UNL     1     -10.062   8.016  67.836  1.00  0.00    -0.175 OA 
HETATM   27  C   UNL     1     -10.759   6.266  69.047  1.00  0.00    -0.362 A  
HETATM   28  C   UNL     1     -10.647   7.110  67.000  1.00  0.00    -0.343 A  
HETATM   29  C   UNL     1     -11.103   6.020  67.700  1.00  0.00    -0.217 A  
ENDBRANCH  24  25
BRANCH  24  30
HETATM   30  N   UNL     1      -9.331   7.817  71.226  1.00  0.00    -0.151 NA 
HETATM   31  H   UNL     1      -8.316   7.816  71.130  1.00  0.00     0.000 HD 
BRANCH  30  32
HETATM   32  O   UNL     1      -9.866   7.207  72.358  1.00  0.00    -0.150 OA 
HETATM   33  C   UNL     1      -9.072   6.947  73.492  1.00  0.00    -0.146 C  
ENDBRANCH  30  32
ENDBRANCH  24  30
ENDBRANCH  22  24
ENDBRANCH   5  20
TORSDOF 8
ENDMDL
MODEL      151
REMARK 921   NORMALIZED FREE ENERGY PREDICTED BY IDOCK:   -4.55 KCAL/MOL
REMARK 922        TOTAL FREE ENERGY PREDICTED BY IDOCK:   -8.08 KCAL/MOL
REMARK 923 INTER-LIGAND FREE ENERGY PREDICTED BY IDOCK:   -5.90 KCAL/MOL
REMARK 924 INTRA-LIGAND FREE ENERGY PREDICTED BY IDOCK:   -2.17 KCAL/MOL
REMARK 927      BINDING AFFINITY PREDICTED BY RF-SCORE:    0.00 PKD
ROOT
HETATM    1  C   UNL     1      -7.266   9.363  69.780  1.00  0.00    -0.076 C  
HETATM    2  S   UNL     1      -6.984   9.317  68.031  1.00  0.00    -0.077 SA 
HETATM    3  C   UNL     1      -8.621   9.661  67.326  1.00  0.00    -0.132 C  
HETATM    4  C   UNL     1      -9.764   9.982  68.247  1.00  0.00    -0.155 C  
HETATM    5  CA  UNL     1      -7.064   8.235  70.900  1.00  0.00    -0.053 C  
HETATM    6  CA  UNL     1      -9.730   9.940  69.593  1.00  0.00    -0.229 C  
HETATM    7  C   UNL     1      -8.372   8.871  71.445  1.00  0.00    -0.135 C  
HETATM    8  C   UNL     1     -10.930  10.372  70.387  1.00  0.00    -0.248 C  
HETATM    9  N   UNL     1      -8.618   9.452  70.254  1.00  0.00    -0.204 N  
HETATM   10  OXT UNL     1     -11.621  11.312  70.028  1.00  0.00    -0.297 OA 
HETATM   11  O   UNL     1      -9.058   8.738  72.415  1.00  0.00    -0.366 OA 
HETATM   12  O   UNL     1     -11.200   9.707  71.520  1.00  0.00    -0.372 OA 
ENDROOT
BRANCH   4  13
HETATM   13  C   UNL     1     -11.058  10.227  67.467  1.00  0.00    -0.232 C  
BRANCH  13  14
HETATM   14  O   UNL     1     -10.896  11.209  66.425  1.00  0.00    -0.270 OA 
BRANCH  14  15
HETATM   15  C   UNL     1     -10.804  12.497  66.809  1.00  0.00    -0.249 C  
HETATM   16  O   UNL     1      -9.853  13.244  66.639  1.00  0.00    -0.261 OA 
HETATM   17  N   UNL     1     -11.923  12.864  67.478  1.00  0.00    -0.340 N  
HETATM   18  H2  UNL     1     -12.719  12.254  67.664  1.00  0.00     0.000 HD 
HETATM   19  H1  UNL     1     -11.853  13.839  67.768  1.00  0.00     0.000 HD 
ENDBRANCH  14  15
ENDBRANCH  13  14
ENDBRANCH   4  13
BRANCH   5  20
HETATM   20  N   UNL     1      -7.170   6.722  70.926  1.00  0.00    -0.072 N  
HETATM   21  H   UNL     1      -6.309   6.284  71.252  1.00  0.00     0.000 HD 
HETATM   22  C   UNL     1      -8.160   5.772  70.614  1.00  0.00    -0.117 C  
HETATM   23  O   UNL     1      -7.922   4.596  70.841  1.00  0.00    -0.077 OA 
BRANCH  22  24
HETATM   24  C   UNL     1      -9.418   6.119  69.835  1.00  0.00    -0.152 C  
BRANCH  24  25
HETATM   25  C   UNL     1     -10.710   6.129  70.512  1.00  0.00    -0.278 A  
HETATM   26  O   UNL     1     -11.817   6.713  69.955  1.00  0.00    -0.372 OA 
HETATM   27  C   UNL     1     -10.987   5.841  71.844  1.00  0.00    -0.318 A  
HETATM   28  C   UNL     1     -12.724   6.895  70.957  1.00  0.00    -0.210 A  
HETATM   29  C   UNL     1     -12.254   6.385  72.143  1.00  0.00    -0.278 A  
ENDBRANCH  24  25
BRANCH  24  30
HETATM   30  N   UNL     1      -9.521   6.231  68.544  1.00  0.00    -0.124 NA 
HETATM   31  H   UNL     1     -10.412   6.561  68.173  1.00  0.00     0.000 HD 
BRANCH  30  32
HETATM   32  O   UNL     1      -8.516   5.939  67.626  1.00  0.00    -0.105 OA 
HETATM   33  C   UNL     1      -8.437   4.677  67.005  1.00  0.00    -0.105 C  
ENDBRANCH  30  32
ENDBRANCH  24  30
ENDBRANCH  22  24
ENDBRANCH   5  20
TORSDOF 8
ENDMDL
MODEL      152
REMARK 921   NORMALIZED FREE ENERGY PREDICTED BY IDOCK:   -4.55 KCAL/MOL
REMARK 922        TOTAL FREE ENERGY PREDICTED BY IDOCK:   -8.07 KCAL/MOL
REMARK 923 INTER-LIGAND FREE ENERGY PREDICTED BY IDOCK:   -6.84 KCAL/MOL
REMARK 924 INTRA-LIGAND FREE ENERGY PREDICTED BY IDOCK:   -1.23 KCAL/MOL
REMARK 927      BINDING AFFINITY PREDICTED BY RF-SCORE:    0.00 PKD
ROOT
HETATM    1  C   UNL     1     -10.539   9.113  67.666  1.00  0.00    -0.242 C  
HETATM    2  S   UNL     1      -9.462   7.716  67.491  1.00  0.00    -0.145 SA 
HETATM    3  C   UNL     1      -9.412   7.005  69.160  1.00  0.00    -0.143 C  
HETATM    4  C   UNL     1     -10.270   7.604  70.238  1.00  0.00    -0.205 C  
HETATM    5  CA  UNL     1     -10.273  10.673  67.418  1.00  0.00    -0.204 C  
HETATM    6  CA  UNL     1     -11.023   8.714  70.124  1.00  0.00    -0.226 C  
HETATM    7  C   UNL     1     -11.175  10.789  68.679  1.00  0.00    -0.274 C  
HETATM    8  C   UNL     1     -11.900   9.146  71.265  1.00  0.00    -0.327 C  
HETATM    9  N   UNL     1     -10.959   9.493  68.984  1.00  0.00    -0.154 N  
HETATM   10  OXT UNL     1     -12.486   8.329  71.958  1.00  0.00    -0.318 OA 
HETATM   11  O   UNL     1     -11.670  11.676  69.307  1.00  0.00    -0.275 OA 
HETATM   12  O   UNL     1     -12.040  10.463  71.479  1.00  0.00    -0.353 OA 
ENDROOT
BRANCH   4  13
HETATM   13  C   UNL     1     -10.077   6.877  71.573  1.00  0.00    -0.184 C  
BRANCH  13  14
HETATM   14  O   UNL     1      -8.690   6.609  71.859  1.00  0.00    -0.129 OA 
BRANCH  14  15
HETATM   15  C   UNL     1      -8.424   5.857  72.944  1.00  0.00    -0.121 C  
HETATM   16  O   UNL     1      -7.401   5.228  73.165  1.00  0.00    -0.088 OA 
HETATM   17  N   UNL     1      -9.495   5.842  73.773  1.00  0.00    -0.138 N  
HETATM   18  H2  UNL     1     -10.374   6.329  73.601  1.00  0.00     0.000 HD 
HETATM   19  H1  UNL     1      -9.293   5.272  74.595  1.00  0.00     0.000 HD 
ENDBRANCH  14  15
ENDBRANCH  13  14
ENDBRANCH   4  13
BRANCH   5  20
HETATM   20  N   UNL     1      -9.071  11.588  67.553  1.00  0.00    -0.163 N  
HETATM   21  H   UNL     1      -8.241  11.085  67.866  1.00  0.00     0.000 HD 
HETATM   22  C   UNL     1      -8.814  12.958  67.356  1.00  0.00    -0.199 C  
HETATM   23  O   UNL     1      -7.666  13.354  67.487  1.00  0.00    -0.160 OA 
BRANCH  22  24
HETATM   24  C   UNL     1      -9.920  13.986  67.184  1.00  0.00    -0.252 C  
BRANCH  24  25
HETATM   25  C   UNL     1     -10.471  14.661  68.354  1.00  0.00    -0.243 A  
HETATM   26  O   UNL     1     -11.820  14.805  68.541  1.00  0.00    -0.329 OA 
HETATM   27  C   UNL     1      -9.810  15.469  69.273  1.00  0.00    -0.270 A  
HETATM   28  C   UNL     1     -11.995  15.778  69.481  1.00  0.00    -0.310 A  
HETATM   29  C   UNL     1     -10.786  16.227  69.953  1.00  0.00    -0.352 A  
ENDBRANCH  24  25
BRANCH  24  30
HETATM   30  N   UNL     1     -10.598  14.218  66.099  1.00  0.00    -0.288 NA 
HETATM   31  H   UNL     1     -10.775  15.193  65.858  1.00  0.00     0.000 HD 
BRANCH  30  32
HETATM   32  O   UNL     1     -11.101  13.246  65.239  1.00  0.00    -0.284 OA 
HETATM   33  C   UNL     1     -12.448  12.838  65.304  1.00  0.00    -0.465 C  
ENDBRANCH  30  32
ENDBRANCH  24  30
ENDBRANCH  22  24
ENDBRANCH   5  20
TORSDOF 8
ENDMDL
MODEL      153
REMARK 921   NORMALIZED FREE ENERGY PREDICTED BY IDOCK:   -4.54 KCAL/MOL
REMARK 922        TOTAL FREE ENERGY PREDICTED BY IDOCK:   -8.06 KCAL/MOL
REMARK 923 INTER-LIGAND FREE ENERGY PREDICTED BY IDOCK:   -6.47 KCAL/MOL
REMARK 924 INTRA-LIGAND FREE ENERGY PREDICTED BY IDOCK:   -1.59 KCAL/MOL
REMARK 927      BINDING AFFINITY PREDICTED BY RF-SCORE:    0.00 PKD
ROOT
HETATM    1  C   UNL     1      -8.249  11.553  66.832  1.00  0.00    -0.167 C  
HETATM    2  S   UNL     1      -7.642  12.264  68.338  1.00  0.00    -0.128 SA 
HETATM    3  C   UNL     1      -7.898  10.950  69.564  1.00  0.00     0.027 C  
HETATM    4  C   UNL     1      -8.427   9.619  69.112  1.00  0.00    -0.143 C  
HETATM    5  CA  UNL     1      -9.430  12.024  65.859  1.00  0.00    -0.197 C  
HETATM    6  CA  UNL     1      -8.844   9.315  67.868  1.00  0.00    -0.124 C  
HETATM    7  C   UNL     1      -9.661  10.489  65.778  1.00  0.00    -0.210 C  
HETATM    8  C   UNL     1      -9.269   7.911  67.542  1.00  0.00    -0.136 C  
HETATM    9  N   UNL     1      -8.936  10.294  66.898  1.00  0.00    -0.136 N  
HETATM   10  OXT UNL     1      -8.693   6.947  68.024  1.00  0.00    -0.126 OA 
HETATM   11  O   UNL     1     -10.374   9.754  65.162  1.00  0.00    -0.057 OA 
HETATM   12  O   UNL     1     -10.284   7.751  66.680  1.00  0.00    -0.269 OA 
ENDROOT
BRANCH   4  13
HETATM   13  C   UNL     1      -8.588   8.653  70.290  1.00  0.00    -0.141 C  
BRANCH  13  14
HETATM   14  O   UNL     1      -9.588   9.092  71.230  1.00  0.00    -0.275 OA 
BRANCH  14  15
HETATM   15  C   UNL     1     -10.875   9.005  70.838  1.00  0.00    -0.258 C  
HETATM   16  O   UNL     1     -11.431   8.025  70.369  1.00  0.00    -0.241 OA 
HETATM   17  N   UNL     1     -11.488  10.203  70.989  1.00  0.00    -0.367 N  
HETATM   18  H2  UNL     1     -11.041  11.048  71.347  1.00  0.00     0.000 HD 
HETATM   19  H1  UNL     1     -12.462  10.137  70.692  1.00  0.00     0.000 HD 
ENDBRANCH  14  15
ENDBRANCH  13  14
ENDBRANCH   4  13
BRANCH   5  20
HETATM   20  N   UNL     1     -10.754  12.739  66.050  1.00  0.00    -0.269 N  
HETATM   21  H   UNL     1     -11.413  12.530  65.300  1.00  0.00     0.000 HD 
HETATM   22  C   UNL     1     -11.301  13.618  67.003  1.00  0.00    -0.324 C  
HETATM   23  O   UNL     1     -12.472  13.945  66.881  1.00  0.00    -0.357 OA 
BRANCH  22  24
HETATM   24  C   UNL     1     -10.457  14.325  68.051  1.00  0.00    -0.235 C  
BRANCH  24  25
HETATM   25  C   UNL     1     -10.918  14.384  69.433  1.00  0.00    -0.231 A  
HETATM   26  O   UNL     1     -11.705  13.405  69.979  1.00  0.00    -0.282 OA 
HETATM   27  C   UNL     1     -10.902  15.471  70.300  1.00  0.00    -0.358 A  
HETATM   28  C   UNL     1     -12.265  13.922  71.110  1.00  0.00    -0.308 A  
HETATM   29  C   UNL     1     -11.812  15.197  71.344  1.00  0.00    -0.418 A  
ENDBRANCH  24  25
BRANCH  24  30
HETATM   30  N   UNL     1      -9.421  15.079  67.829  1.00  0.00    -0.194 NA 
HETATM   31  H   UNL     1      -8.864  15.357  68.636  1.00  0.00     0.000 HD 
BRANCH  30  32
HETATM   32  O   UNL     1      -9.009  15.536  66.580  1.00  0.00    -0.262 OA 
HETATM   33  C   UNL     1      -8.793  16.907  66.338  1.00  0.00    -0.287 C  
ENDBRANCH  30  32
ENDBRANCH  24  30
ENDBRANCH  22  24
ENDBRANCH   5  20
TORSDOF 8
ENDMDL
MODEL      154
REMARK 921   NORMALIZED FREE ENERGY PREDICTED BY IDOCK:   -4.51 KCAL/MOL
REMARK 922        TOTAL FREE ENERGY PREDICTED BY IDOCK:   -8.02 KCAL/MOL
REMARK 923 INTER-LIGAND FREE ENERGY PREDICTED BY IDOCK:   -7.05 KCAL/MOL
REMARK 924 INTRA-LIGAND FREE ENERGY PREDICTED BY IDOCK:   -0.97 KCAL/MOL
REMARK 927      BINDING AFFINITY PREDICTED BY RF-SCORE:    0.00 PKD
ROOT
HETATM    1  C   UNL     1      -8.253  13.867  67.138  1.00  0.00    -0.109 C  
HETATM    2  S   UNL     1      -7.175  12.984  68.233  1.00  0.00    -0.126 SA 
HETATM    3  C   UNL     1      -7.740  11.266  68.095  1.00  0.00    -0.112 C  
HETATM    4  C   UNL     1      -8.829  10.928  67.117  1.00  0.00    -0.135 C  
HETATM    5  CA  UNL     1      -9.282  15.060  67.424  1.00  0.00    -0.195 C  
HETATM    6  CA  UNL     1      -9.528  11.809  66.377  1.00  0.00    -0.221 C  
HETATM    7  C   UNL     1     -10.125  14.271  66.383  1.00  0.00    -0.288 C  
HETATM    8  C   UNL     1     -10.532  11.317  65.374  1.00  0.00    -0.268 C  
HETATM    9  N   UNL     1      -9.370  13.169  66.568  1.00  0.00    -0.243 N  
HETATM   10  OXT UNL     1     -10.327  10.308  64.716  1.00  0.00    -0.277 OA 
HETATM   11  O   UNL     1     -11.164  14.430  65.815  1.00  0.00    -0.315 OA 
HETATM   12  O   UNL     1     -11.650  12.039  65.204  1.00  0.00    -0.329 OA 
ENDROOT
BRANCH   4  13
HETATM   13  C   UNL     1      -9.174   9.436  67.159  1.00  0.00    -0.134 C  
BRANCH  13  14
HETATM   14  O   UNL     1      -8.852   8.832  68.427  1.00  0.00    -0.137 OA 
BRANCH  14  15
HETATM   15  C   UNL     1      -9.884   8.406  69.181  1.00  0.00    -0.183 C  
HETATM   16  O   UNL     1     -10.657   7.499  68.917  1.00  0.00    -0.211 OA 
HETATM   17  N   UNL     1      -9.995   9.173  70.292  1.00  0.00    -0.194 N  
HETATM   18  H2  UNL     1      -9.386   9.957  70.523  1.00  0.00     0.000 HD 
HETATM   19  H1  UNL     1     -10.776   8.850  70.863  1.00  0.00     0.000 HD 
ENDBRANCH  14  15
ENDBRANCH  13  14
ENDBRANCH   4  13
BRANCH   5  20
HETATM   20  N   UNL     1     -10.153  15.464  68.598  1.00  0.00    -0.207 N  
HETATM   21  H   UNL     1     -10.721  14.688  68.937  1.00  0.00     0.000 HD 
HETATM   22  C   UNL     1     -10.372  16.642  69.337  1.00  0.00    -0.294 C  
HETATM   23  O   UNL     1     -11.112  16.583  70.308  1.00  0.00    -0.348 OA 
BRANCH  22  24
HETATM   24  C   UNL     1      -9.894  18.007  68.872  1.00  0.00    -0.314 C  
BRANCH  24  25
HETATM   25  C   UNL     1      -8.495  18.383  69.047  1.00  0.00    -0.042 A  
HETATM   26  O   UNL     1      -8.092  19.692  69.070  1.00  0.00    -0.317 OA 
HETATM   27  C   UNL     1      -7.367  17.577  68.940  1.00  0.00    -0.245 A  
HETATM   28  C   UNL     1      -6.745  19.703  68.861  1.00  0.00    -0.318 A  
HETATM   29  C   UNL     1      -6.253  18.424  68.762  1.00  0.00    -0.215 A  
ENDBRANCH  24  25
BRANCH  24  30
HETATM   30  N   UNL     1     -10.641  18.999  68.491  1.00  0.00    -0.382 NA 
HETATM   31  H   UNL     1     -11.046  19.587  69.219  1.00  0.00     0.000 HD 
BRANCH  30  32
HETATM   32  O   UNL     1     -10.936  19.326  67.170  1.00  0.00    -0.476 OA 
HETATM   33  C   UNL     1     -10.488  18.526  66.101  1.00  0.00    -0.413 C  
ENDBRANCH  30  32
ENDBRANCH  24  30
ENDBRANCH  22  24
ENDBRANCH   5  20
TORSDOF 8
ENDMDL
MODEL      155
REMARK 921   NORMALIZED FREE ENERGY PREDICTED BY IDOCK:   -4.51 KCAL/MOL
REMARK 922        TOTAL FREE ENERGY PREDICTED BY IDOCK:   -8.02 KCAL/MOL
REMARK 923 INTER-LIGAND FREE ENERGY PREDICTED BY IDOCK:   -6.83 KCAL/MOL
REMARK 924 INTRA-LIGAND FREE ENERGY PREDICTED BY IDOCK:   -1.19 KCAL/MOL
REMARK 927      BINDING AFFINITY PREDICTED BY RF-SCORE:    0.00 PKD
ROOT
HETATM    1  C   UNL     1      -9.335  10.329  69.205  1.00  0.00    -0.204 C  
HETATM    2  S   UNL     1     -11.046  10.362  69.668  1.00  0.00    -0.294 SA 
HETATM    3  C   UNL     1     -11.403   8.637  70.103  1.00  0.00    -0.078 C  
HETATM    4  C   UNL     1     -10.288   7.630  70.087  1.00  0.00    -0.217 C  
HETATM    5  CA  UNL     1      -8.621  10.706  67.822  1.00  0.00    -0.123 C  
HETATM    6  CA  UNL     1      -9.027   7.854  69.671  1.00  0.00    -0.146 C  
HETATM    7  C   UNL     1      -7.751   9.477  68.204  1.00  0.00    -0.083 C  
HETATM    8  C   UNL     1      -7.993   6.771  69.794  1.00  0.00    -0.124 C  
HETATM    9  N   UNL     1      -8.684   9.056  69.081  1.00  0.00    -0.133 N  
HETATM   10  OXT UNL     1      -7.975   6.019  70.757  1.00  0.00    -0.109 OA 
HETATM   11  O   UNL     1      -6.779   8.937  67.765  1.00  0.00    -0.064 OA 
HETATM   12  O   UNL     1      -7.072   6.674  68.824  1.00  0.00    -0.077 OA 
ENDROOT
BRANCH   4  13
HETATM   13  C   UNL     1     -10.790   6.234  70.467  1.00  0.00    -0.288 C  
BRANCH  13  14
HETATM   14  O   UNL     1     -11.383   6.201  71.781  1.00  0.00    -0.275 OA 
BRANCH  14  15
HETATM   15  C   UNL     1     -10.803   5.395  72.692  1.00  0.00    -0.256 C  
HETATM   16  O   UNL     1     -10.908   5.472  73.906  1.00  0.00    -0.268 OA 
HETATM   17  N   UNL     1     -10.018   4.482  72.073  1.00  0.00    -0.184 N  
HETATM   18  H2  UNL     1      -9.884   4.414  71.064  1.00  0.00     0.000 HD 
HETATM   19  H1  UNL     1      -9.580   3.873  72.764  1.00  0.00     0.000 HD 
ENDBRANCH  14  15
ENDBRANCH  13  14
ENDBRANCH   4  13
BRANCH   5  20
HETATM   20  N   UNL     1      -9.014  10.630  66.358  1.00  0.00    -0.158 N  
HETATM   21  H   UNL     1      -8.393  10.020  65.828  1.00  0.00     0.000 HD 
HETATM   22  C   UNL     1     -10.020  11.191  65.551  1.00  0.00    -0.249 C  
HETATM   23  O   UNL     1     -10.089  10.833  64.385  1.00  0.00    -0.308 OA 
BRANCH  22  24
HETATM   24  C   UNL     1     -10.889  12.352  66.004  1.00  0.00    -0.273 C  
BRANCH  24  25
HETATM   25  C   UNL     1     -10.311  13.414  66.820  1.00  0.00    -0.263 A  
HETATM   26  O   UNL     1     -10.828  13.755  68.042  1.00  0.00    -0.241 OA 
HETATM   27  C   UNL     1      -9.399  14.392  66.440  1.00  0.00    -0.284 A  
HETATM   28  C   UNL     1     -10.334  14.986  68.360  1.00  0.00    -0.231 A  
HETATM   29  C   UNL     1      -9.458  15.427  67.398  1.00  0.00    -0.207 A  
ENDBRANCH  24  25
BRANCH  24  30
HETATM   30  N   UNL     1     -12.183  12.432  65.912  1.00  0.00    -0.632 NA 
HETATM   31  H   UNL     1     -12.733  11.775  66.464  1.00  0.00     0.000 HD 
BRANCH  30  32
HETATM   32  O   UNL     1     -12.881  13.340  65.119  1.00  0.00    -0.670 OA 
HETATM   33  C   UNL     1     -12.225  14.112  64.141  1.00  0.00    -0.390 C  
ENDBRANCH  30  32
ENDBRANCH  24  30
ENDBRANCH  22  24
ENDBRANCH   5  20
TORSDOF 8
ENDMDL
MODEL      156
REMARK 921   NORMALIZED FREE ENERGY PREDICTED BY IDOCK:   -4.51 KCAL/MOL
REMARK 922        TOTAL FREE ENERGY PREDICTED BY IDOCK:   -8.01 KCAL/MOL
REMARK 923 INTER-LIGAND FREE ENERGY PREDICTED BY IDOCK:   -5.87 KCAL/MOL
REMARK 924 INTRA-LIGAND FREE ENERGY PREDICTED BY IDOCK:   -2.15 KCAL/MOL
REMARK 927      BINDING AFFINITY PREDICTED BY RF-SCORE:    0.00 PKD
ROOT
HETATM    1  C   UNL     1      -7.423   9.873  69.920  1.00  0.00    -0.154 C  
HETATM    2  S   UNL     1      -8.778  10.694  69.125  1.00  0.00    -0.079 SA 
HETATM    3  C   UNL     1     -10.238  10.011  69.958  1.00  0.00    -0.255 C  
HETATM    4  C   UNL     1     -10.051   9.057  71.103  1.00  0.00    -0.365 C  
HETATM    5  CA  UNL     1      -6.285   8.918  69.322  1.00  0.00    -0.042 C  
HETATM    6  CA  UNL     1      -8.876   8.556  71.530  1.00  0.00    -0.199 C  
HETATM    7  C   UNL     1      -6.525   8.178  70.666  1.00  0.00    -0.036 C  
HETATM    8  C   UNL     1      -8.834   7.676  72.747  1.00  0.00    -0.153 C  
HETATM    9  N   UNL     1      -7.711   8.799  70.827  1.00  0.00    -0.089 N  
HETATM   10  OXT UNL     1      -9.556   7.890  73.708  1.00  0.00    -0.248 OA 
HETATM   11  O   UNL     1      -6.033   7.254  71.243  1.00  0.00    -0.036 OA 
HETATM   12  O   UNL     1      -7.955   6.663  72.754  1.00  0.00    -0.101 OA 
ENDROOT
BRANCH   4  13
HETATM   13  C   UNL     1     -11.396   8.582  71.661  1.00  0.00    -0.295 C  
BRANCH  13  14
HETATM   14  O   UNL     1     -12.510   9.305  71.101  1.00  0.00    -0.306 OA 
BRANCH  14  15
HETATM   15  C   UNL     1     -13.232  10.065  71.948  1.00  0.00    -0.452 C  
HETATM   16  O   UNL     1     -13.261  11.285  71.991  1.00  0.00    -0.506 OA 
HETATM   17  N   UNL     1     -13.912   9.278  72.814  1.00  0.00    -0.804 N  
HETATM   18  H2  UNL     1     -13.882   8.258  72.825  1.00  0.00     0.000 HD 
HETATM   19  H1  UNL     1     -14.459   9.853  73.455  1.00  0.00     0.000 HD 
ENDBRANCH  14  15
ENDBRANCH  13  14
ENDBRANCH   4  13
BRANCH   5  20
HETATM   20  N   UNL     1      -6.216   7.919  68.183  1.00  0.00    -0.045 N  
HETATM   21  H   UNL     1      -5.296   7.904  67.743  1.00  0.00     0.000 HD 
HETATM   22  C   UNL     1      -7.104   7.008  67.581  1.00  0.00    -0.085 C  
HETATM   23  O   UNL     1      -6.672   6.275  66.705  1.00  0.00    -0.056 OA 
BRANCH  22  24
HETATM   24  C   UNL     1      -8.603   7.031  67.831  1.00  0.00    -0.126 C  
BRANCH  24  25
HETATM   25  C   UNL     1      -9.197   6.079  68.762  1.00  0.00    -0.123 A  
HETATM   26  O   UNL     1     -10.512   6.157  69.141  1.00  0.00    -0.199 OA 
HETATM   27  C   UNL     1      -8.552   5.173  69.596  1.00  0.00    -0.100 A  
HETATM   28  C   UNL     1     -10.652   5.402  70.268  1.00  0.00    -0.259 A  
HETATM   29  C   UNL     1      -9.470   4.785  70.596  1.00  0.00    -0.238 A  
ENDBRANCH  24  25
BRANCH  24  30
HETATM   30  N   UNL     1      -9.489   7.698  67.153  1.00  0.00    -0.147 NA 
HETATM   31  H   UNL     1     -10.370   7.914  67.619  1.00  0.00     0.000 HD 
BRANCH  30  32
HETATM   32  O   UNL     1      -9.336   8.141  65.842  1.00  0.00    -0.155 OA 
HETATM   33  C   UNL     1      -9.093   9.498  65.552  1.00  0.00    -0.212 C  
ENDBRANCH  30  32
ENDBRANCH  24  30
ENDBRANCH  22  24
ENDBRANCH   5  20
TORSDOF 8
ENDMDL
MODEL      157
REMARK 921   NORMALIZED FREE ENERGY PREDICTED BY IDOCK:   -4.50 KCAL/MOL
REMARK 922        TOTAL FREE ENERGY PREDICTED BY IDOCK:   -8.01 KCAL/MOL
REMARK 923 INTER-LIGAND FREE ENERGY PREDICTED BY IDOCK:   -6.36 KCAL/MOL
REMARK 924 INTRA-LIGAND FREE ENERGY PREDICTED BY IDOCK:   -1.65 KCAL/MOL
REMARK 927      BINDING AFFINITY PREDICTED BY RF-SCORE:    0.00 PKD
ROOT
HETATM    1  C   UNL     1      -9.887   8.391  66.222  1.00  0.00    -0.187 C  
HETATM    2  S   UNL     1      -9.351   7.237  67.455  1.00  0.00    -0.131 SA 
HETATM    3  C   UNL     1      -9.713   8.085  69.018  1.00  0.00    -0.159 C  
HETATM    4  C   UNL     1     -10.409   9.415  68.987  1.00  0.00    -0.224 C  
HETATM    5  CA  UNL     1      -9.073   9.120  65.050  1.00  0.00    -0.156 C  
HETATM    6  CA  UNL     1     -10.716  10.122  67.883  1.00  0.00    -0.269 C  
HETATM    7  C   UNL     1      -9.996  10.301  65.460  1.00  0.00    -0.296 C  
HETATM    8  C   UNL     1     -11.493  11.401  68.002  1.00  0.00    -0.307 C  
HETATM    9  N   UNL     1     -10.275   9.709  66.639  1.00  0.00    -0.239 N  
HETATM   10  OXT UNL     1     -12.391  11.522  68.822  1.00  0.00    -0.425 OA 
HETATM   11  O   UNL     1     -10.212  11.407  65.062  1.00  0.00    -0.251 OA 
HETATM   12  O   UNL     1     -11.188  12.398  67.157  1.00  0.00    -0.264 OA 
ENDROOT
BRANCH   4  13
HETATM   13  C   UNL     1     -10.611   9.973  70.399  1.00  0.00    -0.280 C  
BRANCH  13  14
HETATM   14  O   UNL     1     -11.349   9.072  71.248  1.00  0.00    -0.270 OA 
BRANCH  14  15
HETATM   15  C   UNL     1     -12.445   9.564  71.856  1.00  0.00    -0.384 C  
HETATM   16  O   UNL     1     -12.801  10.732  71.888  1.00  0.00    -0.436 OA 
HETATM   17  N   UNL     1     -13.105   8.572  72.500  1.00  0.00    -0.602 N  
HETATM   18  H2  UNL     1     -12.815   7.595  72.520  1.00  0.00     0.000 HD 
HETATM   19  H1  UNL     1     -13.935   8.946  72.961  1.00  0.00     0.000 HD 
ENDBRANCH  14  15
ENDBRANCH  13  14
ENDBRANCH   4  13
BRANCH   5  20
HETATM   20  N   UNL     1      -7.647   9.609  64.881  1.00  0.00    -0.112 N  
HETATM   21  H   UNL     1      -7.232   9.282  64.009  1.00  0.00     0.000 HD 
HETATM   22  C   UNL     1      -6.754  10.400  65.627  1.00  0.00    -0.127 C  
HETATM   23  O   UNL     1      -5.670  10.668  65.132  1.00  0.00    -0.139 OA 
BRANCH  22  24
HETATM   24  C   UNL     1      -6.996  10.767  67.082  1.00  0.00    -0.091 C  
BRANCH  24  25
HETATM   25  C   UNL     1      -7.062  12.170  67.475  1.00  0.00    -0.135 A  
HETATM   26  O   UNL     1      -6.001  13.021  67.310  1.00  0.00    -0.319 OA 
HETATM   27  C   UNL     1      -8.006  12.795  68.281  1.00  0.00    -0.151 A  
HETATM   28  C   UNL     1      -6.230  14.109  68.099  1.00  0.00    -0.133 A  
HETATM   29  C   UNL     1      -7.448  14.011  68.728  1.00  0.00    -0.124 A  
ENDBRANCH  24  25
BRANCH  24  30
HETATM   30  N   UNL     1      -6.965   9.957  68.098  1.00  0.00    -0.075 NA 
HETATM   31  H   UNL     1      -7.804   9.408  68.284  1.00  0.00     0.000 HD 
BRANCH  30  32
HETATM   32  O   UNL     1      -5.882   9.777  68.955  1.00  0.00    -0.036 OA 
HETATM   33  C   UNL     1      -5.322   8.502  69.167  1.00  0.00    -0.035 C  
ENDBRANCH  30  32
ENDBRANCH  24  30
ENDBRANCH  22  24
ENDBRANCH   5  20
TORSDOF 8
ENDMDL
MODEL      158
REMARK 921   NORMALIZED FREE ENERGY PREDICTED BY IDOCK:   -4.50 KCAL/MOL
REMARK 922        TOTAL FREE ENERGY PREDICTED BY IDOCK:   -8.00 KCAL/MOL
REMARK 923 INTER-LIGAND FREE ENERGY PREDICTED BY IDOCK:   -6.91 KCAL/MOL
REMARK 924 INTRA-LIGAND FREE ENERGY PREDICTED BY IDOCK:   -1.09 KCAL/MOL
REMARK 927      BINDING AFFINITY PREDICTED BY RF-SCORE:    0.00 PKD
ROOT
HETATM    1  C   UNL     1     -10.463  11.374  67.485  1.00  0.00    -0.201 C  
HETATM    2  S   UNL     1      -9.208  10.710  66.424  1.00  0.00    -0.173 SA 
HETATM    3  C   UNL     1      -8.763   9.141  67.219  1.00  0.00    -0.117 C  
HETATM    4  C   UNL     1      -9.520   8.695  68.437  1.00  0.00    -0.144 C  
HETATM    5  CA  UNL     1     -10.511  12.742  68.316  1.00  0.00    -0.241 C  
HETATM    6  CA  UNL     1     -10.460   9.407  69.088  1.00  0.00    -0.217 C  
HETATM    7  C   UNL     1     -11.198  11.815  69.356  1.00  0.00    -0.234 C  
HETATM    8  C   UNL     1     -11.196   8.795  70.245  1.00  0.00    -0.195 C  
HETATM    9  N   UNL     1     -10.718  10.719  68.736  1.00  0.00    -0.193 N  
HETATM   10  OXT UNL     1     -11.512   7.615  70.242  1.00  0.00    -0.237 OA 
HETATM   11  O   UNL     1     -11.727  11.953  70.419  1.00  0.00    -0.283 OA 
HETATM   12  O   UNL     1     -11.522   9.596  71.271  1.00  0.00    -0.339 OA 
ENDROOT
BRANCH   4  13
HETATM   13  C   UNL     1      -8.989   7.360  68.968  1.00  0.00    -0.131 C  
BRANCH  13  14
HETATM   14  O   UNL     1      -8.623   6.453  67.909  1.00  0.00    -0.117 OA 
BRANCH  14  15
HETATM   15  C   UNL     1      -9.498   5.471  67.616  1.00  0.00    -0.118 C  
HETATM   16  O   UNL     1      -9.279   4.473  66.947  1.00  0.00    -0.119 OA 
HETATM   17  N   UNL     1     -10.715   5.763  68.132  1.00  0.00    -0.233 N  
HETATM   18  H2  UNL     1     -10.937   6.604  68.666  1.00  0.00     0.000 HD 
HETATM   19  H1  UNL     1     -11.377   5.020  67.910  1.00  0.00     0.000 HD 
ENDBRANCH  14  15
ENDBRANCH  13  14
ENDBRANCH   4  13
BRANCH   5  20
HETATM   20  N   UNL     1      -9.476  13.615  69.001  1.00  0.00    -0.391 N  
HETATM   21  H   UNL     1      -8.663  13.079  69.301  1.00  0.00     0.000 HD 
HETATM   22  C   UNL     1      -9.359  14.979  69.326  1.00  0.00    -0.162 C  
HETATM   23  O   UNL     1      -8.312  15.365  69.824  1.00  0.00    -0.208 OA 
BRANCH  22  24
HETATM   24  C   UNL     1     -10.532  15.944  69.268  1.00  0.00    -0.253 C  
BRANCH  24  25
HETATM   25  C   UNL     1     -11.469  16.013  70.383  1.00  0.00    -0.377 A  
HETATM   26  O   UNL     1     -11.046  16.133  71.681  1.00  0.00    -0.075 OA 
HETATM   27  C   UNL     1     -12.825  15.707  70.388  1.00  0.00    -0.252 A  
HETATM   28  C   UNL     1     -12.096  15.789  72.480  1.00  0.00    -0.489 A  
HETATM   29  C   UNL     1     -13.212  15.505  71.730  1.00  0.00    -0.567 A  
ENDBRANCH  24  25
BRANCH  24  30
HETATM   30  N   UNL     1     -10.931  16.613  68.228  1.00  0.00    -0.359 NA 
HETATM   31  H   UNL     1     -11.796  16.310  67.781  1.00  0.00     0.000 HD 
BRANCH  30  32
HETATM   32  O   UNL     1     -10.276  17.709  67.673  1.00  0.00    -0.320 OA 
HETATM   33  C   UNL     1     -10.688  18.263  66.445  1.00  0.00    -0.161 C  
ENDBRANCH  30  32
ENDBRANCH  24  30
ENDBRANCH  22  24
ENDBRANCH   5  20
TORSDOF 8
ENDMDL
MODEL      159
REMARK 921   NORMALIZED FREE ENERGY PREDICTED BY IDOCK:   -4.48 KCAL/MOL
REMARK 922        TOTAL FREE ENERGY PREDICTED BY IDOCK:   -7.98 KCAL/MOL
REMARK 923 INTER-LIGAND FREE ENERGY PREDICTED BY IDOCK:   -6.80 KCAL/MOL
REMARK 924 INTRA-LIGAND FREE ENERGY PREDICTED BY IDOCK:   -1.18 KCAL/MOL
REMARK 927      BINDING AFFINITY PREDICTED BY RF-SCORE:    0.00 PKD
ROOT
HETATM    1  C   UNL     1     -11.210   7.207  69.345  1.00  0.00    -0.044 C  
HETATM    2  S   UNL     1     -10.558   5.940  68.290  1.00  0.00    -0.236 SA 
HETATM    3  C   UNL     1      -9.790   4.773  69.448  1.00  0.00    -0.212 C  
HETATM    4  C   UNL     1      -9.916   5.015  70.925  1.00  0.00    -0.286 C  
HETATM    5  CA  UNL     1     -10.891   8.775  69.412  1.00  0.00    -0.110 C  
HETATM    6  CA  UNL     1     -10.470   6.098  71.504  1.00  0.00    -0.222 C  
HETATM    7  C   UNL     1     -11.031   8.501  70.935  1.00  0.00    -0.251 C  
HETATM    8  C   UNL     1     -10.603   6.162  72.999  1.00  0.00    -0.241 C  
HETATM    9  N   UNL     1     -10.870   7.177  70.739  1.00  0.00    -0.239 N  
HETATM   10  OXT UNL     1     -10.876   5.168  73.654  1.00  0.00    -0.272 OA 
HETATM   11  O   UNL     1     -11.028   9.158  71.934  1.00  0.00    -0.364 OA 
HETATM   12  O   UNL     1     -10.441   7.356  73.588  1.00  0.00    -0.360 OA 
ENDROOT
BRANCH   4  13
HETATM   13  C   UNL     1      -9.191   3.934  71.732  1.00  0.00    -0.125 C  
BRANCH  13  14
HETATM   14  O   UNL     1      -7.768   4.151  71.791  1.00  0.00    -0.070 OA 
BRANCH  14  15
HETATM   15  C   UNL     1      -7.264   4.592  72.960  1.00  0.00    -0.080 C  
HETATM   16  O   UNL     1      -6.414   5.456  73.110  1.00  0.00    -0.061 OA 
HETATM   17  N   UNL     1      -7.802   3.896  73.989  1.00  0.00    -0.082 N  
HETATM   18  H2  UNL     1      -8.488   3.147  73.893  1.00  0.00     0.000 HD 
HETATM   19  H1  UNL     1      -7.420   4.230  74.875  1.00  0.00     0.000 HD 
ENDBRANCH  14  15
ENDBRANCH  13  14
ENDBRANCH   4  13
BRANCH   5  20
HETATM   20  N   UNL     1      -9.667   9.631  69.147  1.00  0.00    -0.170 N  
HETATM   21  H   UNL     1      -8.805   9.157  69.416  1.00  0.00     0.000 HD 
HETATM   22  C   UNL     1      -9.424  10.915  68.624  1.00  0.00    -0.190 C  
HETATM   23  O   UNL     1      -8.264  11.265  68.474  1.00  0.00    -0.138 OA 
BRANCH  22  24
HETATM   24  C   UNL     1     -10.523  11.945  68.426  1.00  0.00    -0.217 C  
BRANCH  24  25
HETATM   25  C   UNL     1     -10.922  12.328  67.076  1.00  0.00    -0.268 A  
HETATM   26  O   UNL     1     -12.204  12.708  66.778  1.00  0.00    -0.506 OA 
HETATM   27  C   UNL     1     -10.235  12.126  65.885  1.00  0.00    -0.272 A  
HETATM   28  C   UNL     1     -12.345  12.627  65.424  1.00  0.00    -0.436 A  
HETATM   29  C   UNL     1     -11.162  12.260  64.830  1.00  0.00    -0.364 A  
ENDBRANCH  24  25
BRANCH  24  30
HETATM   30  N   UNL     1     -11.050  12.700  69.344  1.00  0.00    -0.447 NA 
HETATM   31  H   UNL     1     -11.616  12.242  70.058  1.00  0.00     0.000 HD 
BRANCH  30  32
HETATM   32  O   UNL     1     -10.905  14.082  69.433  1.00  0.00    -0.206 OA 
HETATM   33  C   UNL     1     -11.973  14.904  69.842  1.00  0.00    -0.330 C  
ENDBRANCH  30  32
ENDBRANCH  24  30
ENDBRANCH  22  24
ENDBRANCH   5  20
TORSDOF 8
ENDMDL
MODEL      160
REMARK 921   NORMALIZED FREE ENERGY PREDICTED BY IDOCK:   -4.48 KCAL/MOL
REMARK 922        TOTAL FREE ENERGY PREDICTED BY IDOCK:   -7.97 KCAL/MOL
REMARK 923 INTER-LIGAND FREE ENERGY PREDICTED BY IDOCK:   -7.00 KCAL/MOL
REMARK 924 INTRA-LIGAND FREE ENERGY PREDICTED BY IDOCK:   -0.97 KCAL/MOL
REMARK 927      BINDING AFFINITY PREDICTED BY RF-SCORE:    0.00 PKD
ROOT
HETATM    1  C   UNL     1     -10.344  12.505  67.627  1.00  0.00    -0.218 C  
HETATM    2  S   UNL     1     -11.395  11.201  67.047  1.00  0.00    -0.019 SA 
HETATM    3  C   UNL     1     -10.234   9.995  66.348  1.00  0.00    -0.221 C  
HETATM    4  C   UNL     1      -8.757  10.247  66.462  1.00  0.00    -0.139 C  
HETATM    5  CA  UNL     1     -10.279  14.053  67.221  1.00  0.00    -0.260 C  
HETATM    6  CA  UNL     1      -8.181  11.360  66.955  1.00  0.00    -0.157 C  
HETATM    7  C   UNL     1      -8.756  13.790  67.378  1.00  0.00    -0.207 C  
HETATM    8  C   UNL     1      -6.687  11.435  67.087  1.00  0.00    -0.121 C  
HETATM    9  N   UNL     1      -8.949  12.459  67.292  1.00  0.00    -0.182 N  
HETATM   10  OXT UNL     1      -6.030  10.459  67.416  1.00  0.00    -0.052 OA 
HETATM   11  O   UNL     1      -7.758  14.448  67.339  1.00  0.00    -0.180 OA 
HETATM   12  O   UNL     1      -6.099  12.620  66.858  1.00  0.00    -0.235 OA 
ENDROOT
BRANCH   4  13
HETATM   13  C   UNL     1      -7.947   9.128  65.801  1.00  0.00    -0.103 C  
BRANCH  13  14
HETATM   14  O   UNL     1      -7.750   9.350  64.391  1.00  0.00    -0.110 OA 
BRANCH  14  15
HETATM   15  C   UNL     1      -6.480   9.506  63.968  1.00  0.00    -0.100 C  
HETATM   16  O   UNL     1      -6.062  10.372  63.215  1.00  0.00    -0.144 OA 
HETATM   17  N   UNL     1      -5.700   8.515  64.461  1.00  0.00    -0.062 N  
HETATM   18  H2  UNL     1      -6.027   7.760  65.065  1.00  0.00     0.000 HD 
HETATM   19  H1  UNL     1      -4.739   8.634  64.141  1.00  0.00     0.000 HD 
ENDBRANCH  14  15
ENDBRANCH  13  14
ENDBRANCH   4  13
BRANCH   5  20
HETATM   20  N   UNL     1     -10.544  14.837  65.950  1.00  0.00    -0.300 N  
HETATM   21  H   UNL     1     -10.636  14.228  65.138  1.00  0.00     0.000 HD 
HETATM   22  C   UNL     1     -10.694  16.195  65.612  1.00  0.00    -0.310 C  
HETATM   23  O   UNL     1     -10.991  16.473  64.460  1.00  0.00    -0.827 OA 
BRANCH  22  24
HETATM   24  C   UNL     1     -10.314  17.325  66.554  1.00  0.00    -0.308 C  
BRANCH  24  25
HETATM   25  C   UNL     1      -9.227  18.231  66.200  1.00  0.00    -0.120 A  
HETATM   26  O   UNL     1      -8.000  17.771  65.801  1.00  0.00    -0.544 OA 
HETATM   27  C   UNL     1      -9.127  19.595  66.449  1.00  0.00    -0.437 A  
HETATM   28  C   UNL     1      -7.123  18.810  65.916  1.00  0.00    -0.255 A  
HETATM   29  C   UNL     1      -7.767  19.952  66.324  1.00  0.00    -0.332 A  
ENDBRANCH  24  25
BRANCH  24  30
HETATM   30  N   UNL     1     -10.728  17.484  67.776  1.00  0.00    -0.372 NA 
HETATM   31  H   UNL     1     -10.601  18.404  68.197  1.00  0.00     0.000 HD 
BRANCH  30  32
HETATM   32  O   UNL     1     -11.330  16.502  68.559  1.00  0.00    -0.356 OA 
HETATM   33  C   UNL     1     -10.758  16.084  69.776  1.00  0.00    -0.331 C  
ENDBRANCH  30  32
ENDBRANCH  24  30
ENDBRANCH  22  24
ENDBRANCH   5  20
TORSDOF 8
ENDMDL
MODEL      161
REMARK 921   NORMALIZED FREE ENERGY PREDICTED BY IDOCK:   -4.46 KCAL/MOL
REMARK 922        TOTAL FREE ENERGY PREDICTED BY IDOCK:   -7.94 KCAL/MOL
REMARK 923 INTER-LIGAND FREE ENERGY PREDICTED BY IDOCK:   -7.17 KCAL/MOL
REMARK 924 INTRA-LIGAND FREE ENERGY PREDICTED BY IDOCK:   -0.76 KCAL/MOL
REMARK 927      BINDING AFFINITY PREDICTED BY RF-SCORE:    0.00 PKD
ROOT
HETATM    1  C   UNL     1     -12.212   9.379  70.791  1.00  0.00    -0.162 C  
HETATM    2  S   UNL     1     -13.317   9.798  72.112  1.00  0.00    -0.364 SA 
HETATM    3  C   UNL     1     -13.385  11.610  72.053  1.00  0.00    -0.300 C  
HETATM    4  C   UNL     1     -12.654  12.337  70.960  1.00  0.00    -0.352 C  
HETATM    5  CA  UNL     1     -10.813   8.600  70.808  1.00  0.00    -0.230 C  
HETATM    6  CA  UNL     1     -11.840  11.776  70.046  1.00  0.00    -0.342 C  
HETATM    7  C   UNL     1     -10.470   9.668  69.733  1.00  0.00    -0.238 C  
HETATM    8  C   UNL     1     -11.244  12.619  68.955  1.00  0.00    -0.269 C  
HETATM    9  N   UNL     1     -11.504  10.438  70.130  1.00  0.00    -0.295 N  
HETATM   10  OXT UNL     1     -11.880  13.521  68.432  1.00  0.00    -0.341 OA 
HETATM   11  O   UNL     1      -9.551   9.896  69.004  1.00  0.00    -0.169 OA 
HETATM   12  O   UNL     1      -9.996  12.330  68.555  1.00  0.00    -0.213 OA 
ENDROOT
BRANCH   4  13
HETATM   13  C   UNL     1     -12.820  13.854  71.090  1.00  0.00    -0.351 C  
BRANCH  13  14
HETATM   14  O   UNL     1     -13.191  14.255  72.423  1.00  0.00    -0.387 OA 
BRANCH  14  15
HETATM   15  C   UNL     1     -12.858  15.505  72.800  1.00  0.00    -0.435 C  
HETATM   16  O   UNL     1     -13.064  16.020  73.888  1.00  0.00    -0.615 OA 
HETATM   17  N   UNL     1     -12.286  16.166  71.766  1.00  0.00    -0.587 N  
HETATM   18  H2  UNL     1     -12.131  15.774  70.837  1.00  0.00     0.000 HD 
HETATM   19  H1  UNL     1     -12.034  17.112  72.052  1.00  0.00     0.000 HD 
ENDBRANCH  14  15
ENDBRANCH  13  14
ENDBRANCH   4  13
BRANCH   5  20
HETATM   20  N   UNL     1      -9.670   8.474  71.798  1.00  0.00    -0.239 N  
HETATM   21  H   UNL     1      -9.471   9.358  72.266  1.00  0.00     0.000 HD 
HETATM   22  C   UNL     1      -8.817   7.443  72.232  1.00  0.00    -0.124 C  
HETATM   23  O   UNL     1      -8.034   7.686  73.138  1.00  0.00    -0.100 OA 
BRANCH  22  24
HETATM   24  C   UNL     1      -8.690   6.116  71.502  1.00  0.00    -0.135 C  
BRANCH  24  25
HETATM   25  C   UNL     1      -7.485   5.824  70.734  1.00  0.00    -0.090 A  
HETATM   26  O   UNL     1      -6.971   6.709  69.823  1.00  0.00    -0.062 OA 
HETATM   27  C   UNL     1      -6.846   4.600  70.568  1.00  0.00    -0.037 A  
HETATM   28  C   UNL     1      -6.112   6.013  69.025  1.00  0.00    -0.032 A  
HETATM   29  C   UNL     1      -6.010   4.706  69.435  1.00  0.00    -0.018 A  
ENDBRANCH  24  25
BRANCH  24  30
HETATM   30  N   UNL     1      -9.636   5.245  71.312  1.00  0.00    -0.154 NA 
HETATM   31  H   UNL     1     -10.060   4.827  72.139  1.00  0.00     0.000 HD 
BRANCH  30  32
HETATM   32  O   UNL     1     -10.120   4.837  70.071  1.00  0.00    -0.239 OA 
HETATM   33  C   UNL     1     -10.617   5.767  69.138  1.00  0.00    -0.294 C  
ENDBRANCH  30  32
ENDBRANCH  24  30
ENDBRANCH  22  24
ENDBRANCH   5  20
TORSDOF 8
ENDMDL
MODEL      162
REMARK 921   NORMALIZED FREE ENERGY PREDICTED BY IDOCK:   -4.45 KCAL/MOL
REMARK 922        TOTAL FREE ENERGY PREDICTED BY IDOCK:   -7.93 KCAL/MOL
REMARK 923 INTER-LIGAND FREE ENERGY PREDICTED BY IDOCK:   -6.34 KCAL/MOL
REMARK 924 INTRA-LIGAND FREE ENERGY PREDICTED BY IDOCK:   -1.58 KCAL/MOL
REMARK 927      BINDING AFFINITY PREDICTED BY RF-SCORE:    0.00 PKD
ROOT
HETATM    1  C   UNL     1     -11.619   9.754  71.019  1.00  0.00    -0.376 C  
HETATM    2  S   UNL     1     -13.096   8.802  71.247  1.00  0.00    -0.106 SA 
HETATM    3  C   UNL     1     -12.528   7.346  72.167  1.00  0.00    -0.177 C  
HETATM    4  C   UNL     1     -11.092   7.267  72.603  1.00  0.00    -0.355 C  
HETATM    5  CA  UNL     1     -10.881  10.231  69.679  1.00  0.00    -0.271 C  
HETATM    6  CA  UNL     1     -10.121   8.145  72.286  1.00  0.00    -0.269 C  
HETATM    7  C   UNL     1      -9.624   9.905  70.533  1.00  0.00     0.030 C  
HETATM    8  C   UNL     1      -8.745   7.983  72.867  1.00  0.00    -0.213 C  
HETATM    9  N   UNL     1     -10.362   9.166  71.385  1.00  0.00    -0.324 N  
HETATM   10  OXT UNL     1      -8.584   7.599  74.015  1.00  0.00    -0.204 OA 
HETATM   11  O   UNL     1      -8.441  10.016  70.405  1.00  0.00    -0.101 OA 
HETATM   12  O   UNL     1      -7.699   8.304  72.091  1.00  0.00    -0.109 OA 
ENDROOT
BRANCH   4  13
HETATM   13  C   UNL     1     -10.805   5.962  73.350  1.00  0.00    -0.245 C  
BRANCH  13  14
HETATM   14  O   UNL     1     -10.549   4.861  72.456  1.00  0.00    -0.206 OA 
BRANCH  14  15
HETATM   15  C   UNL     1      -9.677   3.923  72.875  1.00  0.00    -0.130 C  
HETATM   16  O   UNL     1      -9.659   2.745  72.552  1.00  0.00    -0.102 OA 
HETATM   17  N   UNL     1      -8.818   4.457  73.775  1.00  0.00    -0.104 N  
HETATM   18  H2  UNL     1      -8.829   5.427  74.089  1.00  0.00     0.000 HD 
HETATM   19  H1  UNL     1      -8.158   3.746  74.092  1.00  0.00     0.000 HD 
ENDBRANCH  14  15
ENDBRANCH  13  14
ENDBRANCH   4  13
BRANCH   5  20
HETATM   20  N   UNL     1     -10.724   9.660  68.283  1.00  0.00    -0.327 N  
HETATM   21  H   UNL     1     -10.450   8.678  68.300  1.00  0.00     0.000 HD 
HETATM   22  C   UNL     1     -10.861  10.147  66.969  1.00  0.00    -0.151 C  
HETATM   23  O   UNL     1     -10.732   9.357  66.046  1.00  0.00     0.133 OA 
BRANCH  22  24
HETATM   24  C   UNL     1     -10.965  11.628  66.646  1.00  0.00    -0.299 C  
BRANCH  24  25
HETATM   25  C   UNL     1      -9.943  12.549  67.129  1.00  0.00    -0.216 A  
HETATM   26  O   UNL     1      -8.708  12.116  67.535  1.00  0.00    -0.158 OA 
HETATM   27  C   UNL     1     -10.092  13.876  67.515  1.00  0.00    -0.244 A  
HETATM   28  C   UNL     1      -8.148  13.121  68.267  1.00  0.00    -0.152 A  
HETATM   29  C   UNL     1      -8.968  14.223  68.294  1.00  0.00    -0.187 A  
ENDBRANCH  24  25
BRANCH  24  30
HETATM   30  N   UNL     1     -11.992  12.236  66.130  1.00  0.00    -0.618 NA 
HETATM   31  H   UNL     1     -12.825  12.323  66.711  1.00  0.00     0.000 HD 
BRANCH  30  32
HETATM   32  O   UNL     1     -12.048  12.777  64.848  1.00  0.00    -0.386 OA 
HETATM   33  C   UNL     1     -11.962  11.959  63.704  1.00  0.00    -0.476 C  
ENDBRANCH  30  32
ENDBRANCH  24  30
ENDBRANCH  22  24
ENDBRANCH   5  20
TORSDOF 8
ENDMDL
MODEL      163
REMARK 921   NORMALIZED FREE ENERGY PREDICTED BY IDOCK:   -4.44 KCAL/MOL
REMARK 922        TOTAL FREE ENERGY PREDICTED BY IDOCK:   -7.92 KCAL/MOL
REMARK 923 INTER-LIGAND FREE ENERGY PREDICTED BY IDOCK:   -5.82 KCAL/MOL
REMARK 924 INTRA-LIGAND FREE ENERGY PREDICTED BY IDOCK:   -2.09 KCAL/MOL
REMARK 927      BINDING AFFINITY PREDICTED BY RF-SCORE:    0.00 PKD
ROOT
HETATM    1  C   UNL     1      -7.423   8.592  72.000  1.00  0.00    -0.037 C  
HETATM    2  S   UNL     1      -6.560   8.740  70.459  1.00  0.00    -0.047 SA 
HETATM    3  C   UNL     1      -7.871   9.152  69.274  1.00  0.00    -0.095 C  
HETATM    4  C   UNL     1      -9.272   9.363  69.774  1.00  0.00    -0.209 C  
HETATM    5  CA  UNL     1      -7.566   7.349  73.000  1.00  0.00    -0.084 C  
HETATM    6  CA  UNL     1      -9.697   9.174  71.038  1.00  0.00    -0.289 C  
HETATM    7  C   UNL     1      -9.008   7.915  73.125  1.00  0.00    -0.243 C  
HETATM    8  C   UNL     1     -11.113   9.509  71.411  1.00  0.00    -0.368 C  
HETATM    9  N   UNL     1      -8.858   8.622  71.987  1.00  0.00    -0.215 N  
HETATM   10  OXT UNL     1     -11.680  10.480  70.933  1.00  0.00    -0.338 OA 
HETATM   11  O   UNL     1      -9.977   7.672  73.781  1.00  0.00    -0.287 OA 
HETATM   12  O   UNL     1     -11.725   8.723  72.309  1.00  0.00    -0.363 OA 
ENDROOT
BRANCH   4  13
HETATM   13  C   UNL     1     -10.232   9.686  68.625  1.00  0.00    -0.189 C  
BRANCH  13  14
HETATM   14  O   UNL     1      -9.854  10.878  67.909  1.00  0.00    -0.167 OA 
BRANCH  14  15
HETATM   15  C   UNL     1     -10.830  11.768  67.645  1.00  0.00    -0.217 C  
HETATM   16  O   UNL     1     -12.025  11.536  67.551  1.00  0.00    -0.629 OA 
HETATM   17  N   UNL     1     -10.296  12.995  67.437  1.00  0.00    -0.233 N  
HETATM   18  H2  UNL     1      -9.300  13.213  67.476  1.00  0.00     0.000 HD 
HETATM   19  H1  UNL     1     -11.035  13.669  67.237  1.00  0.00     0.000 HD 
ENDBRANCH  14  15
ENDBRANCH  13  14
ENDBRANCH   4  13
BRANCH   5  20
HETATM   20  N   UNL     1      -7.611   5.842  72.835  1.00  0.00    -0.096 N  
HETATM   21  H   UNL     1      -7.318   5.356  73.682  1.00  0.00     0.000 HD 
HETATM   22  C   UNL     1      -7.956   4.947  71.805  1.00  0.00    -0.109 C  
HETATM   23  O   UNL     1      -7.952   3.751  72.056  1.00  0.00    -0.069 OA 
BRANCH  22  24
HETATM   24  C   UNL     1      -8.138   5.383  70.361  1.00  0.00    -0.101 C  
BRANCH  24  25
HETATM   25  C   UNL     1      -9.480   5.572  69.824  1.00  0.00    -0.149 A  
HETATM   26  O   UNL     1      -9.704   5.810  68.494  1.00  0.00    -0.121 OA 
HETATM   27  C   UNL     1     -10.659   5.816  70.520  1.00  0.00    -0.359 A  
HETATM   28  C   UNL     1     -10.968   6.310  68.381  1.00  0.00    -0.325 A  
HETATM   29  C   UNL     1     -11.593   6.345  69.603  1.00  0.00    -0.351 A  
ENDBRANCH  24  25
BRANCH  24  30
HETATM   30  N   UNL     1      -7.215   5.434  69.447  1.00  0.00    -0.063 NA 
HETATM   31  H   UNL     1      -6.745   6.327  69.306  1.00  0.00     0.000 HD 
BRANCH  30  32
HETATM   32  O   UNL     1      -6.815   4.368  68.644  1.00  0.00    -0.048 OA 
HETATM   33  C   UNL     1      -5.764   3.515  69.032  1.00  0.00    -0.022 C  
ENDBRANCH  30  32
ENDBRANCH  24  30
ENDBRANCH  22  24
ENDBRANCH   5  20
TORSDOF 8
ENDMDL
MODEL      164
REMARK 921   NORMALIZED FREE ENERGY PREDICTED BY IDOCK:   -4.44 KCAL/MOL
REMARK 922        TOTAL FREE ENERGY PREDICTED BY IDOCK:   -7.91 KCAL/MOL
REMARK 923 INTER-LIGAND FREE ENERGY PREDICTED BY IDOCK:   -7.04 KCAL/MOL
REMARK 924 INTRA-LIGAND FREE ENERGY PREDICTED BY IDOCK:   -0.87 KCAL/MOL
REMARK 927      BINDING AFFINITY PREDICTED BY RF-SCORE:    0.00 PKD
ROOT
HETATM    1  C   UNL     1      -9.305   9.754  66.166  1.00  0.00    -0.191 C  
HETATM    2  S   UNL     1      -9.343  10.172  64.444  1.00  0.00    -0.309 SA 
HETATM    3  C   UNL     1     -10.670  11.404  64.333  1.00  0.00    -0.342 C  
HETATM    4  C   UNL     1     -11.351  11.865  65.590  1.00  0.00    -0.339 C  
HETATM    5  CA  UNL     1      -9.534   8.351  66.905  1.00  0.00    -0.185 C  
HETATM    6  CA  UNL     1     -11.147  11.370  66.826  1.00  0.00    -0.281 C  
HETATM    7  C   UNL     1     -10.253   9.272  67.929  1.00  0.00    -0.214 C  
HETATM    8  C   UNL     1     -11.840  11.990  68.006  1.00  0.00    -0.269 C  
HETATM    9  N   UNL     1     -10.346  10.260  67.016  1.00  0.00    -0.231 N  
HETATM   10  OXT UNL     1     -12.012  13.198  68.076  1.00  0.00    -0.351 OA 
HETATM   11  O   UNL     1     -10.764   9.137  69.001  1.00  0.00    -0.217 OA 
HETATM   12  O   UNL     1     -12.238  11.176  68.995  1.00  0.00    -0.469 OA 
ENDROOT
BRANCH   4  13
HETATM   13  C   UNL     1     -12.447  12.890  65.288  1.00  0.00    -0.493 C  
BRANCH  13  14
HETATM   14  O   UNL     1     -12.047  13.845  64.286  1.00  0.00    -0.432 OA 
BRANCH  14  15
HETATM   15  C   UNL     1     -11.693  15.072  64.716  1.00  0.00    -0.370 C  
HETATM   16  O   UNL     1     -11.500  16.061  64.027  1.00  0.00    -0.578 OA 
HETATM   17  N   UNL     1     -11.520  15.061  66.059  1.00  0.00    -0.279 N  
HETATM   18  H2  UNL     1     -11.640  14.244  66.657  1.00  0.00     0.000 HD 
HETATM   19  H1  UNL     1     -11.251  15.990  66.385  1.00  0.00     0.000 HD 
ENDBRANCH  14  15
ENDBRANCH  13  14
ENDBRANCH   4  13
BRANCH   5  20
HETATM   20  N   UNL     1     -10.378   7.121  66.629  1.00  0.00    -0.473 N  
HETATM   21  H   UNL     1     -11.361   7.274  66.854  1.00  0.00     0.000 HD 
HETATM   22  C   UNL     1     -10.145   5.822  66.140  1.00  0.00    -0.006 C  
HETATM   23  O   UNL     1     -11.107   5.091  65.964  1.00  0.00    -0.166 OA 
BRANCH  22  24
HETATM   24  C   UNL     1      -8.752   5.229  66.009  1.00  0.00    -0.137 C  
BRANCH  24  25
HETATM   25  C   UNL     1      -7.748   5.908  65.197  1.00  0.00    -0.093 A  
HETATM   26  O   UNL     1      -6.653   6.515  65.752  1.00  0.00    -0.041 OA 
HETATM   27  C   UNL     1      -7.837   6.293  63.864  1.00  0.00    -0.112 A  
HETATM   28  C   UNL     1      -6.139   7.359  64.812  1.00  0.00    -0.038 A  
HETATM   29  C   UNL     1      -6.841   7.267  63.635  1.00  0.00    -0.053 A  
ENDBRANCH  24  25
BRANCH  24  30
HETATM   30  N   UNL     1      -8.376   4.046  66.394  1.00  0.00    -0.104 NA 
HETATM   31  H   UNL     1      -7.379   3.896  66.539  1.00  0.00     0.000 HD 
BRANCH  30  32
HETATM   32  O   UNL     1      -9.225   2.966  66.625  1.00  0.00    -0.158 OA 
HETATM   33  C   UNL     1      -8.718   1.700  66.978  1.00  0.00    -0.110 C  
ENDBRANCH  30  32
ENDBRANCH  24  30
ENDBRANCH  22  24
ENDBRANCH   5  20
TORSDOF 8
ENDMDL
MODEL      165
REMARK 921   NORMALIZED FREE ENERGY PREDICTED BY IDOCK:   -4.41 KCAL/MOL
REMARK 922        TOTAL FREE ENERGY PREDICTED BY IDOCK:   -7.87 KCAL/MOL
REMARK 923 INTER-LIGAND FREE ENERGY PREDICTED BY IDOCK:   -5.50 KCAL/MOL
REMARK 924 INTRA-LIGAND FREE ENERGY PREDICTED BY IDOCK:   -2.37 KCAL/MOL
REMARK 927      BINDING AFFINITY PREDICTED BY RF-SCORE:    0.00 PKD
ROOT
HETATM    1  C   UNL     1      -7.810   9.217  69.369  1.00  0.00    -0.083 C  
HETATM    2  S   UNL     1      -9.392  10.011  69.270  1.00  0.00    -0.224 SA 
HETATM    3  C   UNL     1     -10.567   8.646  69.493  1.00  0.00    -0.213 C  
HETATM    4  C   UNL     1     -10.046   7.268  69.784  1.00  0.00    -0.196 C  
HETATM    5  CA  UNL     1      -6.621   9.124  68.299  1.00  0.00    -0.059 C  
HETATM    6  CA  UNL     1      -8.750   6.900  69.798  1.00  0.00    -0.141 C  
HETATM    7  C   UNL     1      -6.523   7.686  68.881  1.00  0.00    -0.044 C  
HETATM    8  C   UNL     1      -8.373   5.501  70.191  1.00  0.00    -0.116 C  
HETATM    9  N   UNL     1      -7.764   7.783  69.400  1.00  0.00    -0.104 N  
HETATM   10  OXT UNL     1      -8.971   4.908  71.077  1.00  0.00    -0.128 OA 
HETATM   11  O   UNL     1      -5.795   6.748  68.747  1.00  0.00    -0.017 OA 
HETATM   12  O   UNL     1      -7.335   4.933  69.558  1.00  0.00    -0.055 OA 
ENDROOT
BRANCH   4  13
HETATM   13  C   UNL     1     -11.187   6.257  69.924  1.00  0.00    -0.429 C  
BRANCH  13  14
HETATM   14  O   UNL     1     -12.219   6.711  70.821  1.00  0.00    -0.378 OA 
BRANCH  14  15
HETATM   15  C   UNL     1     -11.984   6.579  72.141  1.00  0.00    -0.290 C  
HETATM   16  O   UNL     1     -11.735   5.544  72.739  1.00  0.00    -0.297 OA 
HETATM   17  N   UNL     1     -12.112   7.777  72.759  1.00  0.00    -0.602 N  
HETATM   18  H2  UNL     1     -12.352   8.652  72.292  1.00  0.00     0.000 HD 
HETATM   19  H1  UNL     1     -11.934   7.677  73.758  1.00  0.00     0.000 HD 
ENDBRANCH  14  15
ENDBRANCH  13  14
ENDBRANCH   4  13
BRANCH   5  20
HETATM   20  N   UNL     1      -6.545   9.078  66.785  1.00  0.00    -0.064 N  
HETATM   21  H   UNL     1      -5.730   9.577  66.429  1.00  0.00     0.000 HD 
HETATM   22  C   UNL     1      -7.317   8.520  65.749  1.00  0.00    -0.080 C  
HETATM   23  O   UNL     1      -6.899   8.613  64.605  1.00  0.00    -0.072 OA 
BRANCH  22  24
HETATM   24  C   UNL     1      -8.724   7.988  65.966  1.00  0.00    -0.157 C  
BRANCH  24  25
HETATM   25  C   UNL     1      -8.951   6.549  66.043  1.00  0.00    -0.122 A  
HETATM   26  O   UNL     1     -10.148   6.024  66.452  1.00  0.00    -0.157 OA 
HETATM   27  C   UNL     1      -8.010   5.526  66.006  1.00  0.00    -0.106 A  
HETATM   28  C   UNL     1      -9.924   4.719  66.779  1.00  0.00    -0.228 A  
HETATM   29  C   UNL     1      -8.619   4.368  66.533  1.00  0.00    -0.112 A  
ENDBRANCH  24  25
BRANCH  24  30
HETATM   30  N   UNL     1      -9.827   8.672  65.903  1.00  0.00    -0.464 NA 
HETATM   31  H   UNL     1     -10.607   8.357  66.479  1.00  0.00     0.000 HD 
BRANCH  30  32
HETATM   32  O   UNL     1     -10.032   9.802  65.114  1.00  0.00    -0.309 OA 
HETATM   33  C   UNL     1     -10.043  11.094  65.676  1.00  0.00    -0.253 C  
ENDBRANCH  30  32
ENDBRANCH  24  30
ENDBRANCH  22  24
ENDBRANCH   5  20
TORSDOF 8
ENDMDL
MODEL      166
REMARK 921   NORMALIZED FREE ENERGY PREDICTED BY IDOCK:   -4.39 KCAL/MOL
REMARK 922        TOTAL FREE ENERGY PREDICTED BY IDOCK:   -7.84 KCAL/MOL
REMARK 923 INTER-LIGAND FREE ENERGY PREDICTED BY IDOCK:   -6.35 KCAL/MOL
REMARK 924 INTRA-LIGAND FREE ENERGY PREDICTED BY IDOCK:   -1.50 KCAL/MOL
REMARK 927      BINDING AFFINITY PREDICTED BY RF-SCORE:    0.00 PKD
ROOT
HETATM    1  C   UNL     1     -10.466   9.094  68.128  1.00  0.00    -0.211 C  
HETATM    2  S   UNL     1      -9.422  10.130  67.138  1.00  0.00    -0.162 SA 
HETATM    3  C   UNL     1      -8.541   8.954  66.073  1.00  0.00    -0.145 C  
HETATM    4  C   UNL     1      -8.888   7.494  66.148  1.00  0.00    -0.185 C  
HETATM    5  CA  UNL     1     -10.531   8.891  69.715  1.00  0.00    -0.212 C  
HETATM    6  CA  UNL     1      -9.740   6.928  67.024  1.00  0.00    -0.163 C  
HETATM    7  C   UNL     1     -10.776   7.419  69.283  1.00  0.00    -0.185 C  
HETATM    8  C   UNL     1     -10.055   5.463  66.924  1.00  0.00    -0.209 C  
HETATM    9  N   UNL     1     -10.290   7.672  68.051  1.00  0.00    -0.201 N  
HETATM   10  OXT UNL     1     -10.162   4.911  65.839  1.00  0.00    -0.221 OA 
HETATM   11  O   UNL     1     -11.039   6.390  69.832  1.00  0.00    -0.309 OA 
HETATM   12  O   UNL     1     -10.242   4.786  68.066  1.00  0.00    -0.092 OA 
ENDROOT
BRANCH   4  13
HETATM   13  C   UNL     1      -8.029   6.666  65.188  1.00  0.00    -0.124 C  
BRANCH  13  14
HETATM   14  O   UNL     1      -6.701   6.434  65.697  1.00  0.00    -0.046 OA 
BRANCH  14  15
HETATM   15  C   UNL     1      -6.524   5.347  66.473  1.00  0.00    -0.044 C  
HETATM   16  O   UNL     1      -5.969   5.306  67.560  1.00  0.00    -0.024 OA 
HETATM   17  N   UNL     1      -7.013   4.248  65.850  1.00  0.00    -0.064 N  
HETATM   18  H2  UNL     1      -7.451   4.244  64.929  1.00  0.00     0.000 HD 
HETATM   19  H1  UNL     1      -6.879   3.425  66.437  1.00  0.00     0.000 HD 
ENDBRANCH  14  15
ENDBRANCH  13  14
ENDBRANCH   4  13
BRANCH   5  20
HETATM   20  N   UNL     1      -9.517   8.940  70.843  1.00  0.00    -0.214 N  
HETATM   21  H   UNL     1      -8.634   9.354  70.544  1.00  0.00     0.000 HD 
HETATM   22  C   UNL     1      -9.491   8.558  72.197  1.00  0.00    -0.305 C  
HETATM   23  O   UNL     1      -8.497   8.832  72.853  1.00  0.00    -0.409 OA 
BRANCH  22  24
HETATM   24  C   UNL     1     -10.545   7.659  72.820  1.00  0.00    -0.325 C  
BRANCH  24  25
HETATM   25  C   UNL     1     -10.265   6.241  73.015  1.00  0.00    -0.197 A  
HETATM   26  O   UNL     1      -9.062   5.684  72.670  1.00  0.00    -0.132 OA 
HETATM   27  C   UNL     1     -11.164   5.215  73.287  1.00  0.00    -0.389 A  
HETATM   28  C   UNL     1      -9.245   4.334  72.612  1.00  0.00    -0.114 A  
HETATM   29  C   UNL     1     -10.527   3.996  72.971  1.00  0.00    -0.250 A  
ENDBRANCH  24  25
BRANCH  24  30
HETATM   30  N   UNL     1     -11.789   7.965  73.041  1.00  0.00    -0.633 NA 
HETATM   31  H   UNL     1     -12.106   7.964  74.010  1.00  0.00     0.000 HD 
BRANCH  30  32
HETATM   32  O   UNL     1     -12.725   8.294  72.063  1.00  0.00    -0.321 OA 
HETATM   33  C   UNL     1     -13.618   9.369  72.238  1.00  0.00    -0.462 C  
ENDBRANCH  30  32
ENDBRANCH  24  30
ENDBRANCH  22  24
ENDBRANCH   5  20
TORSDOF 8
ENDMDL
MODEL      167
REMARK 921   NORMALIZED FREE ENERGY PREDICTED BY IDOCK:   -4.38 KCAL/MOL
REMARK 922        TOTAL FREE ENERGY PREDICTED BY IDOCK:   -7.82 KCAL/MOL
REMARK 923 INTER-LIGAND FREE ENERGY PREDICTED BY IDOCK:   -6.94 KCAL/MOL
REMARK 924 INTRA-LIGAND FREE ENERGY PREDICTED BY IDOCK:   -0.88 KCAL/MOL
REMARK 927      BINDING AFFINITY PREDICTED BY RF-SCORE:    0.00 PKD
ROOT
HETATM    1  C   UNL     1     -10.730  15.651  69.454  1.00  0.00    -0.252 C  
HETATM    2  S   UNL     1     -11.928  14.489  68.855  1.00  0.00    -0.255 SA 
HETATM    3  C   UNL     1     -10.916  13.166  68.135  1.00  0.00    -0.251 C  
HETATM    4  C   UNL     1      -9.420  13.241  68.251  1.00  0.00    -0.209 C  
HETATM    5  CA  UNL     1     -10.484  17.186  69.072  1.00  0.00    -0.321 C  
HETATM    6  CA  UNL     1      -8.718  14.270  68.760  1.00  0.00    -0.096 C  
HETATM    7  C   UNL     1      -9.002  16.745  69.222  1.00  0.00    -0.008 C  
HETATM    8  C   UNL     1      -7.225  14.167  68.891  1.00  0.00    -0.118 C  
HETATM    9  N   UNL     1      -9.350  15.447  69.116  1.00  0.00    -0.230 N  
HETATM   10  OXT UNL     1      -6.687  13.116  69.204  1.00  0.00    -0.105 OA 
HETATM   11  O   UNL     1      -7.934  17.281  69.192  1.00  0.00    -0.166 OA 
HETATM   12  O   UNL     1      -6.502  15.278  68.679  1.00  0.00    -0.091 OA 
ENDROOT
BRANCH   4  13
HETATM   13  C   UNL     1      -8.747  12.045  67.572  1.00  0.00    -0.166 C  
BRANCH  13  14
HETATM   14  O   UNL     1      -9.317  10.786  67.981  1.00  0.00    -0.144 OA 
BRANCH  14  15
HETATM   15  C   UNL     1      -8.841  10.239  69.117  1.00  0.00    -0.176 C  
HETATM   16  O   UNL     1      -7.698   9.860  69.321  1.00  0.00    -0.089 OA 
HETATM   17  N   UNL     1      -9.837  10.111  70.024  1.00  0.00    -0.404 N  
HETATM   18  H2  UNL     1     -10.807  10.387  69.870  1.00  0.00     0.000 HD 
HETATM   19  H1  UNL     1      -9.476   9.697  70.884  1.00  0.00     0.000 HD 
ENDBRANCH  14  15
ENDBRANCH  13  14
ENDBRANCH   4  13
BRANCH   5  20
HETATM   20  N   UNL     1     -10.655  18.017  67.814  1.00  0.00    -0.411 N  
HETATM   21  H   UNL     1     -11.501  18.585  67.843  1.00  0.00     0.000 HD 
HETATM   22  C   UNL     1      -9.937  18.199  66.617  1.00  0.00    -0.362 C  
HETATM   23  O   UNL     1     -10.339  19.040  65.827  1.00  0.00    -0.526 OA 
BRANCH  22  24
HETATM   24  C   UNL     1      -8.815  17.272  66.180  1.00  0.00    -0.160 C  
BRANCH  24  25
HETATM   25  C   UNL     1      -7.471  17.803  65.985  1.00  0.00    -0.249 A  
HETATM   26  O   UNL     1      -7.222  18.864  65.155  1.00  0.00    -0.418 OA 
HETATM   27  C   UNL     1      -6.257  17.221  66.332  1.00  0.00    -0.246 A  
HETATM   28  C   UNL     1      -5.883  18.867  64.895  1.00  0.00    -0.281 A  
HETATM   29  C   UNL     1      -5.247  17.866  65.587  1.00  0.00    -0.201 A  
ENDBRANCH  24  25
BRANCH  24  30
HETATM   30  N   UNL     1      -8.943  16.049  65.759  1.00  0.00    -0.344 NA 
HETATM   31  H   UNL     1      -8.094  15.559  65.481  1.00  0.00     0.000 HD 
BRANCH  30  32
HETATM   32  O   UNL     1     -10.145  15.353  65.656  1.00  0.00    -0.324 OA 
HETATM   33  C   UNL     1     -10.291  14.274  64.762  1.00  0.00    -0.343 C  
ENDBRANCH  30  32
ENDBRANCH  24  30
ENDBRANCH  22  24
ENDBRANCH   5  20
TORSDOF 8
ENDMDL
MODEL      168
REMARK 921   NORMALIZED FREE ENERGY PREDICTED BY IDOCK:   -4.38 KCAL/MOL
REMARK 922        TOTAL FREE ENERGY PREDICTED BY IDOCK:   -7.82 KCAL/MOL
REMARK 923 INTER-LIGAND FREE ENERGY PREDICTED BY IDOCK:   -5.95 KCAL/MOL
REMARK 924 INTRA-LIGAND FREE ENERGY PREDICTED BY IDOCK:   -1.87 KCAL/MOL
REMARK 927      BINDING AFFINITY PREDICTED BY RF-SCORE:    0.00 PKD
ROOT
HETATM    1  C   UNL     1      -9.667   9.788  68.489  1.00  0.00    -0.154 C  
HETATM    2  S   UNL     1     -10.952   9.982  69.694  1.00  0.00    -0.274 SA 
HETATM    3  C   UNL     1     -10.221   9.306  71.211  1.00  0.00    -0.313 C  
HETATM    4  C   UNL     1      -8.790   8.848  71.195  1.00  0.00    -0.297 C  
HETATM    5  CA  UNL     1      -9.639   8.965  67.116  1.00  0.00    -0.172 C  
HETATM    6  CA  UNL     1      -7.992   8.787  70.112  1.00  0.00    -0.107 C  
HETATM    7  C   UNL     1      -8.188   8.674  67.589  1.00  0.00    -0.110 C  
HETATM    8  C   UNL     1      -6.552   8.388  70.263  1.00  0.00    -0.035 C  
HETATM    9  N   UNL     1      -8.499   9.036  68.850  1.00  0.00    -0.128 N  
HETATM   10  OXT UNL     1      -5.895   8.742  71.231  1.00  0.00    -0.037 OA 
HETATM   11  O   UNL     1      -7.228   8.123  67.139  1.00  0.00    -0.081 OA 
HETATM   12  O   UNL     1      -6.002   7.653  69.285  1.00  0.00    -0.032 OA 
ENDROOT
BRANCH   4  13
HETATM   13  C   UNL     1      -8.364   8.299  72.560  1.00  0.00    -0.174 C  
BRANCH  13  14
HETATM   14  O   UNL     1      -8.543   6.873  72.660  1.00  0.00    -0.120 OA 
BRANCH  14  15
HETATM   15  C   UNL     1      -9.486   6.434  73.518  1.00  0.00    -0.144 C  
HETATM   16  O   UNL     1     -10.464   7.052  73.907  1.00  0.00    -0.375 OA 
HETATM   17  N   UNL     1      -9.175   5.190  73.953  1.00  0.00    -0.124 N  
HETATM   18  H2  UNL     1      -8.348   4.662  73.672  1.00  0.00     0.000 HD 
HETATM   19  H1  UNL     1      -9.888   4.859  74.602  1.00  0.00     0.000 HD 
ENDBRANCH  14  15
ENDBRANCH  13  14
ENDBRANCH   4  13
BRANCH   5  20
HETATM   20  N   UNL     1     -10.291   7.688  66.620  1.00  0.00    -0.485 N  
HETATM   21  H   UNL     1     -10.459   7.710  65.615  1.00  0.00     0.000 HD 
HETATM   22  C   UNL     1     -10.721   6.480  67.201  1.00  0.00    -0.368 C  
HETATM   23  O   UNL     1     -11.143   5.604  66.461  1.00  0.00    -0.194 OA 
BRANCH  22  24
HETATM   24  C   UNL     1     -10.867   6.294  68.702  1.00  0.00    -0.333 C  
BRANCH  24  25
HETATM   25  C   UNL     1      -9.849   5.559  69.443  1.00  0.00    -0.177 A  
HETATM   26  O   UNL     1      -8.513   5.695  69.172  1.00  0.00    -0.101 OA 
HETATM   27  C   UNL     1     -10.019   4.466  70.286  1.00  0.00    -0.248 A  
HETATM   28  C   UNL     1      -7.876   4.631  69.741  1.00  0.00    -0.061 A  
HETATM   29  C   UNL     1      -8.763   3.838  70.428  1.00  0.00    -0.129 A  
ENDBRANCH  24  25
BRANCH  24  30
HETATM   30  N   UNL     1     -11.922   6.557  69.414  1.00  0.00    -0.422 NA 
HETATM   31  H   UNL     1     -12.790   6.746  68.913  1.00  0.00     0.000 HD 
BRANCH  30  32
HETATM   32  O   UNL     1     -11.966   6.601  70.805  1.00  0.00    -0.382 OA 
HETATM   33  C   UNL     1     -13.084   7.124  71.485  1.00  0.00    -0.375 C  
ENDBRANCH  30  32
ENDBRANCH  24  30
ENDBRANCH  22  24
ENDBRANCH   5  20
TORSDOF 8
ENDMDL
MODEL      169
REMARK 921   NORMALIZED FREE ENERGY PREDICTED BY IDOCK:   -4.37 KCAL/MOL
REMARK 922        TOTAL FREE ENERGY PREDICTED BY IDOCK:   -7.81 KCAL/MOL
REMARK 923 INTER-LIGAND FREE ENERGY PREDICTED BY IDOCK:   -7.47 KCAL/MOL
REMARK 924 INTRA-LIGAND FREE ENERGY PREDICTED BY IDOCK:   -0.34 KCAL/MOL
REMARK 927      BINDING AFFINITY PREDICTED BY RF-SCORE:    0.00 PKD
ROOT
HETATM    1  C   UNL     1     -10.755  17.197  66.182  1.00  0.00    -0.094 C  
HETATM    2  S   UNL     1     -11.181  16.569  64.580  1.00  0.00     0.162 SA 
HETATM    3  C   UNL     1     -11.615  14.837  64.903  1.00  0.00    -0.401 C  
HETATM    4  C   UNL     1     -11.626  14.334  66.319  1.00  0.00    -0.379 C  
HETATM    5  CA  UNL     1      -9.386  17.825  66.726  1.00  0.00    -0.280 C  
HETATM    6  CA  UNL     1     -11.237  15.027  67.406  1.00  0.00    -0.335 C  
HETATM    7  C   UNL     1      -9.791  17.022  67.993  1.00  0.00    -0.275 C  
HETATM    8  C   UNL     1     -11.386  14.423  68.773  1.00  0.00    -0.273 C  
HETATM    9  N   UNL     1     -10.650  16.271  67.274  1.00  0.00    -0.311 N  
HETATM   10  OXT UNL     1     -12.352  13.731  69.058  1.00  0.00    -0.302 OA 
HETATM   11  O   UNL     1      -9.375  16.899  69.106  1.00  0.00    -0.228 OA 
HETATM   12  O   UNL     1     -10.436  14.692  69.681  1.00  0.00    -0.171 OA 
ENDROOT
BRANCH   4  13
HETATM   13  C   UNL     1     -12.001  12.851  66.383  1.00  0.00    -0.395 C  
BRANCH  13  14
HETATM   14  O   UNL     1     -11.387  12.082  65.330  1.00  0.00    -0.325 OA 
BRANCH  14  15
HETATM   15  C   UNL     1     -12.160  11.765  64.273  1.00  0.00    -0.158 C  
HETATM   16  O   UNL     1     -13.373  11.881  64.194  1.00  0.00    -0.652 OA 
HETATM   17  N   UNL     1     -11.402  11.232  63.286  1.00  0.00    -0.818 N  
HETATM   18  H2  UNL     1     -10.393  11.092  63.335  1.00  0.00     0.000 HD 
HETATM   19  H1  UNL     1     -11.988  10.992  62.486  1.00  0.00     0.000 HD 
ENDBRANCH  14  15
ENDBRANCH  13  14
ENDBRANCH   4  13
BRANCH   5  20
HETATM   20  N   UNL     1      -7.915  17.611  66.423  1.00  0.00    -0.265 N  
HETATM   21  H   UNL     1      -7.542  18.335  65.809  1.00  0.00     0.000 HD 
HETATM   22  C   UNL     1      -6.936  16.664  66.777  1.00  0.00    -0.229 C  
HETATM   23  O   UNL     1      -5.789  16.853  66.403  1.00  0.00    -0.320 OA 
BRANCH  22  24
HETATM   24  C   UNL     1      -7.276  15.332  67.427  1.00  0.00    -0.204 C  
BRANCH  24  25
HETATM   25  C   UNL     1      -6.532  14.888  68.599  1.00  0.00    -0.083 A  
HETATM   26  O   UNL     1      -5.487  14.007  68.506  1.00  0.00    -0.084 OA 
HETATM   27  C   UNL     1      -6.878  15.019  69.940  1.00  0.00    -0.162 A  
HETATM   28  C   UNL     1      -5.266  13.508  69.756  1.00  0.00    -0.087 A  
HETATM   29  C   UNL     1      -6.107  14.092  70.672  1.00  0.00    -0.153 A  
ENDBRANCH  24  25
BRANCH  24  30
HETATM   30  N   UNL     1      -8.054  14.412  66.940  1.00  0.00    -0.380 NA 
HETATM   31  H   UNL     1      -8.498  14.601  66.043  1.00  0.00     0.000 HD 
BRANCH  30  32
HETATM   32  O   UNL     1      -8.330  13.187  67.544  1.00  0.00    -0.161 OA 
HETATM   33  C   UNL     1      -8.015  11.971  66.909  1.00  0.00    -0.112 C  
ENDBRANCH  30  32
ENDBRANCH  24  30
ENDBRANCH  22  24
ENDBRANCH   5  20
TORSDOF 8
ENDMDL
MODEL      170
REMARK 921   NORMALIZED FREE ENERGY PREDICTED BY IDOCK:   -4.35 KCAL/MOL
REMARK 922        TOTAL FREE ENERGY PREDICTED BY IDOCK:   -7.77 KCAL/MOL
REMARK 923 INTER-LIGAND FREE ENERGY PREDICTED BY IDOCK:   -6.23 KCAL/MOL
REMARK 924 INTRA-LIGAND FREE ENERGY PREDICTED BY IDOCK:   -1.54 KCAL/MOL
REMARK 927      BINDING AFFINITY PREDICTED BY RF-SCORE:    0.00 PKD
ROOT
HETATM    1  C   UNL     1      -7.260   7.735  69.705  1.00  0.00    -0.067 C  
HETATM    2  S   UNL     1      -7.343   9.476  70.028  1.00  0.00    -0.134 SA 
HETATM    3  C   UNL     1      -9.000   9.701  70.732  1.00  0.00     0.063 C  
HETATM    4  C   UNL     1      -9.864   8.497  70.975  1.00  0.00    -0.245 C  
HETATM    5  CA  UNL     1      -7.041   6.937  68.334  1.00  0.00    -0.086 C  
HETATM    6  CA  UNL     1      -9.572   7.231  70.621  1.00  0.00    -0.172 C  
HETATM    7  C   UNL     1      -8.084   5.990  68.989  1.00  0.00    -0.107 C  
HETATM    8  C   UNL     1     -10.497   6.112  71.008  1.00  0.00    -0.229 C  
HETATM    9  N   UNL     1      -8.455   6.954  69.856  1.00  0.00    -0.139 N  
HETATM   10  OXT UNL     1     -11.070   6.109  72.087  1.00  0.00    -0.247 OA 
HETATM   11  O   UNL     1      -8.577   4.934  68.725  1.00  0.00    -0.089 OA 
HETATM   12  O   UNL     1     -10.649   5.100  70.141  1.00  0.00    -0.272 OA 
ENDROOT
BRANCH   4  13
HETATM   13  C   UNL     1     -11.224   8.893  71.557  1.00  0.00    -0.326 C  
BRANCH  13  14
HETATM   14  O   UNL     1     -11.731  10.116  70.989  1.00  0.00    -0.337 OA 
BRANCH  14  15
HETATM   15  C   UNL     1     -13.006  10.441  71.276  1.00  0.00    -0.419 C  
HETATM   16  O   UNL     1     -13.388  11.404  71.923  1.00  0.00    -0.435 OA 
HETATM   17  N   UNL     1     -13.847   9.503  70.781  1.00  0.00    -0.482 N  
HETATM   18  H2  UNL     1     -13.557   8.671  70.266  1.00  0.00     0.000 HD 
HETATM   19  H1  UNL     1     -14.813   9.749  70.998  1.00  0.00     0.000 HD 
ENDBRANCH  14  15
ENDBRANCH  13  14
ENDBRANCH   4  13
BRANCH   5  20
HETATM   20  N   UNL     1      -7.404   7.185  66.882  1.00  0.00    -0.086 N  
HETATM   21  H   UNL     1      -6.590   7.130  66.270  1.00  0.00     0.000 HD 
HETATM   22  C   UNL     1      -8.583   7.472  66.168  1.00  0.00    -0.149 C  
HETATM   23  O   UNL     1      -8.518   7.530  64.950  1.00  0.00    -0.082 OA 
BRANCH  22  24
HETATM   24  C   UNL     1      -9.873   7.901  66.847  1.00  0.00    -0.239 C  
BRANCH  24  25
HETATM   25  C   UNL     1     -10.069   9.299  67.213  1.00  0.00    -0.231 A  
HETATM   26  O   UNL     1     -11.168   9.718  67.916  1.00  0.00    -0.184 OA 
HETATM   27  C   UNL     1      -9.406  10.418  66.723  1.00  0.00    -0.181 A  
HETATM   28  C   UNL     1     -11.252  11.071  67.764  1.00  0.00    -0.308 A  
HETATM   29  C   UNL     1     -10.196  11.548  67.026  1.00  0.00    -0.244 A  
ENDBRANCH  24  25
BRANCH  24  30
HETATM   30  N   UNL     1     -10.788   7.116  67.333  1.00  0.00    -0.473 NA 
HETATM   31  H   UNL     1     -11.138   7.328  68.267  1.00  0.00     0.000 HD 
BRANCH  30  32
HETATM   32  O   UNL     1     -11.330   6.009  66.684  1.00  0.00    -0.106 OA 
HETATM   33  C   UNL     1     -10.558   4.859  66.432  1.00  0.00    -0.223 C  
ENDBRANCH  30  32
ENDBRANCH  24  30
ENDBRANCH  22  24
ENDBRANCH   5  20
TORSDOF 8
ENDMDL
MODEL      171
REMARK 921   NORMALIZED FREE ENERGY PREDICTED BY IDOCK:   -4.35 KCAL/MOL
REMARK 922        TOTAL FREE ENERGY PREDICTED BY IDOCK:   -7.77 KCAL/MOL
REMARK 923 INTER-LIGAND FREE ENERGY PREDICTED BY IDOCK:   -6.15 KCAL/MOL
REMARK 924 INTRA-LIGAND FREE ENERGY PREDICTED BY IDOCK:   -1.62 KCAL/MOL
REMARK 927      BINDING AFFINITY PREDICTED BY RF-SCORE:    0.00 PKD
ROOT
HETATM    1  C   UNL     1     -10.029  12.365  67.936  1.00  0.00    -0.204 C  
HETATM    2  S   UNL     1     -11.684  11.891  68.360  1.00  0.00    -0.304 SA 
HETATM    3  C   UNL     1     -11.454  10.420  69.396  1.00  0.00    -0.227 C  
HETATM    4  C   UNL     1     -10.061   9.978  69.745  1.00  0.00    -0.284 C  
HETATM    5  CA  UNL     1      -9.315  12.496  66.508  1.00  0.00    -0.233 C  
HETATM    6  CA  UNL     1      -8.920  10.515  69.273  1.00  0.00    -0.134 C  
HETATM    7  C   UNL     1      -8.122  11.904  67.310  1.00  0.00    -0.171 C  
HETATM    8  C   UNL     1      -7.594  10.024  69.780  1.00  0.00    -0.164 C  
HETATM    9  N   UNL     1      -8.953  11.480  68.284  1.00  0.00    -0.172 N  
HETATM   10  OXT UNL     1      -7.440   9.712  70.950  1.00  0.00    -0.302 OA 
HETATM   11  O   UNL     1      -6.971  11.666  67.096  1.00  0.00    -0.123 OA 
HETATM   12  O   UNL     1      -6.575   9.968  68.909  1.00  0.00    -0.048 OA 
ENDROOT
BRANCH   4  13
HETATM   13  C   UNL     1     -10.075   8.715  70.611  1.00  0.00    -0.198 C  
BRANCH  13  14
HETATM   14  O   UNL     1     -11.345   8.035  70.571  1.00  0.00    -0.269 OA 
BRANCH  14  15
HETATM   15  C   UNL     1     -11.386   6.786  71.075  1.00  0.00    -0.309 C  
HETATM   16  O   UNL     1     -12.196   6.347  71.876  1.00  0.00    -0.346 OA 
HETATM   17  N   UNL     1     -10.344   6.060  70.603  1.00  0.00    -0.211 N  
HETATM   18  H2  UNL     1      -9.633   6.408  69.960  1.00  0.00     0.000 HD 
HETATM   19  H1  UNL     1     -10.375   5.115  70.985  1.00  0.00     0.000 HD 
ENDBRANCH  14  15
ENDBRANCH  13  14
ENDBRANCH   4  13
BRANCH   5  20
HETATM   20  N   UNL     1      -9.448  11.785  65.175  1.00  0.00    -0.407 N  
HETATM   21  H   UNL     1      -9.680  12.430  64.420  1.00  0.00     0.000 HD 
HETATM   22  C   UNL     1      -9.333  10.458  64.720  1.00  0.00    -0.251 C  
HETATM   23  O   UNL     1      -9.429  10.250  63.520  1.00  0.00    -0.276 OA 
BRANCH  22  24
HETATM   24  C   UNL     1      -9.293   9.265  65.660  1.00  0.00    -0.244 C  
BRANCH  24  25
HETATM   25  C   UNL     1      -8.202   8.302  65.563  1.00  0.00    -0.138 A  
HETATM   26  O   UNL     1      -7.027   8.463  66.249  1.00  0.00    -0.071 OA 
HETATM   27  C   UNL     1      -8.031   7.287  64.629  1.00  0.00    -0.115 A  
HETATM   28  C   UNL     1      -6.105   7.643  65.668  1.00  0.00    -0.038 A  
HETATM   29  C   UNL     1      -6.672   6.907  64.656  1.00  0.00    -0.043 A  
ENDBRANCH  24  25
BRANCH  24  30
HETATM   30  N   UNL     1     -10.246   8.874  66.453  1.00  0.00    -0.297 NA 
HETATM   31  H   UNL     1     -11.090   9.444  66.486  1.00  0.00     0.000 HD 
BRANCH  30  32
HETATM   32  O   UNL     1     -10.209   7.740  67.261  1.00  0.00    -0.217 OA 
HETATM   33  C   UNL     1     -11.149   6.703  67.109  1.00  0.00    -0.357 C  
ENDBRANCH  30  32
ENDBRANCH  24  30
ENDBRANCH  22  24
ENDBRANCH   5  20
TORSDOF 8
ENDMDL
MODEL      172
REMARK 921   NORMALIZED FREE ENERGY PREDICTED BY IDOCK:   -4.34 KCAL/MOL
REMARK 922        TOTAL FREE ENERGY PREDICTED BY IDOCK:   -7.77 KCAL/MOL
REMARK 923 INTER-LIGAND FREE ENERGY PREDICTED BY IDOCK:   -5.47 KCAL/MOL
REMARK 924 INTRA-LIGAND FREE ENERGY PREDICTED BY IDOCK:   -2.30 KCAL/MOL
REMARK 927      BINDING AFFINITY PREDICTED BY RF-SCORE:    0.00 PKD
ROOT
HETATM    1  C   UNL     1      -7.450  10.537  69.493  1.00  0.00    -0.146 C  
HETATM    2  S   UNL     1      -6.616  10.850  67.961  1.00  0.00    -0.063 SA 
HETATM    3  C   UNL     1      -7.960  10.886  66.743  1.00  0.00    -0.143 C  
HETATM    4  C   UNL     1      -9.381  10.756  67.214  1.00  0.00    -0.165 C  
HETATM    5  CA  UNL     1      -7.304   9.328  70.534  1.00  0.00    -0.116 C  
HETATM    6  CA  UNL     1      -9.775  10.505  68.477  1.00  0.00    -0.165 C  
HETATM    7  C   UNL     1      -8.843   9.519  70.616  1.00  0.00    -0.148 C  
HETATM    8  C   UNL     1     -11.238  10.488  68.816  1.00  0.00    -0.262 C  
HETATM    9  N   UNL     1      -8.847  10.208  69.457  1.00  0.00    -0.193 N  
HETATM   10  OXT UNL     1     -12.018  11.272  68.297  1.00  0.00    -0.582 OA 
HETATM   11  O   UNL     1      -9.736   9.062  71.266  1.00  0.00    -0.262 OA 
HETATM   12  O   UNL     1     -11.656   9.600  69.732  1.00  0.00    -0.126 OA 
ENDROOT
BRANCH   4  13
HETATM   13  C   UNL     1     -10.364  10.795  66.040  1.00  0.00    -0.238 C  
BRANCH  13  14
HETATM   14  O   UNL     1     -10.092  11.878  65.129  1.00  0.00    -0.250 OA 
BRANCH  14  15
HETATM   15  C   UNL     1     -10.804  13.010  65.295  1.00  0.00    -0.291 C  
HETATM   16  O   UNL     1     -10.392  14.154  65.191  1.00  0.00    -0.364 OA 
HETATM   17  N   UNL     1     -12.075  12.711  65.655  1.00  0.00    -0.452 N  
HETATM   18  H2  UNL     1     -12.439  11.766  65.782  1.00  0.00     0.000 HD 
HETATM   19  H1  UNL     1     -12.614  13.567  65.780  1.00  0.00     0.000 HD 
ENDBRANCH  14  15
ENDBRANCH  13  14
ENDBRANCH   4  13
BRANCH   5  20
HETATM   20  N   UNL     1      -6.969   7.853  70.420  1.00  0.00    -0.045 N  
HETATM   21  H   UNL     1      -6.172   7.596  71.002  1.00  0.00     0.000 HD 
HETATM   22  C   UNL     1      -7.482   6.750  69.712  1.00  0.00    -0.091 C  
HETATM   23  O   UNL     1      -6.999   5.650  69.931  1.00  0.00    -0.057 OA 
BRANCH  22  24
HETATM   24  C   UNL     1      -8.462   6.895  68.559  1.00  0.00    -0.123 C  
BRANCH  24  25
HETATM   25  C   UNL     1      -7.963   7.015  67.194  1.00  0.00    -0.113 A  
HETATM   26  O   UNL     1      -6.632   7.190  66.920  1.00  0.00    -0.052 OA 
HETATM   27  C   UNL     1      -8.687   7.247  66.030  1.00  0.00    -0.168 A  
HETATM   28  C   UNL     1      -6.541   7.642  65.636  1.00  0.00    -0.045 A  
HETATM   29  C   UNL     1      -7.781   7.706  65.050  1.00  0.00    -0.109 A  
ENDBRANCH  24  25
BRANCH  24  30
HETATM   30  N   UNL     1      -9.738   7.123  68.654  1.00  0.00    -0.140 NA 
HETATM   31  H   UNL     1     -10.057   8.076  68.486  1.00  0.00     0.000 HD 
BRANCH  30  32
HETATM   32  O   UNL     1     -10.706   6.172  68.968  1.00  0.00    -0.243 OA 
HETATM   33  C   UNL     1     -11.011   5.852  70.305  1.00  0.00    -0.320 C  
ENDBRANCH  30  32
ENDBRANCH  24  30
ENDBRANCH  22  24
ENDBRANCH   5  20
TORSDOF 8
ENDMDL
MODEL      173
REMARK 921   NORMALIZED FREE ENERGY PREDICTED BY IDOCK:   -4.34 KCAL/MOL
REMARK 922        TOTAL FREE ENERGY PREDICTED BY IDOCK:   -7.77 KCAL/MOL
REMARK 923 INTER-LIGAND FREE ENERGY PREDICTED BY IDOCK:   -6.84 KCAL/MOL
REMARK 924 INTRA-LIGAND FREE ENERGY PREDICTED BY IDOCK:   -0.93 KCAL/MOL
REMARK 927      BINDING AFFINITY PREDICTED BY RF-SCORE:    0.00 PKD
ROOT
HETATM    1  C   UNL     1      -9.379  10.235  68.360  1.00  0.00    -0.143 C  
HETATM    2  S   UNL     1      -9.086   9.920  66.640  1.00  0.00    -0.150 SA 
HETATM    3  C   UNL     1     -10.216  11.064  65.799  1.00  0.00    -0.260 C  
HETATM    4  C   UNL     1     -11.029  12.027  66.617  1.00  0.00    -0.330 C  
HETATM    5  CA  UNL     1      -9.895   9.265  69.525  1.00  0.00    -0.181 C  
HETATM    6  CA  UNL     1     -11.089  12.067  67.961  1.00  0.00    -0.241 C  
HETATM    7  C   UNL     1     -10.651  10.556  69.947  1.00  0.00    -0.211 C  
HETATM    8  C   UNL     1     -11.881  13.145  68.645  1.00  0.00    -0.328 C  
HETATM    9  N   UNL     1     -10.472  11.092  68.722  1.00  0.00    -0.190 N  
HETATM   10  OXT UNL     1     -11.913  14.284  68.204  1.00  0.00    -0.339 OA 
HETATM   11  O   UNL     1     -11.341  10.892  70.863  1.00  0.00    -0.102 OA 
HETATM   12  O   UNL     1     -12.531  12.821  69.773  1.00  0.00    -0.076 OA 
ENDROOT
BRANCH   4  13
HETATM   13  C   UNL     1     -11.927  12.894  65.729  1.00  0.00    -0.443 C  
BRANCH  13  14
HETATM   14  O   UNL     1     -11.207  13.494  64.635  1.00  0.00    -0.334 OA 
BRANCH  14  15
HETATM   15  C   UNL     1     -11.077  14.835  64.650  1.00  0.00    -0.325 C  
HETATM   16  O   UNL     1     -10.177  15.476  65.169  1.00  0.00    -0.359 OA 
HETATM   17  N   UNL     1     -12.139  15.411  64.039  1.00  0.00    -0.939 N  
HETATM   18  H2  UNL     1     -12.922  14.904  63.626  1.00  0.00     0.000 HD 
HETATM   19  H1  UNL     1     -12.041  16.426  64.051  1.00  0.00     0.000 HD 
ENDBRANCH  14  15
ENDBRANCH  13  14
ENDBRANCH   4  13
BRANCH   5  20
HETATM   20  N   UNL     1     -10.828   8.071  69.590  1.00  0.00    -0.375 N  
HETATM   21  H   UNL     1     -11.808   8.353  69.594  1.00  0.00     0.000 HD 
HETATM   22  C   UNL     1     -10.681   6.673  69.644  1.00  0.00    -0.260 C  
HETATM   23  O   UNL     1     -11.689   5.985  69.602  1.00  0.00    -0.196 OA 
BRANCH  22  24
HETATM   24  C   UNL     1      -9.354   5.996  69.948  1.00  0.00    -0.148 C  
BRANCH  24  25
HETATM   25  C   UNL     1      -8.423   5.708  68.863  1.00  0.00    -0.102 A  
HETATM   26  O   UNL     1      -8.547   4.593  68.076  1.00  0.00    -0.101 OA 
HETATM   27  C   UNL     1      -7.182   6.284  68.618  1.00  0.00    -0.085 A  
HETATM   28  C   UNL     1      -7.354   4.412  67.442  1.00  0.00    -0.069 A  
HETATM   29  C   UNL     1      -6.475   5.421  67.753  1.00  0.00    -0.048 A  
ENDBRANCH  24  25
BRANCH  24  30
HETATM   30  N   UNL     1      -9.006   5.449  71.074  1.00  0.00    -0.138 NA 
HETATM   31  H   UNL     1      -8.561   4.533  71.031  1.00  0.00     0.000 HD 
BRANCH  30  32
HETATM   32  O   UNL     1      -9.191   6.010  72.335  1.00  0.00    -0.143 OA 
HETATM   33  C   UNL     1     -10.443   5.969  72.978  1.00  0.00    -0.224 C  
ENDBRANCH  30  32
ENDBRANCH  24  30
ENDBRANCH  22  24
ENDBRANCH   5  20
TORSDOF 8
ENDMDL
MODEL      174
REMARK 921   NORMALIZED FREE ENERGY PREDICTED BY IDOCK:   -4.34 KCAL/MOL
REMARK 922        TOTAL FREE ENERGY PREDICTED BY IDOCK:   -7.77 KCAL/MOL
REMARK 923 INTER-LIGAND FREE ENERGY PREDICTED BY IDOCK:   -6.53 KCAL/MOL
REMARK 924 INTRA-LIGAND FREE ENERGY PREDICTED BY IDOCK:   -1.24 KCAL/MOL
REMARK 927      BINDING AFFINITY PREDICTED BY RF-SCORE:    0.00 PKD
ROOT
HETATM    1  C   UNL     1     -11.302  10.733  67.655  1.00  0.00    -0.252 C  
HETATM    2  S   UNL     1     -11.224  11.580  69.210  1.00  0.00    -0.274 SA 
HETATM    3  C   UNL     1     -10.652  13.243  68.763  1.00  0.00    -0.201 C  
HETATM    4  C   UNL     1     -10.464  13.589  67.313  1.00  0.00    -0.248 C  
HETATM    5  CA  UNL     1     -10.535   9.425  67.139  1.00  0.00    -0.244 C  
HETATM    6  CA  UNL     1     -10.580  12.737  66.276  1.00  0.00    -0.257 C  
HETATM    7  C   UNL     1     -10.502  10.247  65.821  1.00  0.00    -0.089 C  
HETATM    8  C   UNL     1     -10.448  13.247  64.869  1.00  0.00    -0.371 C  
HETATM    9  N   UNL     1     -10.766  11.385  66.493  1.00  0.00    -0.267 N  
HETATM   10  OXT UNL     1     -10.889  14.340  64.547  1.00  0.00    -0.381 OA 
HETATM   11  O   UNL     1     -10.149  10.059  64.695  1.00  0.00    -0.271 OA 
HETATM   12  O   UNL     1      -9.854  12.449  63.970  1.00  0.00    -0.254 OA 
ENDROOT
BRANCH   4  13
HETATM   13  C   UNL     1      -9.966  15.027  67.142  1.00  0.00    -0.237 C  
BRANCH  13  14
HETATM   14  O   UNL     1     -10.985  16.002  67.437  1.00  0.00    -0.315 OA 
BRANCH  14  15
HETATM   15  C   UNL     1     -10.771  17.260  67.006  1.00  0.00    -0.152 C  
HETATM   16  O   UNL     1     -10.746  18.272  67.688  1.00  0.00    -0.419 OA 
HETATM   17  N   UNL     1     -10.633  17.272  65.659  1.00  0.00    -0.264 N  
HETATM   18  H2  UNL     1     -10.682  16.448  65.059  1.00  0.00     0.000 HD 
HETATM   19  H1  UNL     1     -10.471  18.225  65.332  1.00  0.00     0.000 HD 
ENDBRANCH  14  15
ENDBRANCH  13  14
ENDBRANCH   4  13
BRANCH   5  20
HETATM   20  N   UNL     1      -9.174   8.808  67.402  1.00  0.00    -0.135 N  
HETATM   21  H   UNL     1      -9.026   7.962  66.852  1.00  0.00     0.000 HD 
HETATM   22  C   UNL     1      -8.066   9.111  68.214  1.00  0.00    -0.104 C  
HETATM   23  O   UNL     1      -7.067   8.416  68.109  1.00  0.00    -0.081 OA 
BRANCH  22  24
HETATM   24  C   UNL     1      -8.124  10.129  69.341  1.00  0.00    -0.160 C  
BRANCH  24  25
HETATM   25  C   UNL     1      -7.244  11.292  69.314  1.00  0.00    -0.094 A  
HETATM   26  O   UNL     1      -6.360  11.558  70.326  1.00  0.00    -0.190 OA 
HETATM   27  C   UNL     1      -7.319  12.409  68.490  1.00  0.00    -0.105 A  
HETATM   28  C   UNL     1      -5.983  12.862  70.200  1.00  0.00    -0.136 A  
HETATM   29  C   UNL     1      -6.558  13.434  69.091  1.00  0.00    -0.106 A  
ENDBRANCH  24  25
BRANCH  24  30
HETATM   30  N   UNL     1      -8.754   9.996  70.470  1.00  0.00    -0.338 NA 
HETATM   31  H   UNL     1      -9.533  10.628  70.648  1.00  0.00     0.000 HD 
BRANCH  30  32
HETATM   32  O   UNL     1      -8.451   9.061  71.457  1.00  0.00    -0.308 OA 
HETATM   33  C   UNL     1      -9.437   8.592  72.347  1.00  0.00    -0.280 C  
ENDBRANCH  30  32
ENDBRANCH  24  30
ENDBRANCH  22  24
ENDBRANCH   5  20
TORSDOF 8
ENDMDL
MODEL      175
REMARK 921   NORMALIZED FREE ENERGY PREDICTED BY IDOCK:   -4.34 KCAL/MOL
REMARK 922        TOTAL FREE ENERGY PREDICTED BY IDOCK:   -7.76 KCAL/MOL
REMARK 923 INTER-LIGAND FREE ENERGY PREDICTED BY IDOCK:   -6.48 KCAL/MOL
REMARK 924 INTRA-LIGAND FREE ENERGY PREDICTED BY IDOCK:   -1.28 KCAL/MOL
REMARK 927      BINDING AFFINITY PREDICTED BY RF-SCORE:    0.00 PKD
ROOT
HETATM    1  C   UNL     1     -10.401  10.276  66.088  1.00  0.00    -0.183 C  
HETATM    2  S   UNL     1     -10.173  10.410  67.841  1.00  0.00    -0.190 SA 
HETATM    3  C   UNL     1     -10.818  12.061  68.230  1.00  0.00    -0.229 C  
HETATM    4  C   UNL     1     -11.443  12.880  67.137  1.00  0.00    -0.388 C  
HETATM    5  CA  UNL     1      -9.336  10.056  64.911  1.00  0.00    -0.266 C  
HETATM    6  CA  UNL     1     -11.488  12.554  65.832  1.00  0.00    -0.373 C  
HETATM    7  C   UNL     1     -10.279  11.056  64.186  1.00  0.00    -0.357 C  
HETATM    8  C   UNL     1     -12.226  13.435  64.864  1.00  0.00    -0.408 C  
HETATM    9  N   UNL     1     -10.816  11.442  65.361  1.00  0.00    -0.261 N  
HETATM   10  OXT UNL     1     -13.268  13.989  65.179  1.00  0.00    -0.768 OA 
HETATM   11  O   UNL     1     -10.366  11.518  63.088  1.00  0.00    -0.361 OA 
HETATM   12  O   UNL     1     -11.716  13.570  63.630  1.00  0.00    -0.376 OA 
ENDROOT
BRANCH   4  13
HETATM   13  C   UNL     1     -11.911  14.242  67.659  1.00  0.00    -0.385 C  
BRANCH  13  14
HETATM   14  O   UNL     1     -10.834  15.015  68.225  1.00  0.00    -0.246 OA 
BRANCH  14  15
HETATM   15  C   UNL     1     -10.162  15.831  67.390  1.00  0.00    -0.270 C  
HETATM   16  O   UNL     1     -10.616  16.419  66.420  1.00  0.00    -0.301 OA 
HETATM   17  N   UNL     1      -8.856  15.884  67.741  1.00  0.00    -0.174 N  
HETATM   18  H2  UNL     1      -8.441  15.379  68.525  1.00  0.00     0.000 HD 
HETATM   19  H1  UNL     1      -8.348  16.502  67.109  1.00  0.00     0.000 HD 
ENDBRANCH  14  15
ENDBRANCH  13  14
ENDBRANCH   4  13
BRANCH   5  20
HETATM   20  N   UNL     1      -7.888  10.452  64.690  1.00  0.00    -0.278 N  
HETATM   21  H   UNL     1      -7.806  11.296  64.124  1.00  0.00     0.000 HD 
HETATM   22  C   UNL     1      -6.631   9.946  65.070  1.00  0.00    -0.110 C  
HETATM   23  O   UNL     1      -5.637  10.590  64.771  1.00  0.00    -0.129 OA 
BRANCH  22  24
HETATM   24  C   UNL     1      -6.445   8.555  65.653  1.00  0.00    -0.056 C  
BRANCH  24  25
HETATM   25  C   UNL     1      -6.519   7.388  64.783  1.00  0.00    -0.037 A  
HETATM   26  O   UNL     1      -6.975   6.176  65.230  1.00  0.00    -0.053 OA 
HETATM   27  C   UNL     1      -5.929   7.204  63.537  1.00  0.00    -0.044 A  
HETATM   28  C   UNL     1      -6.569   5.235  64.330  1.00  0.00    -0.042 A  
HETATM   29  C   UNL     1      -5.909   5.818  63.275  1.00  0.00    -0.021 A  
ENDBRANCH  24  25
BRANCH  24  30
HETATM   30  N   UNL     1      -6.412   8.245  66.915  1.00  0.00    -0.056 NA 
HETATM   31  H   UNL     1      -5.912   7.396  67.175  1.00  0.00     0.000 HD 
BRANCH  30  32
HETATM   32  O   UNL     1      -7.002   8.978  67.942  1.00  0.00    -0.076 OA 
HETATM   33  C   UNL     1      -6.234   9.798  68.791  1.00  0.00    -0.042 C  
ENDBRANCH  30  32
ENDBRANCH  24  30
ENDBRANCH  22  24
ENDBRANCH   5  20
TORSDOF 8
ENDMDL
MODEL      176
REMARK 921   NORMALIZED FREE ENERGY PREDICTED BY IDOCK:   -4.33 KCAL/MOL
REMARK 922        TOTAL FREE ENERGY PREDICTED BY IDOCK:   -7.76 KCAL/MOL
REMARK 923 INTER-LIGAND FREE ENERGY PREDICTED BY IDOCK:   -7.24 KCAL/MOL
REMARK 924 INTRA-LIGAND FREE ENERGY PREDICTED BY IDOCK:   -0.52 KCAL/MOL
REMARK 927      BINDING AFFINITY PREDICTED BY RF-SCORE:    0.00 PKD
ROOT
HETATM    1  C   UNL     1      -9.984  16.198  65.501  1.00  0.00    -0.216 C  
HETATM    2  S   UNL     1     -10.893  17.690  65.799  1.00  0.00     0.234 SA 
HETATM    3  C   UNL     1     -10.883  17.842  67.607  1.00  0.00    -0.224 C  
HETATM    4  C   UNL     1     -10.112  16.843  68.423  1.00  0.00    -0.304 C  
HETATM    5  CA  UNL     1     -10.423  14.834  64.784  1.00  0.00    -0.286 C  
HETATM    6  CA  UNL     1      -9.489  15.748  67.949  1.00  0.00    -0.212 C  
HETATM    7  C   UNL     1      -9.556  14.229  65.923  1.00  0.00    -0.196 C  
HETATM    8  C   UNL     1      -8.681  14.884  68.876  1.00  0.00    -0.180 C  
HETATM    9  N   UNL     1      -9.627  15.378  66.624  1.00  0.00    -0.242 N  
HETATM   10  OXT UNL     1      -8.015  15.372  69.776  1.00  0.00    -0.198 OA 
HETATM   11  O   UNL     1      -9.172  13.139  66.230  1.00  0.00    -0.184 OA 
HETATM   12  O   UNL     1      -8.694  13.560  68.663  1.00  0.00    -0.119 OA 
ENDROOT
BRANCH   4  13
HETATM   13  C   UNL     1     -10.238  17.130  69.922  1.00  0.00     0.290 C  
BRANCH  13  14
HETATM   14  O   UNL     1     -11.584  16.956  70.406  1.00  0.00     0.347 OA 
BRANCH  14  15
HETATM   15  C   UNL     1     -11.973  15.697  70.690  1.00  0.00    -0.402 C  
HETATM   16  O   UNL     1     -11.256  14.714  70.783  1.00  0.00    -0.179 OA 
HETATM   17  N   UNL     1     -13.320  15.645  70.817  1.00  0.00    -0.771 N  
HETATM   18  H2  UNL     1     -13.949  16.442  70.712  1.00  0.00     0.000 HD 
HETATM   19  H1  UNL     1     -13.615  14.692  71.032  1.00  0.00     0.000 HD 
ENDBRANCH  14  15
ENDBRANCH  13  14
ENDBRANCH   4  13
BRANCH   5  20
HETATM   20  N   UNL     1     -11.723  14.063  64.654  1.00  0.00    -0.385 N  
HETATM   21  H   UNL     1     -12.520  14.682  64.508  1.00  0.00     0.000 HD 
HETATM   22  C   UNL     1     -12.103  12.709  64.686  1.00  0.00    -0.420 C  
HETATM   23  O   UNL     1     -13.271  12.433  64.456  1.00  0.00    -0.834 OA 
BRANCH  22  24
HETATM   24  C   UNL     1     -11.182  11.606  65.179  1.00  0.00    -0.197 C  
BRANCH  24  25
HETATM   25  C   UNL     1     -10.331  10.894  64.233  1.00  0.00    -0.368 A  
HETATM   26  O   UNL     1      -9.591   9.801  64.600  1.00  0.00    -0.286 OA 
HETATM   27  C   UNL     1      -9.910  11.308  62.974  1.00  0.00    -0.370 A  
HETATM   28  C   UNL     1      -8.644   9.613  63.637  1.00  0.00    -0.209 A  
HETATM   29  C   UNL     1      -8.791  10.524  62.620  1.00  0.00    -0.276 A  
ENDBRANCH  24  25
BRANCH  24  30
HETATM   30  N   UNL     1     -11.190  11.063  66.361  1.00  0.00    -0.161 NA 
HETATM   31  H   UNL     1     -10.673  10.193  66.479  1.00  0.00     0.000 HD 
BRANCH  30  32
HETATM   32  O   UNL     1     -11.848  11.572  67.478  1.00  0.00    -0.605 OA 
HETATM   33  C   UNL     1     -11.775  10.926  68.727  1.00  0.00    -0.286 C  
ENDBRANCH  30  32
ENDBRANCH  24  30
ENDBRANCH  22  24
ENDBRANCH   5  20
TORSDOF 8
ENDMDL
MODEL      177
REMARK 921   NORMALIZED FREE ENERGY PREDICTED BY IDOCK:   -4.32 KCAL/MOL
REMARK 922        TOTAL FREE ENERGY PREDICTED BY IDOCK:   -7.73 KCAL/MOL
REMARK 923 INTER-LIGAND FREE ENERGY PREDICTED BY IDOCK:   -6.55 KCAL/MOL
REMARK 924 INTRA-LIGAND FREE ENERGY PREDICTED BY IDOCK:   -1.18 KCAL/MOL
REMARK 927      BINDING AFFINITY PREDICTED BY RF-SCORE:    0.00 PKD
ROOT
HETATM    1  C   UNL     1     -10.459   7.431  68.313  1.00  0.00    -0.189 C  
HETATM    2  S   UNL     1      -9.378   6.199  67.640  1.00  0.00    -0.112 SA 
HETATM    3  C   UNL     1      -8.571   5.493  69.103  1.00  0.00    -0.104 C  
HETATM    4  C   UNL     1      -8.989   5.960  70.469  1.00  0.00    -0.151 C  
HETATM    5  CA  UNL     1     -10.513   9.014  68.076  1.00  0.00    -0.216 C  
HETATM    6  CA  UNL     1      -9.857   6.956  70.732  1.00  0.00    -0.182 C  
HETATM    7  C   UNL     1     -10.836   8.997  69.596  1.00  0.00    -0.186 C  
HETATM    8  C   UNL     1     -10.245   7.256  72.152  1.00  0.00    -0.190 C  
HETATM    9  N   UNL     1     -10.355   7.742  69.711  1.00  0.00    -0.216 N  
HETATM   10  OXT UNL     1     -10.395   6.361  72.970  1.00  0.00    -0.192 OA 
HETATM   11  O   UNL     1     -11.144   9.803  70.423  1.00  0.00    -0.260 OA 
HETATM   12  O   UNL     1     -10.452   8.539  72.484  1.00  0.00    -0.317 OA 
ENDROOT
BRANCH   4  13
HETATM   13  C   UNL     1      -8.185   5.261  71.569  1.00  0.00    -0.117 C  
BRANCH  13  14
HETATM   14  O   UNL     1      -8.126   3.833  71.384  1.00  0.00    -0.066 OA 
BRANCH  14  15
HETATM   15  C   UNL     1      -9.285   3.154  71.490  1.00  0.00    -0.118 C  
HETATM   16  O   UNL     1      -9.788   2.431  70.644  1.00  0.00    -0.063 OA 
HETATM   17  N   UNL     1      -9.875   3.424  72.678  1.00  0.00    -0.138 N  
HETATM   18  H2  UNL     1      -9.497   4.049  73.390  1.00  0.00     0.000 HD 
HETATM   19  H1  UNL     1     -10.753   2.910  72.758  1.00  0.00     0.000 HD 
ENDBRANCH  14  15
ENDBRANCH  13  14
ENDBRANCH   4  13
BRANCH   5  20
HETATM   20  N   UNL     1      -9.483  10.087  67.776  1.00  0.00    -0.140 N  
HETATM   21  H   UNL     1      -9.056  10.454  68.626  1.00  0.00     0.000 HD 
HETATM   22  C   UNL     1      -8.971  10.703  66.619  1.00  0.00    -0.150 C  
HETATM   23  O   UNL     1      -8.055  11.501  66.749  1.00  0.00    -0.156 OA 
BRANCH  22  24
HETATM   24  C   UNL     1      -9.628  10.569  65.255  1.00  0.00    -0.249 C  
BRANCH  24  25
HETATM   25  C   UNL     1     -10.608  11.559  64.823  1.00  0.00    -0.305 A  
HETATM   26  O   UNL     1     -11.565  12.052  65.671  1.00  0.00    -0.354 OA 
HETATM   27  C   UNL     1     -10.928  11.944  63.526  1.00  0.00    -0.505 A  
HETATM   28  C   UNL     1     -12.527  12.633  64.899  1.00  0.00    -0.494 A  
HETATM   29  C   UNL     1     -12.187  12.581  63.569  1.00  0.00    -0.652 A  
ENDBRANCH  24  25
BRANCH  24  30
HETATM   30  N   UNL     1      -9.564   9.539  64.465  1.00  0.00    -0.407 NA 
HETATM   31  H   UNL     1     -10.339   8.878  64.496  1.00  0.00     0.000 HD 
BRANCH  30  32
HETATM   32  O   UNL     1      -8.525   9.266  63.579  1.00  0.00    -0.180 OA 
HETATM   33  C   UNL     1      -7.858   8.025  63.595  1.00  0.00    -0.142 C  
ENDBRANCH  30  32
ENDBRANCH  24  30
ENDBRANCH  22  24
ENDBRANCH   5  20
TORSDOF 8
ENDMDL
MODEL      178
REMARK 921   NORMALIZED FREE ENERGY PREDICTED BY IDOCK:   -4.31 KCAL/MOL
REMARK 922        TOTAL FREE ENERGY PREDICTED BY IDOCK:   -7.72 KCAL/MOL
REMARK 923 INTER-LIGAND FREE ENERGY PREDICTED BY IDOCK:   -6.40 KCAL/MOL
REMARK 924 INTRA-LIGAND FREE ENERGY PREDICTED BY IDOCK:   -1.32 KCAL/MOL
REMARK 927      BINDING AFFINITY PREDICTED BY RF-SCORE:    0.00 PKD
ROOT
HETATM    1  C   UNL     1      -8.026   7.455  67.843  1.00  0.00    -0.119 C  
HETATM    2  S   UNL     1      -8.123   6.744  66.222  1.00  0.00    -0.117 SA 
HETATM    3  C   UNL     1      -8.450   8.171  65.150  1.00  0.00    -0.116 C  
HETATM    4  C   UNL     1      -8.479   9.548  65.749  1.00  0.00    -0.143 C  
HETATM    5  CA  UNL     1      -8.903   7.183  69.155  1.00  0.00    -0.135 C  
HETATM    6  CA  UNL     1      -8.387   9.841  67.060  1.00  0.00    -0.117 C  
HETATM    7  C   UNL     1      -8.731   8.721  69.305  1.00  0.00    -0.135 C  
HETATM    8  C   UNL     1      -8.344  11.275  67.506  1.00  0.00    -0.131 C  
HETATM    9  N   UNL     1      -8.384   8.835  68.008  1.00  0.00    -0.118 N  
HETATM   10  OXT UNL     1      -7.748  12.123  66.859  1.00  0.00    -0.135 OA 
HETATM   11  O   UNL     1      -9.015   9.545  70.122  1.00  0.00    -0.203 OA 
HETATM   12  O   UNL     1      -8.958  11.589  68.657  1.00  0.00    -0.170 OA 
ENDROOT
BRANCH   4  13
HETATM   13  C   UNL     1      -8.784  10.612  64.690  1.00  0.00    -0.152 C  
BRANCH  13  14
HETATM   14  O   UNL     1     -10.049  10.392  64.037  1.00  0.00    -0.307 OA 
BRANCH  14  15
HETATM   15  C   UNL     1     -11.011  11.313  64.242  1.00  0.00    -0.288 C  
HETATM   16  O   UNL     1     -11.252  11.898  65.287  1.00  0.00    -0.317 OA 
HETATM   17  N   UNL     1     -11.743  11.479  63.115  1.00  0.00    -0.890 N  
HETATM   18  H2  UNL     1     -11.588  10.981  62.239  1.00  0.00     0.000 HD 
HETATM   19  H1  UNL     1     -12.472  12.176  63.271  1.00  0.00     0.000 HD 
ENDBRANCH  14  15
ENDBRANCH  13  14
ENDBRANCH   4  13
BRANCH   5  20
HETATM   20  N   UNL     1     -10.346   6.794  69.417  1.00  0.00    -0.190 N  
HETATM   21  H   UNL     1     -10.830   6.527  68.560  1.00  0.00     0.000 HD 
HETATM   22  C   UNL     1     -11.182   6.708  70.546  1.00  0.00    -0.334 C  
HETATM   23  O   UNL     1     -12.309   6.261  70.395  1.00  0.00     0.051 OA 
BRANCH  22  24
HETATM   24  C   UNL     1     -10.819   7.322  71.888  1.00  0.00    -0.226 C  
BRANCH  24  25
HETATM   25  C   UNL     1     -10.041   6.551  72.851  1.00  0.00    -0.181 A  
HETATM   26  O   UNL     1      -8.940   5.825  72.480  1.00  0.00    -0.133 OA 
HETATM   27  C   UNL     1     -10.388   6.192  74.148  1.00  0.00    -0.308 A  
HETATM   28  C   UNL     1      -8.680   4.944  73.487  1.00  0.00    -0.104 A  
HETATM   29  C   UNL     1      -9.553   5.122  74.533  1.00  0.00    -0.163 A  
ENDBRANCH  24  25
BRANCH  24  30
HETATM   30  N   UNL     1     -11.292   8.426  72.386  1.00  0.00    -0.380 NA 
HETATM   31  H   UNL     1     -10.860   8.776  73.240  1.00  0.00     0.000 HD 
BRANCH  30  32
HETATM   32  O   UNL     1     -12.340   9.169  71.848  1.00  0.00    -0.342 OA 
HETATM   33  C   UNL     1     -13.669   8.972  72.271  1.00  0.00    -0.492 C  
ENDBRANCH  30  32
ENDBRANCH  24  30
ENDBRANCH  22  24
ENDBRANCH   5  20
TORSDOF 8
ENDMDL
MODEL      179
REMARK 921   NORMALIZED FREE ENERGY PREDICTED BY IDOCK:   -4.28 KCAL/MOL
REMARK 922        TOTAL FREE ENERGY PREDICTED BY IDOCK:   -7.68 KCAL/MOL
REMARK 923 INTER-LIGAND FREE ENERGY PREDICTED BY IDOCK:   -6.84 KCAL/MOL
REMARK 924 INTRA-LIGAND FREE ENERGY PREDICTED BY IDOCK:   -0.84 KCAL/MOL
REMARK 927      BINDING AFFINITY PREDICTED BY RF-SCORE:    0.00 PKD
ROOT
HETATM    1  C   UNL     1     -11.407  10.627  67.720  1.00  0.00    -0.244 C  
HETATM    2  S   UNL     1     -10.527   9.089  67.733  1.00  0.00    -0.224 SA 
HETATM    3  C   UNL     1     -10.509   8.622  69.486  1.00  0.00    -0.220 C  
HETATM    4  C   UNL     1     -11.242   9.476  70.480  1.00  0.00    -0.345 C  
HETATM    5  CA  UNL     1     -10.951  12.087  67.244  1.00  0.00    -0.262 C  
HETATM    6  CA  UNL     1     -11.850  10.649  70.219  1.00  0.00    -0.342 C  
HETATM    7  C   UNL     1     -11.784  12.499  68.490  1.00  0.00    -0.324 C  
HETATM    8  C   UNL     1     -12.621  11.352  71.299  1.00  0.00    -0.374 C  
HETATM    9  N   UNL     1     -11.726  11.243  68.977  1.00  0.00    -0.314 N  
HETATM   10  OXT UNL     1     -13.282  10.726  72.114  1.00  0.00    -0.473 OA 
HETATM   11  O   UNL     1     -12.138  13.525  68.991  1.00  0.00    -0.341 OA 
HETATM   12  O   UNL     1     -12.583  12.692  71.322  1.00  0.00    -0.350 OA 
ENDROOT
BRANCH   4  13
HETATM   13  C   UNL     1     -11.097   8.927  71.903  1.00  0.00    -0.372 C  
BRANCH  13  14
HETATM   14  O   UNL     1      -9.896   8.149  72.073  1.00  0.00    -0.191 OA 
BRANCH  14  15
HETATM   15  C   UNL     1      -9.433   8.005  73.330  1.00  0.00    -0.266 C  
HETATM   16  O   UNL     1      -8.409   8.484  73.791  1.00  0.00    -0.362 OA 
HETATM   17  N   UNL     1     -10.251   7.187  74.035  1.00  0.00    -0.421 N  
HETATM   18  H2  UNL     1     -11.094   6.746  73.668  1.00  0.00     0.000 HD 
HETATM   19  H1  UNL     1      -9.900   7.079  74.987  1.00  0.00     0.000 HD 
ENDBRANCH  14  15
ENDBRANCH  13  14
ENDBRANCH   4  13
BRANCH   5  20
HETATM   20  N   UNL     1      -9.637  12.844  67.224  1.00  0.00    -0.214 N  
HETATM   21  H   UNL     1      -9.766  13.838  67.413  1.00  0.00     0.000 HD 
HETATM   22  C   UNL     1      -8.285  12.518  67.009  1.00  0.00    -0.125 C  
HETATM   23  O   UNL     1      -7.450  13.398  67.155  1.00  0.00    -0.095 OA 
BRANCH  22  24
HETATM   24  C   UNL     1      -7.841  11.190  66.421  1.00  0.00    -0.136 C  
BRANCH  24  25
HETATM   25  C   UNL     1      -8.388  10.743  65.145  1.00  0.00    -0.064 A  
HETATM   26  O   UNL     1      -7.872   9.669  64.469  1.00  0.00    -0.122 OA 
HETATM   27  C   UNL     1      -9.260  11.419  64.298  1.00  0.00     0.005 A  
HETATM   28  C   UNL     1      -8.324   9.746  63.184  1.00  0.00    -0.166 A  
HETATM   29  C   UNL     1      -9.173  10.814  63.026  1.00  0.00    -0.320 A  
ENDBRANCH  24  25
BRANCH  24  30
HETATM   30  N   UNL     1      -7.146  10.271  67.023  1.00  0.00    -0.088 NA 
HETATM   31  H   UNL     1      -7.632   9.685  67.701  1.00  0.00     0.000 HD 
BRANCH  30  32
HETATM   32  O   UNL     1      -5.790  10.022  66.820  1.00  0.00    -0.049 OA 
HETATM   33  C   UNL     1      -5.291   8.707  66.755  1.00  0.00    -0.036 C  
ENDBRANCH  30  32
ENDBRANCH  24  30
ENDBRANCH  22  24
ENDBRANCH   5  20
TORSDOF 8
ENDMDL
MODEL      180
REMARK 921   NORMALIZED FREE ENERGY PREDICTED BY IDOCK:   -4.27 KCAL/MOL
REMARK 922        TOTAL FREE ENERGY PREDICTED BY IDOCK:   -7.67 KCAL/MOL
REMARK 923 INTER-LIGAND FREE ENERGY PREDICTED BY IDOCK:   -5.15 KCAL/MOL
REMARK 924 INTRA-LIGAND FREE ENERGY PREDICTED BY IDOCK:   -2.51 KCAL/MOL
REMARK 927      BINDING AFFINITY PREDICTED BY RF-SCORE:    0.00 PKD
ROOT
HETATM    1  C   UNL     1     -10.532   7.472  67.562  1.00  0.00    -0.271 C  
HETATM    2  S   UNL     1     -10.567   5.923  68.423  1.00  0.00    -0.243 SA 
HETATM    3  C   UNL     1     -10.957   6.393  70.132  1.00  0.00    -0.334 C  
HETATM    4  C   UNL     1     -11.242   7.833  70.450  1.00  0.00    -0.246 C  
HETATM    5  CA  UNL     1      -9.351   8.189  66.752  1.00  0.00    -0.183 C  
HETATM    6  CA  UNL     1     -11.136   8.867  69.594  1.00  0.00    -0.046 C  
HETATM    7  C   UNL     1      -9.970   9.447  67.421  1.00  0.00    -0.199 C  
HETATM    8  C   UNL     1     -11.539  10.247  70.031  1.00  0.00    -0.276 C  
HETATM    9  N   UNL     1     -10.609   8.683  68.329  1.00  0.00    -0.173 N  
HETATM   10  OXT UNL     1     -12.501  10.424  70.763  1.00  0.00    -0.316 OA 
HETATM   11  O   UNL     1      -9.796  10.628  67.366  1.00  0.00    -0.165 OA 
HETATM   12  O   UNL     1     -10.823  11.282  69.567  1.00  0.00    -0.226 OA 
ENDROOT
BRANCH   4  13
HETATM   13  C   UNL     1     -11.533   8.029  71.940  1.00  0.00    -0.291 C  
BRANCH  13  14
HETATM   14  O   UNL     1     -10.379   8.487  72.671  1.00  0.00    -0.297 OA 
BRANCH  14  15
HETATM   15  C   UNL     1      -9.781   7.598  73.489  1.00  0.00    -0.299 C  
HETATM   16  O   UNL     1     -10.334   6.791  74.220  1.00  0.00    -0.369 OA 
HETATM   17  N   UNL     1      -8.437   7.749  73.437  1.00  0.00    -0.173 N  
HETATM   18  H2  UNL     1      -7.948   8.436  72.862  1.00  0.00     0.000 HD 
HETATM   19  H1  UNL     1      -7.985   7.076  74.056  1.00  0.00     0.000 HD 
ENDBRANCH  14  15
ENDBRANCH  13  14
ENDBRANCH   4  13
BRANCH   5  20
HETATM   20  N   UNL     1      -7.839   8.227  66.873  1.00  0.00    -0.095 N  
HETATM   21  H   UNL     1      -7.384   8.256  65.961  1.00  0.00     0.000 HD 
HETATM   22  C   UNL     1      -6.908   8.231  67.928  1.00  0.00    -0.066 C  
HETATM   23  O   UNL     1      -5.725   8.354  67.652  1.00  0.00    -0.038 OA 
BRANCH  22  24
HETATM   24  C   UNL     1      -7.286   7.896  69.362  1.00  0.00    -0.081 C  
BRANCH  24  25
HETATM   25  C   UNL     1      -7.251   6.511  69.816  1.00  0.00    -0.078 A  
HETATM   26  O   UNL     1      -7.605   6.155  71.090  1.00  0.00    -0.089 OA 
HETATM   27  C   UNL     1      -6.636   5.421  69.209  1.00  0.00    -0.047 A  
HETATM   28  C   UNL     1      -7.110   4.903  71.312  1.00  0.00    -0.052 A  
HETATM   29  C   UNL     1      -6.493   4.413  70.187  1.00  0.00    -0.031 A  
ENDBRANCH  24  25
BRANCH  24  30
HETATM   30  N   UNL     1      -7.841   8.697  70.222  1.00  0.00    -0.090 NA 
HETATM   31  H   UNL     1      -8.852   8.815  70.167  1.00  0.00     0.000 HD 
BRANCH  30  32
HETATM   32  O   UNL     1      -7.168   9.408  71.213  1.00  0.00    -0.299 OA 
HETATM   33  C   UNL     1      -5.955  10.070  70.941  1.00  0.00    -0.082 C  
ENDBRANCH  30  32
ENDBRANCH  24  30
ENDBRANCH  22  24
ENDBRANCH   5  20
TORSDOF 8
ENDMDL
MODEL      181
REMARK 921   NORMALIZED FREE ENERGY PREDICTED BY IDOCK:   -4.27 KCAL/MOL
REMARK 922        TOTAL FREE ENERGY PREDICTED BY IDOCK:   -7.66 KCAL/MOL
REMARK 923 INTER-LIGAND FREE ENERGY PREDICTED BY IDOCK:   -6.57 KCAL/MOL
REMARK 924 INTRA-LIGAND FREE ENERGY PREDICTED BY IDOCK:   -1.09 KCAL/MOL
REMARK 927      BINDING AFFINITY PREDICTED BY RF-SCORE:    0.00 PKD
ROOT
HETATM    1  C   UNL     1     -12.305   8.843  71.282  1.00  0.00    -0.291 C  
HETATM    2  S   UNL     1     -13.484   9.770  72.227  1.00  0.00    -0.236 SA 
HETATM    3  C   UNL     1     -13.217  11.480  71.682  1.00  0.00    -0.286 C  
HETATM    4  C   UNL     1     -12.227  11.755  70.586  1.00  0.00    -0.443 C  
HETATM    5  CA  UNL     1     -11.084   7.920  71.753  1.00  0.00    -0.253 C  
HETATM    6  CA  UNL     1     -11.412  10.850  70.012  1.00  0.00    -0.329 C  
HETATM    7  C   UNL     1     -10.413   8.577  70.515  1.00  0.00    -0.204 C  
HETATM    8  C   UNL     1     -10.532  11.255  68.864  1.00  0.00    -0.206 C  
HETATM    9  N   UNL     1     -11.335   9.560  70.504  1.00  0.00    -0.268 N  
HETATM   10  OXT UNL     1     -10.920  12.045  68.017  1.00  0.00    -0.201 OA 
HETATM   11  O   UNL     1      -9.378   8.458  69.929  1.00  0.00    -0.154 OA 
HETATM   12  O   UNL     1      -9.315  10.696  68.783  1.00  0.00    -0.165 OA 
ENDROOT
BRANCH   4  13
HETATM   13  C   UNL     1     -12.133  13.253  70.280  1.00  0.00    -0.335 C  
BRANCH  13  14
HETATM   14  O   UNL     1     -12.960  14.046  71.155  1.00  0.00    -0.328 OA 
BRANCH  14  15
HETATM   15  C   UNL     1     -12.361  15.061  71.808  1.00  0.00    -0.344 C  
HETATM   16  O   UNL     1     -12.887  15.842  72.585  1.00  0.00    -0.397 OA 
HETATM   17  N   UNL     1     -11.059  15.144  71.444  1.00  0.00    -0.551 N  
HETATM   18  H2  UNL     1     -10.600  14.528  70.773  1.00  0.00     0.000 HD 
HETATM   19  H1  UNL     1     -10.606  15.913  71.938  1.00  0.00     0.000 HD 
ENDBRANCH  14  15
ENDBRANCH  13  14
ENDBRANCH   4  13
BRANCH   5  20
HETATM   20  N   UNL     1     -10.126   7.932  72.930  1.00  0.00    -0.288 N  
HETATM   21  H   UNL     1     -10.258   8.752  73.521  1.00  0.00     0.000 HD 
HETATM   22  C   UNL     1      -9.101   7.094  73.408  1.00  0.00    -0.157 C  
HETATM   23  O   UNL     1      -8.573   7.381  74.472  1.00  0.00    -0.200 OA 
BRANCH  22  24
HETATM   24  C   UNL     1      -8.496   5.976  72.577  1.00  0.00    -0.119 C  
BRANCH  24  25
HETATM   25  C   UNL     1      -9.011   4.617  72.704  1.00  0.00    -0.123 A  
HETATM   26  O   UNL     1      -8.969   3.932  73.889  1.00  0.00    -0.092 OA 
HETATM   27  C   UNL     1      -9.346   3.725  71.691  1.00  0.00    -0.198 A  
HETATM   28  C   UNL     1      -9.156   2.613  73.599  1.00  0.00    -0.081 A  
HETATM   29  C   UNL     1      -9.380   2.433  72.256  1.00  0.00    -0.153 A  
ENDBRANCH  24  25
BRANCH  24  30
HETATM   30  N   UNL     1      -7.405   6.040  71.872  1.00  0.00    -0.092 NA 
HETATM   31  H   UNL     1      -7.139   5.209  71.345  1.00  0.00     0.000 HD 
BRANCH  30  32
HETATM   32  O   UNL     1      -6.570   7.151  71.777  1.00  0.00    -0.047 OA 
HETATM   33  C   UNL     1      -6.114   7.618  70.529  1.00  0.00    -0.030 C  
ENDBRANCH  30  32
ENDBRANCH  24  30
ENDBRANCH  22  24
ENDBRANCH   5  20
TORSDOF 8
ENDMDL
MODEL      182
REMARK 921   NORMALIZED FREE ENERGY PREDICTED BY IDOCK:   -4.27 KCAL/MOL
REMARK 922        TOTAL FREE ENERGY PREDICTED BY IDOCK:   -7.66 KCAL/MOL
REMARK 923 INTER-LIGAND FREE ENERGY PREDICTED BY IDOCK:   -6.63 KCAL/MOL
REMARK 924 INTRA-LIGAND FREE ENERGY PREDICTED BY IDOCK:   -1.02 KCAL/MOL
REMARK 927      BINDING AFFINITY PREDICTED BY RF-SCORE:    0.00 PKD
ROOT
HETATM    1  C   UNL     1     -10.771   8.886  68.079  1.00  0.00    -0.108 C  
HETATM    2  S   UNL     1     -10.437  10.482  67.386  1.00  0.00    -0.262 SA 
HETATM    3  C   UNL     1      -9.215  10.137  66.090  1.00  0.00    -0.159 C  
HETATM    4  C   UNL     1      -8.825   8.714  65.808  1.00  0.00    -0.231 C  
HETATM    5  CA  UNL     1     -10.578   8.335  69.571  1.00  0.00    -0.213 C  
HETATM    6  CA  UNL     1      -9.223   7.633  66.507  1.00  0.00    -0.176 C  
HETATM    7  C   UNL     1     -10.143   7.061  68.796  1.00  0.00    -0.170 C  
HETATM    8  C   UNL     1      -8.820   6.259  66.054  1.00  0.00    -0.151 C  
HETATM    9  N   UNL     1      -9.955   7.778  67.670  1.00  0.00    -0.166 N  
HETATM   10  OXT UNL     1      -8.760   5.975  64.868  1.00  0.00    -0.065 OA 
HETATM   11  O   UNL     1      -9.838   5.941  69.079  1.00  0.00    -0.139 OA 
HETATM   12  O   UNL     1      -8.555   5.344  66.999  1.00  0.00    -0.110 OA 
ENDROOT
BRANCH   4  13
HETATM   13  C   UNL     1      -7.776   8.631  64.696  1.00  0.00    -0.121 C  
BRANCH  13  14
HETATM   14  O   UNL     1      -8.359   8.719  63.381  1.00  0.00    -0.185 OA 
BRANCH  14  15
HETATM   15  C   UNL     1      -8.604   9.954  62.902  1.00  0.00    -0.194 C  
HETATM   16  O   UNL     1      -9.669  10.377  62.482  1.00  0.00    -0.267 OA 
HETATM   17  N   UNL     1      -7.463  10.684  62.895  1.00  0.00    -0.326 N  
HETATM   18  H2  UNL     1      -6.552  10.348  63.207  1.00  0.00     0.000 HD 
HETATM   19  H1  UNL     1      -7.649  11.619  62.531  1.00  0.00     0.000 HD 
ENDBRANCH  14  15
ENDBRANCH  13  14
ENDBRANCH   4  13
BRANCH   5  20
HETATM   20  N   UNL     1      -9.603   8.617  70.698  1.00  0.00    -0.176 N  
HETATM   21  H   UNL     1      -8.760   9.086  70.366  1.00  0.00     0.000 HD 
HETATM   22  C   UNL     1      -9.569   8.393  72.087  1.00  0.00    -0.297 C  
HETATM   23  O   UNL     1      -8.626   8.842  72.720  1.00  0.00    -0.412 OA 
BRANCH  22  24
HETATM   24  C   UNL     1     -10.539   7.461  72.795  1.00  0.00    -0.297 C  
BRANCH  24  25
HETATM   25  C   UNL     1     -10.145   6.087  73.082  1.00  0.00    -0.186 A  
HETATM   26  O   UNL     1      -9.296   5.389  72.265  1.00  0.00    -0.142 OA 
HETATM   27  C   UNL     1     -10.718   5.198  73.985  1.00  0.00    -0.320 A  
HETATM   28  C   UNL     1      -9.431   4.068  72.577  1.00  0.00    -0.130 A  
HETATM   29  C   UNL     1     -10.305   3.898  73.623  1.00  0.00    -0.240 A  
ENDBRANCH  24  25
BRANCH  24  30
HETATM   30  N   UNL     1     -11.799   7.686  73.022  1.00  0.00    -0.598 NA 
HETATM   31  H   UNL     1     -12.261   7.098  73.715  1.00  0.00     0.000 HD 
BRANCH  30  32
HETATM   32  O   UNL     1     -12.570   8.662  72.397  1.00  0.00    -0.383 OA 
HETATM   33  C   UNL     1     -13.849   8.368  71.886  1.00  0.00    -0.408 C  
ENDBRANCH  30  32
ENDBRANCH  24  30
ENDBRANCH  22  24
ENDBRANCH   5  20
TORSDOF 8
ENDMDL
MODEL      183
REMARK 921   NORMALIZED FREE ENERGY PREDICTED BY IDOCK:   -4.26 KCAL/MOL
REMARK 922        TOTAL FREE ENERGY PREDICTED BY IDOCK:   -7.65 KCAL/MOL
REMARK 923 INTER-LIGAND FREE ENERGY PREDICTED BY IDOCK:   -5.72 KCAL/MOL
REMARK 924 INTRA-LIGAND FREE ENERGY PREDICTED BY IDOCK:   -1.93 KCAL/MOL
REMARK 927      BINDING AFFINITY PREDICTED BY RF-SCORE:    0.00 PKD
ROOT
HETATM    1  C   UNL     1      -9.046   5.568  72.708  1.00  0.00    -0.133 C  
HETATM    2  S   UNL     1      -9.199   4.179  71.618  1.00  0.00    -0.137 SA 
HETATM    3  C   UNL     1      -8.297   4.701  70.133  1.00  0.00    -0.071 C  
HETATM    4  C   UNL     1      -7.584   6.023  70.134  1.00  0.00    -0.095 C  
HETATM    5  CA  UNL     1     -10.165   6.502  73.372  1.00  0.00    -0.239 C  
HETATM    6  CA  UNL     1      -7.627   6.943  71.116  1.00  0.00    -0.087 C  
HETATM    7  C   UNL     1      -9.100   7.594  73.071  1.00  0.00    -0.186 C  
HETATM    8  C   UNL     1      -6.791   8.187  71.015  1.00  0.00    -0.043 C  
HETATM    9  N   UNL     1      -8.476   6.781  72.195  1.00  0.00    -0.111 N  
HETATM   10  OXT UNL     1      -5.667   8.158  70.537  1.00  0.00    -0.029 OA 
HETATM   11  O   UNL     1      -8.975   8.761  73.293  1.00  0.00    -0.242 OA 
HETATM   12  O   UNL     1      -7.309   9.328  71.496  1.00  0.00    -0.323 OA 
ENDROOT
BRANCH   4  13
HETATM   13  C   UNL     1      -6.898   6.289  68.791  1.00  0.00    -0.070 C  
BRANCH  13  14
HETATM   14  O   UNL     1      -7.351   5.396  67.754  1.00  0.00    -0.071 OA 
BRANCH  14  15
HETATM   15  C   UNL     1      -6.843   5.583  66.521  1.00  0.00    -0.059 C  
HETATM   16  O   UNL     1      -6.473   4.717  65.743  1.00  0.00    -0.038 OA 
HETATM   17  N   UNL     1      -6.740   6.907  66.256  1.00  0.00    -0.051 N  
HETATM   18  H2  UNL     1      -7.008   7.654  66.897  1.00  0.00     0.000 HD 
HETATM   19  H1  UNL     1      -6.354   7.048  65.322  1.00  0.00     0.000 HD 
ENDBRANCH  14  15
ENDBRANCH  13  14
ENDBRANCH   4  13
BRANCH   5  20
HETATM   20  N   UNL     1     -11.540   6.988  72.953  1.00  0.00    -0.528 N  
HETATM   21  H   UNL     1     -12.282   6.543  73.492  1.00  0.00     0.000 HD 
HETATM   22  C   UNL     1     -12.047   7.898  72.007  1.00  0.00    -0.320 C  
HETATM   23  O   UNL     1     -13.250   8.110  71.999  1.00  0.00    -0.319 OA 
BRANCH  22  24
HETATM   24  C   UNL     1     -11.202   8.472  70.882  1.00  0.00    -0.266 C  
BRANCH  24  25
HETATM   25  C   UNL     1     -10.835   7.629  69.750  1.00  0.00    -0.217 A  
HETATM   26  O   UNL     1     -10.024   8.080  68.742  1.00  0.00    -0.178 OA 
HETATM   27  C   UNL     1     -11.405   6.426  69.350  1.00  0.00    -0.443 A  
HETATM   28  C   UNL     1     -10.182   7.232  67.686  1.00  0.00    -0.200 A  
HETATM   29  C   UNL     1     -11.034   6.203  68.007  1.00  0.00    -0.399 A  
ENDBRANCH  24  25
BRANCH  24  30
HETATM   30  N   UNL     1     -10.582   9.614  70.886  1.00  0.00    -0.320 NA 
HETATM   31  H   UNL     1      -9.695   9.663  71.387  1.00  0.00     0.000 HD 
BRANCH  30  32
HETATM   32  O   UNL     1     -11.028  10.777  70.264  1.00  0.00    -0.246 OA 
HETATM   33  C   UNL     1     -12.392  10.974  69.974  1.00  0.00    -0.305 C  
ENDBRANCH  30  32
ENDBRANCH  24  30
ENDBRANCH  22  24
ENDBRANCH   5  20
TORSDOF 8
ENDMDL
MODEL      184
REMARK 921   NORMALIZED FREE ENERGY PREDICTED BY IDOCK:   -4.26 KCAL/MOL
REMARK 922        TOTAL FREE ENERGY PREDICTED BY IDOCK:   -7.65 KCAL/MOL
REMARK 923 INTER-LIGAND FREE ENERGY PREDICTED BY IDOCK:   -6.63 KCAL/MOL
REMARK 924 INTRA-LIGAND FREE ENERGY PREDICTED BY IDOCK:   -1.02 KCAL/MOL
REMARK 927      BINDING AFFINITY PREDICTED BY RF-SCORE:    0.00 PKD
ROOT
HETATM    1  C   UNL     1      -9.429  12.140  67.392  1.00  0.00    -0.179 C  
HETATM    2  S   UNL     1     -10.810  11.299  66.667  1.00  0.00    -0.252 SA 
HETATM    3  C   UNL     1     -10.039  10.119  65.525  1.00  0.00    -0.268 C  
HETATM    4  C   UNL     1      -8.541  10.015  65.478  1.00  0.00    -0.162 C  
HETATM    5  CA  UNL     1      -9.029  13.691  67.380  1.00  0.00    -0.218 C  
HETATM    6  CA  UNL     1      -7.673  10.801  66.142  1.00  0.00    -0.149 C  
HETATM    7  C   UNL     1      -7.605  13.083  67.239  1.00  0.00    -0.089 C  
HETATM    8  C   UNL     1      -6.199  10.523  66.065  1.00  0.00    -0.123 C  
HETATM    9  N   UNL     1      -8.121  11.899  66.853  1.00  0.00    -0.165 N  
HETATM   10  OXT UNL     1      -5.771   9.379  66.040  1.00  0.00    -0.047 OA 
HETATM   11  O   UNL     1      -6.486  13.502  67.218  1.00  0.00    -0.276 OA 
HETATM   12  O   UNL     1      -5.365  11.574  66.055  1.00  0.00    -0.288 OA 
ENDROOT
BRANCH   4  13
HETATM   13  C   UNL     1      -8.085   8.979  64.446  1.00  0.00    -0.146 C  
BRANCH  13  14
HETATM   14  O   UNL     1      -8.351   9.396  63.092  1.00  0.00    -0.164 OA 
BRANCH  14  15
HETATM   15  C   UNL     1      -8.013  10.659  62.764  1.00  0.00    -0.105 C  
HETATM   16  O   UNL     1      -8.776  11.573  62.496  1.00  0.00    -0.292 OA 
HETATM   17  N   UNL     1      -6.665  10.781  62.716  1.00  0.00    -0.349 N  
HETATM   18  H2  UNL     1      -6.003  10.028  62.902  1.00  0.00     0.000 HD 
HETATM   19  H1  UNL     1      -6.410  11.737  62.468  1.00  0.00     0.000 HD 
ENDBRANCH  14  15
ENDBRANCH  13  14
ENDBRANCH   4  13
BRANCH   5  20
HETATM   20  N   UNL     1      -9.206  14.835  66.400  1.00  0.00    -0.369 N  
HETATM   21  H   UNL     1      -9.320  14.502  65.442  1.00  0.00     0.000 HD 
HETATM   22  C   UNL     1      -9.251  16.239  66.480  1.00  0.00    -0.269 C  
HETATM   23  O   UNL     1      -9.499  16.866  65.462  1.00  0.00    -0.496 OA 
BRANCH  22  24
HETATM   24  C   UNL     1      -8.816  17.007  67.717  1.00  0.00    -0.223 C  
BRANCH  24  25
HETATM   25  C   UNL     1      -7.479  16.804  68.264  1.00  0.00    -0.186 A  
HETATM   26  O   UNL     1      -7.269  16.118  69.431  1.00  0.00    -0.219 OA 
HETATM   27  C   UNL     1      -6.297  17.446  67.911  1.00  0.00    -0.160 A  
HETATM   28  C   UNL     1      -6.011  16.427  69.859  1.00  0.00    -0.195 A  
HETATM   29  C   UNL     1      -5.377  17.252  68.963  1.00  0.00    -0.153 A  
ENDBRANCH  24  25
BRANCH  24  30
HETATM   30  N   UNL     1      -9.579  17.716  68.494  1.00  0.00    -0.303 NA 
HETATM   31  H   UNL     1      -9.290  17.820  69.466  1.00  0.00     0.000 HD 
BRANCH  30  32
HETATM   32  O   UNL     1     -10.760  18.347  68.109  1.00  0.00    -0.321 OA 
HETATM   33  C   UNL     1     -10.743  19.589  67.447  1.00  0.00    -0.467 C  
ENDBRANCH  30  32
ENDBRANCH  24  30
ENDBRANCH  22  24
ENDBRANCH   5  20
TORSDOF 8
ENDMDL
MODEL      185
REMARK 921   NORMALIZED FREE ENERGY PREDICTED BY IDOCK:   -4.23 KCAL/MOL
REMARK 922        TOTAL FREE ENERGY PREDICTED BY IDOCK:   -7.61 KCAL/MOL
REMARK 923 INTER-LIGAND FREE ENERGY PREDICTED BY IDOCK:   -6.05 KCAL/MOL
REMARK 924 INTRA-LIGAND FREE ENERGY PREDICTED BY IDOCK:   -1.55 KCAL/MOL
REMARK 927      BINDING AFFINITY PREDICTED BY RF-SCORE:    0.00 PKD
ROOT
HETATM    1  C   UNL     1      -7.748   6.110  71.034  1.00  0.00    -0.102 C  
HETATM    2  S   UNL     1      -7.570   4.913  69.740  1.00  0.00    -0.056 SA 
HETATM    3  C   UNL     1      -7.458   5.923  68.237  1.00  0.00    -0.085 C  
HETATM    4  C   UNL     1      -7.441   7.420  68.358  1.00  0.00    -0.105 C  
HETATM    5  CA  UNL     1      -8.926   6.330  72.098  1.00  0.00    -0.137 C  
HETATM    6  CA  UNL     1      -7.609   8.123  69.495  1.00  0.00    -0.100 C  
HETATM    7  C   UNL     1      -8.593   7.820  71.809  1.00  0.00    -0.116 C  
HETATM    8  C   UNL     1      -7.481   9.619  69.477  1.00  0.00    -0.096 C  
HETATM    9  N   UNL     1      -7.951   7.484  70.672  1.00  0.00    -0.099 N  
HETATM   10  OXT UNL     1      -6.649  10.175  68.776  1.00  0.00    -0.052 OA 
HETATM   11  O   UNL     1      -8.943   8.881  72.234  1.00  0.00    -0.388 OA 
HETATM   12  O   UNL     1      -8.292  10.324  70.280  1.00  0.00    -0.012 OA 
ENDROOT
BRANCH   4  13
HETATM   13  C   UNL     1      -7.358   8.091  66.984  1.00  0.00    -0.091 C  
BRANCH  13  14
HETATM   14  O   UNL     1      -8.587   7.977  66.240  1.00  0.00    -0.128 OA 
BRANCH  14  15
HETATM   15  C   UNL     1      -9.378   9.067  66.195  1.00  0.00    -0.232 C  
HETATM   16  O   UNL     1      -9.890   9.638  67.146  1.00  0.00    -0.168 OA 
HETATM   17  N   UNL     1      -9.586   9.438  64.910  1.00  0.00    -0.442 N  
HETATM   18  H2  UNL     1      -9.199   8.962  64.095  1.00  0.00     0.000 HD 
HETATM   19  H1  UNL     1     -10.185  10.263  64.876  1.00  0.00     0.000 HD 
ENDBRANCH  14  15
ENDBRANCH  13  14
ENDBRANCH   4  13
BRANCH   5  20
HETATM   20  N   UNL     1     -10.428   6.122  72.089  1.00  0.00    -0.198 N  
HETATM   21  H   UNL     1     -10.707   5.331  72.669  1.00  0.00     0.000 HD 
HETATM   22  C   UNL     1     -11.533   6.747  71.481  1.00  0.00    -0.287 C  
HETATM   23  O   UNL     1     -12.651   6.350  71.771  1.00  0.00    -0.286 OA 
BRANCH  22  24
HETATM   24  C   UNL     1     -11.392   7.748  70.346  1.00  0.00    -0.207 C  
BRANCH  24  25
HETATM   25  C   UNL     1     -11.907   9.102  70.506  1.00  0.00    -0.095 A  
HETATM   26  O   UNL     1     -11.562  10.117  69.653  1.00  0.00    -0.224 OA 
HETATM   27  C   UNL     1     -12.550   9.655  71.609  1.00  0.00    -0.493 A  
HETATM   28  C   UNL     1     -11.878  11.290  70.271  1.00  0.00    -0.357 A  
HETATM   29  C   UNL     1     -12.477  11.059  71.485  1.00  0.00    -0.389 A  
ENDBRANCH  24  25
BRANCH  24  30
HETATM   30  N   UNL     1     -11.020   7.487  69.128  1.00  0.00    -0.423 NA 
HETATM   31  H   UNL     1     -10.577   8.240  68.603  1.00  0.00     0.000 HD 
BRANCH  30  32
HETATM   32  O   UNL     1     -11.178   6.264  68.481  1.00  0.00    -0.352 OA 
HETATM   33  C   UNL     1     -10.969   6.139  67.093  1.00  0.00    -0.331 C  
ENDBRANCH  30  32
ENDBRANCH  24  30
ENDBRANCH  22  24
ENDBRANCH   5  20
TORSDOF 8
ENDMDL
MODEL      186
REMARK 921   NORMALIZED FREE ENERGY PREDICTED BY IDOCK:   -4.23 KCAL/MOL
REMARK 922        TOTAL FREE ENERGY PREDICTED BY IDOCK:   -7.60 KCAL/MOL
REMARK 923 INTER-LIGAND FREE ENERGY PREDICTED BY IDOCK:   -6.41 KCAL/MOL
REMARK 924 INTRA-LIGAND FREE ENERGY PREDICTED BY IDOCK:   -1.19 KCAL/MOL
REMARK 927      BINDING AFFINITY PREDICTED BY RF-SCORE:    0.00 PKD
ROOT
HETATM    1  C   UNL     1     -10.248   9.164  67.401  1.00  0.00    -0.247 C  
HETATM    2  S   UNL     1     -10.682  10.484  68.501  1.00  0.00    -0.243 SA 
HETATM    3  C   UNL     1     -10.649  11.954  67.438  1.00  0.00    -0.225 C  
HETATM    4  C   UNL     1     -10.386  11.791  65.968  1.00  0.00    -0.276 C  
HETATM    5  CA  UNL     1      -9.019   8.137  67.437  1.00  0.00    -0.137 C  
HETATM    6  CA  UNL     1     -10.059  10.642  65.347  1.00  0.00    -0.291 C  
HETATM    7  C   UNL     1      -9.080   8.373  65.902  1.00  0.00    -0.171 C  
HETATM    8  C   UNL     1      -9.909  10.614  63.852  1.00  0.00    -0.338 C  
HETATM    9  N   UNL     1      -9.806   9.495  66.076  1.00  0.00    -0.272 N  
HETATM   10  OXT UNL     1     -10.643  11.270  63.130  1.00  0.00    -0.310 OA 
HETATM   11  O   UNL     1      -8.528   7.931  64.938  1.00  0.00    -0.127 OA 
HETATM   12  O   UNL     1      -8.958   9.821  63.335  1.00  0.00    -0.230 OA 
ENDROOT
BRANCH   4  13
HETATM   13  C   UNL     1     -10.384  13.142  65.247  1.00  0.00    -0.305 C  
BRANCH  13  14
HETATM   14  O   UNL     1     -11.514  13.960  65.608  1.00  0.00    -0.309 OA 
BRANCH  14  15
HETATM   15  C   UNL     1     -12.469  14.131  64.674  1.00  0.00    -0.350 C  
HETATM   16  O   UNL     1     -12.767  15.175  64.114  1.00  0.00    -0.694 OA 
HETATM   17  N   UNL     1     -13.121  12.964  64.457  1.00  0.00    -0.657 N  
HETATM   18  H2  UNL     1     -12.918  12.084  64.933  1.00  0.00     0.000 HD 
HETATM   19  H1  UNL     1     -13.845  13.093  63.750  1.00  0.00     0.000 HD 
ENDBRANCH  14  15
ENDBRANCH  13  14
ENDBRANCH   4  13
BRANCH   5  20
HETATM   20  N   UNL     1      -7.582   8.204  67.917  1.00  0.00    -0.100 N  
HETATM   21  H   UNL     1      -7.383   7.499  68.626  1.00  0.00     0.000 HD 
HETATM   22  C   UNL     1      -6.455   8.996  67.629  1.00  0.00    -0.060 C  
HETATM   23  O   UNL     1      -5.396   8.708  68.166  1.00  0.00    -0.034 OA 
BRANCH  22  24
HETATM   24  C   UNL     1      -6.540  10.296  66.846  1.00  0.00    -0.076 C  
BRANCH  24  25
HETATM   25  C   UNL     1      -6.656  11.564  67.556  1.00  0.00    -0.087 A  
HETATM   26  O   UNL     1      -7.718  11.844  68.374  1.00  0.00    -0.118 OA 
HETATM   27  C   UNL     1      -5.943  12.739  67.343  1.00  0.00    -0.110 A  
HETATM   28  C   UNL     1      -7.733  13.194  68.568  1.00  0.00    -0.117 A  
HETATM   29  C   UNL     1      -6.667  13.791  67.942  1.00  0.00    -0.162 A  
ENDBRANCH  24  25
BRANCH  24  30
HETATM   30  N   UNL     1      -6.717  10.414  65.563  1.00  0.00    -0.139 NA 
HETATM   31  H   UNL     1      -7.638  10.183  65.195  1.00  0.00     0.000 HD 
BRANCH  30  32
HETATM   32  O   UNL     1      -5.751  10.832  64.651  1.00  0.00    -0.099 OA 
HETATM   33  C   UNL     1      -5.537  10.138  63.444  1.00  0.00    -0.124 C  
ENDBRANCH  30  32
ENDBRANCH  24  30
ENDBRANCH  22  24
ENDBRANCH   5  20
TORSDOF 8
ENDMDL
MODEL      187
REMARK 921   NORMALIZED FREE ENERGY PREDICTED BY IDOCK:   -4.22 KCAL/MOL
REMARK 922        TOTAL FREE ENERGY PREDICTED BY IDOCK:   -7.58 KCAL/MOL
REMARK 923 INTER-LIGAND FREE ENERGY PREDICTED BY IDOCK:   -7.09 KCAL/MOL
REMARK 924 INTRA-LIGAND FREE ENERGY PREDICTED BY IDOCK:   -0.49 KCAL/MOL
REMARK 927      BINDING AFFINITY PREDICTED BY RF-SCORE:    0.00 PKD
ROOT
HETATM    1  C   UNL     1      -7.762   8.876  69.941  1.00  0.00    -0.076 C  
HETATM    2  S   UNL     1      -8.198   8.933  71.658  1.00  0.00     0.057 SA 
HETATM    3  C   UNL     1      -9.872   8.235  71.696  1.00  0.00    -0.199 C  
HETATM    4  C   UNL     1     -10.477   7.708  70.426  1.00  0.00    -0.221 C  
HETATM    5  CA  UNL     1      -7.374  10.051  68.924  1.00  0.00    -0.080 C  
HETATM    6  CA  UNL     1      -9.932   7.792  69.197  1.00  0.00    -0.182 C  
HETATM    7  C   UNL     1      -8.210   9.171  67.953  1.00  0.00    -0.112 C  
HETATM    8  C   UNL     1     -10.615   7.141  68.028  1.00  0.00    -0.196 C  
HETATM    9  N   UNL     1      -8.775   8.519  68.989  1.00  0.00    -0.134 N  
HETATM   10  OXT UNL     1     -11.185   6.067  68.146  1.00  0.00    -0.263 OA 
HETATM   11  O   UNL     1      -8.476   9.185  66.789  1.00  0.00    -0.120 OA 
HETATM   12  O   UNL     1     -10.552   7.765  66.842  1.00  0.00    -0.343 OA 
ENDROOT
BRANCH   4  13
HETATM   13  C   UNL     1     -11.894   7.176  70.660  1.00  0.00    -0.291 C  
BRANCH  13  14
HETATM   14  O   UNL     1     -12.432   7.586  71.932  1.00  0.00    -0.306 OA 
BRANCH  14  15
HETATM   15  C   UNL     1     -13.722   7.976  71.954  1.00  0.00    -0.323 C  
HETATM   16  O   UNL     1     -14.244   8.730  72.760  1.00  0.00    -0.520 OA 
HETATM   17  N   UNL     1     -14.409   7.366  70.960  1.00  0.00    -0.548 N  
HETATM   18  H2  UNL     1     -14.009   6.707  70.292  1.00  0.00     0.000 HD 
HETATM   19  H1  UNL     1     -15.385   7.662  70.976  1.00  0.00     0.000 HD 
ENDBRANCH  14  15
ENDBRANCH  13  14
ENDBRANCH   4  13
BRANCH   5  20
HETATM   20  N   UNL     1      -7.767  11.509  68.772  1.00  0.00    -0.178 N  
HETATM   21  H   UNL     1      -7.022  12.138  69.070  1.00  0.00     0.000 HD 
HETATM   22  C   UNL     1      -8.902  12.210  68.325  1.00  0.00    -0.182 C  
HETATM   23  O   UNL     1      -8.839  13.428  68.260  1.00  0.00    -0.178 OA 
BRANCH  22  24
HETATM   24  C   UNL     1     -10.250  11.542  68.108  1.00  0.00    -0.194 C  
BRANCH  24  25
HETATM   25  C   UNL     1     -11.300  11.686  69.111  1.00  0.00    -0.283 A  
HETATM   26  O   UNL     1     -11.643  12.906  69.632  1.00  0.00    -0.283 OA 
HETATM   27  C   UNL     1     -11.900  10.694  69.878  1.00  0.00    -0.392 A  
HETATM   28  C   UNL     1     -12.348  12.671  70.776  1.00  0.00    -0.283 A  
HETATM   29  C   UNL     1     -12.521  11.323  70.978  1.00  0.00    -0.503 A  
ENDBRANCH  24  25
BRANCH  24  30
HETATM   30  N   UNL     1     -10.540  10.666  67.193  1.00  0.00    -0.245 NA 
HETATM   31  H   UNL     1     -10.544   9.685  67.469  1.00  0.00     0.000 HD 
BRANCH  30  32
HETATM   32  O   UNL     1     -10.847  10.957  65.866  1.00  0.00    -0.178 OA 
HETATM   33  C   UNL     1     -11.168  12.267  65.460  1.00  0.00    -0.332 C  
ENDBRANCH  30  32
ENDBRANCH  24  30
ENDBRANCH  22  24
ENDBRANCH   5  20
TORSDOF 8
ENDMDL
MODEL      188
REMARK 921   NORMALIZED FREE ENERGY PREDICTED BY IDOCK:   -4.21 KCAL/MOL
REMARK 922        TOTAL FREE ENERGY PREDICTED BY IDOCK:   -7.58 KCAL/MOL
REMARK 923 INTER-LIGAND FREE ENERGY PREDICTED BY IDOCK:   -6.00 KCAL/MOL
REMARK 924 INTRA-LIGAND FREE ENERGY PREDICTED BY IDOCK:   -1.58 KCAL/MOL
REMARK 927      BINDING AFFINITY PREDICTED BY RF-SCORE:    0.00 PKD
ROOT
HETATM    1  C   UNL     1      -8.865   9.381  70.009  1.00  0.00    -0.211 C  
HETATM    2  S   UNL     1      -8.288   9.469  68.335  1.00  0.00    -0.119 SA 
HETATM    3  C   UNL     1      -9.569  10.439  67.493  1.00  0.00    -0.156 C  
HETATM    4  C   UNL     1     -10.705  11.008  68.295  1.00  0.00    -0.235 C  
HETATM    5  CA  UNL     1      -9.243   8.117  70.918  1.00  0.00    -0.151 C  
HETATM    6  CA  UNL     1     -10.940  10.783  69.601  1.00  0.00    -0.264 C  
HETATM    7  C   UNL     1     -10.363   9.085  71.390  1.00  0.00    -0.326 C  
HETATM    8  C   UNL     1     -12.070  11.492  70.292  1.00  0.00    -0.359 C  
HETATM    9  N   UNL     1     -10.184   9.865  70.304  1.00  0.00    -0.279 N  
HETATM   10  OXT UNL     1     -12.351  12.650  70.024  1.00  0.00    -0.208 OA 
HETATM   11  O   UNL     1     -11.225   9.069  72.217  1.00  0.00    -0.306 OA 
HETATM   12  O   UNL     1     -12.744  10.818  71.237  1.00  0.00    -0.374 OA 
ENDROOT
BRANCH   4  13
HETATM   13  C   UNL     1     -11.686  11.779  67.406  1.00  0.00    -0.230 C  
BRANCH  13  14
HETATM   14  O   UNL     1     -11.016  12.662  66.484  1.00  0.00    -0.257 OA 
BRANCH  14  15
HETATM   15  C   UNL     1     -10.924  13.958  66.838  1.00  0.00    -0.295 C  
HETATM   16  O   UNL     1      -9.956  14.689  66.692  1.00  0.00    -0.258 OA 
HETATM   17  N   UNL     1     -12.066  14.357  67.446  1.00  0.00    -0.588 N  
HETATM   18  H2  UNL     1     -12.878  13.762  67.612  1.00  0.00     0.000 HD 
HETATM   19  H1  UNL     1     -11.996  15.338  67.714  1.00  0.00     0.000 HD 
ENDBRANCH  14  15
ENDBRANCH  13  14
ENDBRANCH   4  13
BRANCH   5  20
HETATM   20  N   UNL     1      -9.823   6.742  70.650  1.00  0.00    -0.179 N  
HETATM   21  H   UNL     1     -10.664   6.569  71.200  1.00  0.00     0.000 HD 
HETATM   22  C   UNL     1      -9.491   5.645  69.833  1.00  0.00    -0.156 C  
HETATM   23  O   UNL     1     -10.257   4.694  69.807  1.00  0.00    -0.234 OA 
BRANCH  22  24
HETATM   24  C   UNL     1      -8.144   5.510  69.143  1.00  0.00    -0.095 C  
BRANCH  24  25
HETATM   25  C   UNL     1      -8.085   5.136  67.735  1.00  0.00    -0.099 A  
HETATM   26  O   UNL     1      -8.399   6.019  66.735  1.00  0.00    -0.106 OA 
HETATM   27  C   UNL     1      -7.993   3.863  67.185  1.00  0.00    -0.092 A  
HETATM   28  C   UNL     1      -8.618   5.287  65.605  1.00  0.00    -0.143 A  
HETATM   29  C   UNL     1      -8.393   3.952  65.834  1.00  0.00    -0.109 A  
ENDBRANCH  24  25
BRANCH  24  30
HETATM   30  N   UNL     1      -6.978   5.502  69.719  1.00  0.00    -0.060 NA 
HETATM   31  H   UNL     1      -6.224   5.009  69.242  1.00  0.00     0.000 HD 
BRANCH  30  32
HETATM   32  O   UNL     1      -6.675   6.112  70.934  1.00  0.00    -0.057 OA 
HETATM   33  C   UNL     1      -6.592   5.366  72.126  1.00  0.00    -0.056 C  
ENDBRANCH  30  32
ENDBRANCH  24  30
ENDBRANCH  22  24
ENDBRANCH   5  20
TORSDOF 8
ENDMDL
MODEL      189
REMARK 921   NORMALIZED FREE ENERGY PREDICTED BY IDOCK:   -4.21 KCAL/MOL
REMARK 922        TOTAL FREE ENERGY PREDICTED BY IDOCK:   -7.57 KCAL/MOL
REMARK 923 INTER-LIGAND FREE ENERGY PREDICTED BY IDOCK:   -6.09 KCAL/MOL
REMARK 924 INTRA-LIGAND FREE ENERGY PREDICTED BY IDOCK:   -1.48 KCAL/MOL
REMARK 927      BINDING AFFINITY PREDICTED BY RF-SCORE:    0.00 PKD
ROOT
HETATM    1  C   UNL     1      -8.904   9.349  69.977  1.00  0.00    -0.211 C  
HETATM    2  S   UNL     1      -8.354   9.551  68.304  1.00  0.00    -0.119 SA 
HETATM    3  C   UNL     1      -9.642  10.586  67.554  1.00  0.00    -0.160 C  
HETATM    4  C   UNL     1     -10.760  11.104  68.413  1.00  0.00    -0.234 C  
HETATM    5  CA  UNL     1      -9.276   8.027  70.801  1.00  0.00    -0.157 C  
HETATM    6  CA  UNL     1     -10.974  10.790  69.705  1.00  0.00    -0.264 C  
HETATM    7  C   UNL     1     -10.380   8.966  71.359  1.00  0.00    -0.307 C  
HETATM    8  C   UNL     1     -12.087  11.455  70.464  1.00  0.00    -0.394 C  
HETATM    9  N   UNL     1     -10.214   9.819  70.328  1.00  0.00    -0.277 N  
HETATM   10  OXT UNL     1     -12.363  12.631  70.282  1.00  0.00    -0.281 OA 
HETATM   11  O   UNL     1     -11.229   8.897  72.198  1.00  0.00    -0.360 OA 
HETATM   12  O   UNL     1     -12.751  10.721  71.370  1.00  0.00    -0.382 OA 
ENDROOT
BRANCH   4  13
HETATM   13  C   UNL     1     -11.749  11.942  67.598  1.00  0.00    -0.275 C  
BRANCH  13  14
HETATM   14  O   UNL     1     -11.092  12.940  66.791  1.00  0.00    -0.267 OA 
BRANCH  14  15
HETATM   15  C   UNL     1     -11.133  14.211  67.237  1.00  0.00    -0.305 C  
HETATM   16  O   UNL     1     -10.231  15.032  67.187  1.00  0.00    -0.245 OA 
HETATM   17  N   UNL     1     -12.330  14.461  67.817  1.00  0.00    -0.603 N  
HETATM   18  H2  UNL     1     -13.090  13.786  67.904  1.00  0.00     0.000 HD 
HETATM   19  H1  UNL     1     -12.361  15.423  68.155  1.00  0.00     0.000 HD 
ENDBRANCH  14  15
ENDBRANCH  13  14
ENDBRANCH   4  13
BRANCH   5  20
HETATM   20  N   UNL     1      -9.871   6.677  70.447  1.00  0.00    -0.175 N  
HETATM   21  H   UNL     1     -10.735   6.769  69.912  1.00  0.00     0.000 HD 
HETATM   22  C   UNL     1      -9.530   5.330  70.671  1.00  0.00    -0.168 C  
HETATM   23  O   UNL     1     -10.220   4.467  70.151  1.00  0.00    -0.210 OA 
BRANCH  22  24
HETATM   24  C   UNL     1      -8.473   4.905  71.677  1.00  0.00    -0.122 C  
BRANCH  24  25
HETATM   25  C   UNL     1      -7.353   4.077  71.245  1.00  0.00    -0.040 A  
HETATM   26  O   UNL     1      -6.323   4.582  70.497  1.00  0.00    -0.024 OA 
HETATM   27  C   UNL     1      -7.256   2.690  71.250  1.00  0.00    -0.033 A  
HETATM   28  C   UNL     1      -5.666   3.520  69.948  1.00  0.00    -0.018 A  
HETATM   29  C   UNL     1      -6.211   2.333  70.371  1.00  0.00    -0.024 A  
ENDBRANCH  24  25
BRANCH  24  30
HETATM   30  N   UNL     1      -8.540   5.034  72.969  1.00  0.00    -0.114 NA 
HETATM   31  H   UNL     1      -8.009   4.372  73.533  1.00  0.00     0.000 HD 
BRANCH  30  32
HETATM   32  O   UNL     1      -9.278   6.003  73.646  1.00  0.00    -0.127 OA 
HETATM   33  C   UNL     1     -10.542   5.709  74.192  1.00  0.00    -0.191 C  
ENDBRANCH  30  32
ENDBRANCH  24  30
ENDBRANCH  22  24
ENDBRANCH   5  20
TORSDOF 8
ENDMDL
MODEL      190
REMARK 921   NORMALIZED FREE ENERGY PREDICTED BY IDOCK:   -4.20 KCAL/MOL
REMARK 922        TOTAL FREE ENERGY PREDICTED BY IDOCK:   -7.55 KCAL/MOL
REMARK 923 INTER-LIGAND FREE ENERGY PREDICTED BY IDOCK:   -5.78 KCAL/MOL
REMARK 924 INTRA-LIGAND FREE ENERGY PREDICTED BY IDOCK:   -1.78 KCAL/MOL
REMARK 927      BINDING AFFINITY PREDICTED BY RF-SCORE:    0.00 PKD
ROOT
HETATM    1  C   UNL     1      -6.452   6.082  71.635  1.00  0.00    -0.050 C  
HETATM    2  S   UNL     1      -6.946   4.836  70.475  1.00  0.00    -0.038 SA 
HETATM    3  C   UNL     1      -7.427   5.787  69.006  1.00  0.00    -0.084 C  
HETATM    4  C   UNL     1      -7.247   7.278  69.006  1.00  0.00    -0.089 C  
HETATM    5  CA  UNL     1      -7.027   6.446  73.085  1.00  0.00    -0.075 C  
HETATM    6  CA  UNL     1      -6.849   8.026  70.052  1.00  0.00    -0.041 C  
HETATM    7  C   UNL     1      -6.744   7.888  72.580  1.00  0.00    -0.073 C  
HETATM    8  C   UNL     1      -6.630   9.502  69.879  1.00  0.00    -0.059 C  
HETATM    9  N   UNL     1      -6.689   7.458  71.303  1.00  0.00    -0.049 N  
HETATM   10  OXT UNL     1      -6.150   9.955  68.851  1.00  0.00    -0.041 OA 
HETATM   11  O   UNL     1      -6.793   8.989  73.041  1.00  0.00    -0.325 OA 
HETATM   12  O   UNL     1      -6.955  10.305  70.904  1.00  0.00    -0.321 OA 
ENDROOT
BRANCH   4  13
HETATM   13  C   UNL     1      -7.722   7.898  67.689  1.00  0.00    -0.117 C  
BRANCH  13  14
HETATM   14  O   UNL     1      -9.019   8.515  67.807  1.00  0.00    -0.136 OA 
BRANCH  14  15
HETATM   15  C   UNL     1      -9.628   8.882  66.662  1.00  0.00    -0.219 C  
HETATM   16  O   UNL     1     -10.236   9.922  66.459  1.00  0.00    -0.231 OA 
HETATM   17  N   UNL     1      -9.521   7.896  65.741  1.00  0.00    -0.416 N  
HETATM   18  H2  UNL     1      -9.048   7.004  65.892  1.00  0.00     0.000 HD 
HETATM   19  H1  UNL     1      -9.982   8.175  64.875  1.00  0.00     0.000 HD 
ENDBRANCH  14  15
ENDBRANCH  13  14
ENDBRANCH   4  13
BRANCH   5  20
HETATM   20  N   UNL     1      -8.394   6.383  73.740  1.00  0.00    -0.115 N  
HETATM   21  H   UNL     1      -8.357   5.944  74.660  1.00  0.00     0.000 HD 
HETATM   22  C   UNL     1      -9.700   6.780  73.397  1.00  0.00    -0.192 C  
HETATM   23  O   UNL     1     -10.582   6.643  74.231  1.00  0.00    -0.271 OA 
BRANCH  22  24
HETATM   24  C   UNL     1     -10.095   7.181  71.985  1.00  0.00    -0.177 C  
BRANCH  24  25
HETATM   25  C   UNL     1     -10.690   8.490  71.744  1.00  0.00    -0.303 A  
HETATM   26  O   UNL     1     -11.916   8.835  72.249  1.00  0.00    -0.365 OA 
HETATM   27  C   UNL     1     -10.314   9.448  70.809  1.00  0.00    -0.366 A  
HETATM   28  C   UNL     1     -12.347   9.925  71.551  1.00  0.00    -0.412 A  
HETATM   29  C   UNL     1     -11.401  10.333  70.644  1.00  0.00    -0.431 A  
ENDBRANCH  24  25
BRANCH  24  30
HETATM   30  N   UNL     1     -10.143   6.402  70.945  1.00  0.00    -0.185 NA 
HETATM   31  H   UNL     1      -9.306   5.865  70.724  1.00  0.00     0.000 HD 
BRANCH  30  32
HETATM   32  O   UNL     1     -11.245   6.241  70.109  1.00  0.00    -0.343 OA 
HETATM   33  C   UNL     1     -11.088   6.024  68.726  1.00  0.00    -0.254 C  
ENDBRANCH  30  32
ENDBRANCH  24  30
ENDBRANCH  22  24
ENDBRANCH   5  20
TORSDOF 8
ENDMDL
MODEL      191
REMARK 921   NORMALIZED FREE ENERGY PREDICTED BY IDOCK:   -4.18 KCAL/MOL
REMARK 922        TOTAL FREE ENERGY PREDICTED BY IDOCK:   -7.53 KCAL/MOL
REMARK 923 INTER-LIGAND FREE ENERGY PREDICTED BY IDOCK:   -5.51 KCAL/MOL
REMARK 924 INTRA-LIGAND FREE ENERGY PREDICTED BY IDOCK:   -2.02 KCAL/MOL
REMARK 927      BINDING AFFINITY PREDICTED BY RF-SCORE:    0.00 PKD
ROOT
HETATM    1  C   UNL     1      -7.072   7.658  69.533  1.00  0.00    -0.064 C  
HETATM    2  S   UNL     1      -7.152   8.742  70.933  1.00  0.00    -0.085 SA 
HETATM    3  C   UNL     1      -8.932   8.985  71.183  1.00  0.00    -0.235 C  
HETATM    4  C   UNL     1      -9.904   8.233  70.319  1.00  0.00    -0.186 C  
HETATM    5  CA  UNL     1      -6.399   7.860  68.094  1.00  0.00    -0.050 C  
HETATM    6  CA  UNL     1      -9.587   7.446  69.274  1.00  0.00    -0.154 C  
HETATM    7  C   UNL     1      -7.676   7.094  67.648  1.00  0.00    -0.112 C  
HETATM    8  C   UNL     1     -10.664   6.686  68.553  1.00  0.00    -0.256 C  
HETATM    9  N   UNL     1      -8.283   7.371  68.819  1.00  0.00    -0.128 N  
HETATM   10  OXT UNL     1     -11.605   6.195  69.158  1.00  0.00    -0.287 OA 
HETATM   11  O   UNL     1      -8.102   6.647  66.624  1.00  0.00    -0.107 OA 
HETATM   12  O   UNL     1     -10.541   6.538  67.226  1.00  0.00    -0.229 OA 
ENDROOT
BRANCH   4  13
HETATM   13  C   UNL     1     -11.353   8.582  70.672  1.00  0.00    -0.241 C  
BRANCH  13  14
HETATM   14  O   UNL     1     -11.450   9.765  71.490  1.00  0.00    -0.378 OA 
BRANCH  14  15
HETATM   15  C   UNL     1     -12.689  10.225  71.755  1.00  0.00    -0.433 C  
HETATM   16  O   UNL     1     -13.580   9.630  72.340  1.00  0.00    -0.433 OA 
HETATM   17  N   UNL     1     -12.848  11.462  71.226  1.00  0.00    -0.407 N  
HETATM   18  H2  UNL     1     -12.135  11.971  70.704  1.00  0.00     0.000 HD 
HETATM   19  H1  UNL     1     -13.786  11.809  71.427  1.00  0.00     0.000 HD 
ENDBRANCH  14  15
ENDBRANCH  13  14
ENDBRANCH   4  13
BRANCH   5  20
HETATM   20  N   UNL     1      -6.160   9.048  67.181  1.00  0.00    -0.057 N  
HETATM   21  H   UNL     1      -5.385   8.886  66.539  1.00  0.00     0.000 HD 
HETATM   22  C   UNL     1      -6.740  10.317  67.000  1.00  0.00    -0.079 C  
HETATM   23  O   UNL     1      -6.331  11.011  66.082  1.00  0.00    -0.132 OA 
BRANCH  22  24
HETATM   24  C   UNL     1      -7.702  10.934  68.002  1.00  0.00    -0.101 C  
BRANCH  24  25
HETATM   25  C   UNL     1      -9.135  10.924  67.732  1.00  0.00    -0.149 A  
HETATM   26  O   UNL     1     -10.016  11.685  68.454  1.00  0.00    -0.191 OA 
HETATM   27  C   UNL     1      -9.861  10.018  66.967  1.00  0.00    -0.238 A  
HETATM   28  C   UNL     1     -11.263  11.180  68.232  1.00  0.00    -0.279 A  
HETATM   29  C   UNL     1     -11.218  10.143  67.332  1.00  0.00    -0.080 A  
ENDBRANCH  24  25
BRANCH  24  30
HETATM   30  N   UNL     1      -7.384  11.668  69.027  1.00  0.00    -0.217 NA 
HETATM   31  H   UNL     1      -8.132  11.915  69.675  1.00  0.00     0.000 HD 
BRANCH  30  32
HETATM   32  O   UNL     1      -6.107  12.143  69.314  1.00  0.00    -0.074 OA 
HETATM   33  C   UNL     1      -5.817  12.762  70.546  1.00  0.00    -0.132 C  
ENDBRANCH  30  32
ENDBRANCH  24  30
ENDBRANCH  22  24
ENDBRANCH   5  20
TORSDOF 8
ENDMDL
MODEL      192
REMARK 921   NORMALIZED FREE ENERGY PREDICTED BY IDOCK:   -4.18 KCAL/MOL
REMARK 922        TOTAL FREE ENERGY PREDICTED BY IDOCK:   -7.53 KCAL/MOL
REMARK 923 INTER-LIGAND FREE ENERGY PREDICTED BY IDOCK:   -6.75 KCAL/MOL
REMARK 924 INTRA-LIGAND FREE ENERGY PREDICTED BY IDOCK:   -0.77 KCAL/MOL
REMARK 927      BINDING AFFINITY PREDICTED BY RF-SCORE:    0.00 PKD
ROOT
HETATM    1  C   UNL     1      -9.689  14.689  65.637  1.00  0.00    -0.266 C  
HETATM    2  S   UNL     1      -8.480  13.781  66.563  1.00  0.00     0.516 SA 
HETATM    3  C   UNL     1      -8.962  12.050  66.308  1.00  0.00    -0.129 C  
HETATM    4  C   UNL     1     -10.106  11.734  65.388  1.00  0.00    -0.291 C  
HETATM    5  CA  UNL     1     -10.755  15.787  66.109  1.00  0.00    -0.290 C  
HETATM    6  CA  UNL     1     -10.908  12.633  64.787  1.00  0.00    -0.302 C  
HETATM    7  C   UNL     1     -11.634  15.044  65.066  1.00  0.00    -0.332 C  
HETATM    8  C   UNL     1     -11.961  12.170  63.821  1.00  0.00    -0.513 C  
HETATM    9  N   UNL     1     -10.809  13.978  65.091  1.00  0.00    -0.346 N  
HETATM   10  OXT UNL     1     -11.756  11.238  63.058  1.00  0.00     0.101 OA 
HETATM   11  O   UNL     1     -12.723  15.188  64.594  1.00  0.00    -0.262 OA 
HETATM   12  O   UNL     1     -13.126  12.835  63.802  1.00  0.00    -0.544 OA 
ENDROOT
BRANCH   4  13
HETATM   13  C   UNL     1     -10.366  10.226  65.317  1.00  0.00    -0.148 C  
BRANCH  13  14
HETATM   14  O   UNL     1      -9.491   9.475  66.181  1.00  0.00    -0.184 OA 
BRANCH  14  15
HETATM   15  C   UNL     1      -8.898   8.386  65.653  1.00  0.00    -0.156 C  
HETATM   16  O   UNL     1      -8.137   8.358  64.698  1.00  0.00    -0.142 OA 
HETATM   17  N   UNL     1      -9.306   7.272  66.306  1.00  0.00    -0.320 N  
HETATM   18  H2  UNL     1      -9.966   7.260  67.084  1.00  0.00     0.000 HD 
HETATM   19  H1  UNL     1      -8.858   6.448  65.906  1.00  0.00     0.000 HD 
ENDBRANCH  14  15
ENDBRANCH  13  14
ENDBRANCH   4  13
BRANCH   5  20
HETATM   20  N   UNL     1     -11.549  16.033  67.378  1.00  0.00     0.115 N  
HETATM   21  H   UNL     1     -12.098  16.890  67.324  1.00  0.00     0.000 HD 
HETATM   22  C   UNL     1     -11.716  15.374  68.610  1.00  0.00    -0.354 C  
HETATM   23  O   UNL     1     -12.527  15.830  69.401  1.00  0.00    -0.162 OA 
BRANCH  22  24
HETATM   24  C   UNL     1     -10.803  14.251  69.074  1.00  0.00    -0.255 C  
BRANCH  24  25
HETATM   25  C   UNL     1     -11.369  12.953  69.420  1.00  0.00    -0.201 A  
HETATM   26  O   UNL     1     -12.261  12.800  70.448  1.00  0.00    -0.350 OA 
HETATM   27  C   UNL     1     -10.944  11.693  69.014  1.00  0.00    -0.283 A  
HETATM   28  C   UNL     1     -12.298  11.471  70.756  1.00  0.00    -0.375 A  
HETATM   29  C   UNL     1     -11.494  10.749  69.909  1.00  0.00    -0.398 A  
ENDBRANCH  24  25
BRANCH  24  30
HETATM   30  N   UNL     1      -9.548  14.359  69.395  1.00  0.00    -0.404 NA 
HETATM   31  H   UNL     1      -8.979  13.514  69.349  1.00  0.00     0.000 HD 
BRANCH  30  32
HETATM   32  O   UNL     1      -8.915  15.533  69.797  1.00  0.00    -0.240 OA 
HETATM   33  C   UNL     1      -7.947  16.156  68.986  1.00  0.00    -0.236 C  
ENDBRANCH  30  32
ENDBRANCH  24  30
ENDBRANCH  22  24
ENDBRANCH   5  20
TORSDOF 8
ENDMDL
MODEL      193
REMARK 921   NORMALIZED FREE ENERGY PREDICTED BY IDOCK:   -4.17 KCAL/MOL
REMARK 922        TOTAL FREE ENERGY PREDICTED BY IDOCK:   -7.52 KCAL/MOL
REMARK 923 INTER-LIGAND FREE ENERGY PREDICTED BY IDOCK:   -6.56 KCAL/MOL
REMARK 924 INTRA-LIGAND FREE ENERGY PREDICTED BY IDOCK:   -0.96 KCAL/MOL
REMARK 927      BINDING AFFINITY PREDICTED BY RF-SCORE:    0.00 PKD
ROOT
HETATM    1  C   UNL     1      -7.478  10.307  68.044  1.00  0.00    -0.087 C  
HETATM    2  S   UNL     1      -7.584  10.456  66.281  1.00  0.00    -0.132 SA 
HETATM    3  C   UNL     1      -9.315  10.920  65.995  1.00  0.00    -0.190 C  
HETATM    4  C   UNL     1     -10.214  11.160  67.174  1.00  0.00    -0.235 C  
HETATM    5  CA  UNL     1      -7.095   9.053  68.964  1.00  0.00    -0.064 C  
HETATM    6  CA  UNL     1      -9.893  10.963  68.467  1.00  0.00    -0.184 C  
HETATM    7  C   UNL     1      -8.221   9.655  69.850  1.00  0.00    -0.174 C  
HETATM    8  C   UNL     1     -10.870  11.330  69.547  1.00  0.00    -0.151 C  
HETATM    9  N   UNL     1      -8.690  10.375  68.811  1.00  0.00    -0.137 N  
HETATM   10  OXT UNL     1     -11.575  12.323  69.453  1.00  0.00    -0.284 OA 
HETATM   11  O   UNL     1      -8.687   9.427  70.927  1.00  0.00    -0.213 OA 
HETATM   12  O   UNL     1     -10.921  10.546  70.635  1.00  0.00    -0.237 OA 
ENDROOT
BRANCH   4  13
HETATM   13  C   UNL     1     -11.634  11.526  66.729  1.00  0.00    -0.051 C  
BRANCH  13  14
HETATM   14  O   UNL     1     -11.710  12.850  66.166  1.00  0.00    -0.355 OA 
BRANCH  14  15
HETATM   15  C   UNL     1     -12.251  12.960  64.937  1.00  0.00    -0.453 C  
HETATM   16  O   UNL     1     -13.167  12.295  64.478  1.00  0.00    -0.799 OA 
HETATM   17  N   UNL     1     -11.594  13.905  64.223  1.00  0.00    -0.541 N  
HETATM   18  H2  UNL     1     -10.805  14.453  64.566  1.00  0.00     0.000 HD 
HETATM   19  H1  UNL     1     -12.004  13.989  63.293  1.00  0.00     0.000 HD 
ENDBRANCH  14  15
ENDBRANCH  13  14
ENDBRANCH   4  13
BRANCH   5  20
HETATM   20  N   UNL     1      -7.268   7.551  68.852  1.00  0.00    -0.080 N  
HETATM   21  H   UNL     1      -6.399   7.085  68.593  1.00  0.00     0.000 HD 
HETATM   22  C   UNL     1      -8.328   6.639  69.015  1.00  0.00    -0.120 C  
HETATM   23  O   UNL     1      -8.081   5.446  68.922  1.00  0.00    -0.092 OA 
BRANCH  22  24
HETATM   24  C   UNL     1      -9.781   7.073  69.105  1.00  0.00    -0.156 C  
BRANCH  24  25
HETATM   25  C   UNL     1     -10.536   6.830  70.329  1.00  0.00    -0.207 A  
HETATM   26  O   UNL     1      -9.935   6.387  71.477  1.00  0.00    -0.179 OA 
HETATM   27  C   UNL     1     -11.913   6.726  70.484  1.00  0.00    -0.385 A  
HETATM   28  C   UNL     1     -10.919   5.902  72.287  1.00  0.00    -0.265 A  
HETATM   29  C   UNL     1     -12.156   6.077  71.714  1.00  0.00    -0.040 A  
ENDBRANCH  24  25
BRANCH  24  30
HETATM   30  N   UNL     1     -10.527   7.485  68.123  1.00  0.00    -0.257 NA 
HETATM   31  H   UNL     1     -11.193   8.230  68.322  1.00  0.00     0.000 HD 
BRANCH  30  32
HETATM   32  O   UNL     1     -10.491   6.991  66.821  1.00  0.00    -0.262 OA 
HETATM   33  C   UNL     1     -10.785   5.643  66.541  1.00  0.00    -0.226 C  
ENDBRANCH  30  32
ENDBRANCH  24  30
ENDBRANCH  22  24
ENDBRANCH   5  20
TORSDOF 8
ENDMDL
MODEL      194
REMARK 921   NORMALIZED FREE ENERGY PREDICTED BY IDOCK:   -4.17 KCAL/MOL
REMARK 922        TOTAL FREE ENERGY PREDICTED BY IDOCK:   -7.52 KCAL/MOL
REMARK 923 INTER-LIGAND FREE ENERGY PREDICTED BY IDOCK:   -6.42 KCAL/MOL
REMARK 924 INTRA-LIGAND FREE ENERGY PREDICTED BY IDOCK:   -1.10 KCAL/MOL
REMARK 927      BINDING AFFINITY PREDICTED BY RF-SCORE:    0.00 PKD
ROOT
HETATM    1  C   UNL     1     -12.527   8.520  71.302  1.00  0.00    -0.249 C  
HETATM    2  S   UNL     1     -13.560   9.532  72.328  1.00  0.00    -0.338 SA 
HETATM    3  C   UNL     1     -13.132  11.223  71.828  1.00  0.00    -0.422 C  
HETATM    4  C   UNL     1     -12.163  11.432  70.700  1.00  0.00    -0.484 C  
HETATM    5  CA  UNL     1     -11.394   7.456  71.689  1.00  0.00    -0.256 C  
HETATM    6  CA  UNL     1     -11.474  10.467  70.061  1.00  0.00    -0.316 C  
HETATM    7  C   UNL     1     -10.707   8.084  70.445  1.00  0.00    -0.233 C  
HETATM    8  C   UNL     1     -10.603  10.819  68.889  1.00  0.00    -0.216 C  
HETATM    9  N   UNL     1     -11.518   9.159  70.506  1.00  0.00    -0.255 N  
HETATM   10  OXT UNL     1     -10.937  11.677  68.086  1.00  0.00    -0.200 OA 
HETATM   11  O   UNL     1      -9.715   7.878  69.810  1.00  0.00    -0.174 OA 
HETATM   12  O   UNL     1      -9.457  10.138  68.737  1.00  0.00    -0.156 OA 
ENDROOT
BRANCH   4  13
HETATM   13  C   UNL     1     -11.921  12.921  70.439  1.00  0.00    -0.249 C  
BRANCH  13  14
HETATM   14  O   UNL     1     -13.145  13.681  70.405  1.00  0.00    -0.045 OA 
BRANCH  14  15
HETATM   15  C   UNL     1     -13.120  14.908  70.960  1.00  0.00    -0.398 C  
HETATM   16  O   UNL     1     -12.409  15.845  70.631  1.00  0.00    -0.395 OA 
HETATM   17  N   UNL     1     -13.978  14.963  72.006  1.00  0.00    -0.440 N  
HETATM   18  H2  UNL     1     -14.560  14.188  72.326  1.00  0.00     0.000 HD 
HETATM   19  H1  UNL     1     -13.959  15.892  72.426  1.00  0.00     0.000 HD 
ENDBRANCH  14  15
ENDBRANCH  13  14
ENDBRANCH   4  13
BRANCH   5  20
HETATM   20  N   UNL     1     -10.394   7.322  72.822  1.00  0.00    -0.217 N  
HETATM   21  H   UNL     1     -10.209   8.216  73.276  1.00  0.00     0.000 HD 
HETATM   22  C   UNL     1      -9.658   6.272  73.403  1.00  0.00    -0.149 C  
HETATM   23  O   UNL     1      -8.984   6.520  74.392  1.00  0.00    -0.146 OA 
BRANCH  22  24
HETATM   24  C   UNL     1      -9.511   4.909  72.749  1.00  0.00    -0.135 C  
BRANCH  24  25
HETATM   25  C   UNL     1      -9.177   4.817  71.332  1.00  0.00    -0.142 A  
HETATM   26  O   UNL     1     -10.125   4.561  70.377  1.00  0.00    -0.224 OA 
HETATM   27  C   UNL     1      -7.920   4.691  70.750  1.00  0.00    -0.076 A  
HETATM   28  C   UNL     1      -9.466   4.164  69.251  1.00  0.00    -0.188 A  
HETATM   29  C   UNL     1      -8.106   4.215  69.435  1.00  0.00    -0.063 A  
ENDBRANCH  24  25
BRANCH  24  30
HETATM   30  N   UNL     1      -9.841   3.763  73.267  1.00  0.00    -0.117 NA 
HETATM   31  H   UNL     1     -10.799   3.445  73.125  1.00  0.00     0.000 HD 
BRANCH  30  32
HETATM   32  O   UNL     1      -8.995   2.935  74.000  1.00  0.00    -0.075 OA 
HETATM   33  C   UNL     1      -8.899   1.558  73.722  1.00  0.00    -0.057 C  
ENDBRANCH  30  32
ENDBRANCH  24  30
ENDBRANCH  22  24
ENDBRANCH   5  20
TORSDOF 8
ENDMDL
MODEL      195
REMARK 921   NORMALIZED FREE ENERGY PREDICTED BY IDOCK:   -4.15 KCAL/MOL
REMARK 922        TOTAL FREE ENERGY PREDICTED BY IDOCK:   -7.48 KCAL/MOL
REMARK 923 INTER-LIGAND FREE ENERGY PREDICTED BY IDOCK:   -6.16 KCAL/MOL
REMARK 924 INTRA-LIGAND FREE ENERGY PREDICTED BY IDOCK:   -1.32 KCAL/MOL
REMARK 927      BINDING AFFINITY PREDICTED BY RF-SCORE:    0.00 PKD
ROOT
HETATM    1  C   UNL     1      -8.277   6.011  69.889  1.00  0.00    -0.118 C  
HETATM    2  S   UNL     1      -8.291   7.735  69.476  1.00  0.00    -0.130 SA 
HETATM    3  C   UNL     1      -9.535   8.432  70.598  1.00  0.00    -0.167 C  
HETATM    4  C   UNL     1     -10.183   7.542  71.620  1.00  0.00    -0.209 C  
HETATM    5  CA  UNL     1      -8.595   4.722  68.993  1.00  0.00    -0.080 C  
HETATM    6  CA  UNL     1     -10.008   6.211  71.733  1.00  0.00    -0.172 C  
HETATM    7  C   UNL     1      -9.251   4.250  70.320  1.00  0.00    -0.133 C  
HETATM    8  C   UNL     1     -10.657   5.463  72.863  1.00  0.00    -0.229 C  
HETATM    9  N   UNL     1      -9.281   5.514  70.787  1.00  0.00    -0.148 N  
HETATM   10  OXT UNL     1     -10.750   5.955  73.977  1.00  0.00    -0.239 OA 
HETATM   11  O   UNL     1      -9.767   3.248  70.720  1.00  0.00    -0.175 OA 
HETATM   12  O   UNL     1     -11.105   4.223  72.614  1.00  0.00    -0.059 OA 
ENDROOT
BRANCH   4  13
HETATM   13  C   UNL     1     -11.211   8.307  72.458  1.00  0.00    -0.376 C  
BRANCH  13  14
HETATM   14  O   UNL     1     -11.679   9.500  71.799  1.00  0.00    -0.383 OA 
BRANCH  14  15
HETATM   15  C   UNL     1     -12.869   9.991  72.197  1.00  0.00    -0.322 C  
HETATM   16  O   UNL     1     -13.250  11.148  72.106  1.00  0.00    -0.481 OA 
HETATM   17  N   UNL     1     -13.604   9.014  72.780  1.00  0.00    -0.845 N  
HETATM   18  H2  UNL     1     -13.300   8.048  72.900  1.00  0.00     0.000 HD 
HETATM   19  H1  UNL     1     -14.504   9.386  73.081  1.00  0.00     0.000 HD 
ENDBRANCH  14  15
ENDBRANCH  13  14
ENDBRANCH   4  13
BRANCH   5  20
HETATM   20  N   UNL     1      -9.518   4.431  67.825  1.00  0.00    -0.153 N  
HETATM   21  H   UNL     1     -10.040   3.565  67.958  1.00  0.00     0.000 HD 
HETATM   22  C   UNL     1      -9.833   5.056  66.604  1.00  0.00    -0.196 C  
HETATM   23  O   UNL     1     -10.716   4.566  65.917  1.00  0.00    -0.267 OA 
BRANCH  22  24
HETATM   24  C   UNL     1      -9.001   6.184  66.018  1.00  0.00    -0.145 C  
BRANCH  24  25
HETATM   25  C   UNL     1      -7.634   5.925  65.580  1.00  0.00    -0.084 A  
HETATM   26  O   UNL     1      -7.186   4.659  65.310  1.00  0.00    -0.065 OA 
HETATM   27  C   UNL     1      -6.538   6.779  65.626  1.00  0.00    -0.051 A  
HETATM   28  C   UNL     1      -5.823   4.705  65.307  1.00  0.00    -0.018 A  
HETATM   29  C   UNL     1      -5.376   5.988  65.511  1.00  0.00    -0.013 A  
ENDBRANCH  24  25
BRANCH  24  30
HETATM   30  N   UNL     1      -9.299   7.449  66.026  1.00  0.00    -0.388 NA 
HETATM   31  H   UNL     1      -8.657   8.084  65.554  1.00  0.00     0.000 HD 
BRANCH  30  32
HETATM   32  O   UNL     1     -10.423   8.009  66.628  1.00  0.00    -0.303 OA 
HETATM   33  C   UNL     1     -10.527   9.399  66.833  1.00  0.00    -0.211 C  
ENDBRANCH  30  32
ENDBRANCH  24  30
ENDBRANCH  22  24
ENDBRANCH   5  20
TORSDOF 8
ENDMDL
MODEL      196
REMARK 921   NORMALIZED FREE ENERGY PREDICTED BY IDOCK:   -4.13 KCAL/MOL
REMARK 922        TOTAL FREE ENERGY PREDICTED BY IDOCK:   -7.45 KCAL/MOL
REMARK 923 INTER-LIGAND FREE ENERGY PREDICTED BY IDOCK:   -5.27 KCAL/MOL
REMARK 924 INTRA-LIGAND FREE ENERGY PREDICTED BY IDOCK:   -2.18 KCAL/MOL
REMARK 927      BINDING AFFINITY PREDICTED BY RF-SCORE:    0.00 PKD
ROOT
HETATM    1  C   UNL     1      -6.736   7.941  70.448  1.00  0.00    -0.038 C  
HETATM    2  S   UNL     1      -7.273   9.626  70.323  1.00  0.00    -0.146 SA 
HETATM    3  C   UNL     1      -9.083   9.500  70.342  1.00  0.00    -0.246 C  
HETATM    4  C   UNL     1      -9.723   8.154  70.534  1.00  0.00    -0.181 C  
HETATM    5  CA  UNL     1      -5.851   7.052  69.452  1.00  0.00    -0.018 C  
HETATM    6  CA  UNL     1      -9.077   6.974  70.596  1.00  0.00    -0.158 C  
HETATM    7  C   UNL     1      -6.862   5.961  69.901  1.00  0.00    -0.064 C  
HETATM    8  C   UNL     1      -9.844   5.714  70.879  1.00  0.00    -0.182 C  
HETATM    9  N   UNL     1      -7.720   6.901  70.347  1.00  0.00    -0.098 N  
HETATM   10  OXT UNL     1     -10.780   5.705  71.665  1.00  0.00    -0.244 OA 
HETATM   11  O   UNL     1      -6.999   4.786  69.726  1.00  0.00    -0.050 OA 
HETATM   12  O   UNL     1      -9.448   4.590  70.262  1.00  0.00    -0.136 OA 
ENDROOT
BRANCH   4  13
HETATM   13  C   UNL     1     -11.251   8.253  70.505  1.00  0.00    -0.239 C  
BRANCH  13  14
HETATM   14  O   UNL     1     -11.787   8.844  71.705  1.00  0.00    -0.311 OA 
BRANCH  14  15
HETATM   15  C   UNL     1     -13.027   8.464  72.072  1.00  0.00    -0.358 C  
HETATM   16  O   UNL     1     -13.899   9.177  72.544  1.00  0.00    -0.475 OA 
HETATM   17  N   UNL     1     -13.177   7.131  71.893  1.00  0.00    -0.532 N  
HETATM   18  H2  UNL     1     -12.457   6.505  71.532  1.00  0.00     0.000 HD 
HETATM   19  H1  UNL     1     -14.116   6.844  72.171  1.00  0.00     0.000 HD 
ENDBRANCH  14  15
ENDBRANCH  13  14
ENDBRANCH   4  13
BRANCH   5  20
HETATM   20  N   UNL     1      -5.660   6.998  67.948  1.00  0.00    -0.019 N  
HETATM   21  H   UNL     1      -4.703   6.757  67.693  1.00  0.00     0.000 HD 
HETATM   22  C   UNL     1      -6.474   7.196  66.817  1.00  0.00    -0.054 C  
HETATM   23  O   UNL     1      -5.992   6.981  65.716  1.00  0.00    -0.034 OA 
BRANCH  22  24
HETATM   24  C   UNL     1      -7.846   7.846  66.893  1.00  0.00    -0.104 C  
BRANCH  24  25
HETATM   25  C   UNL     1      -9.026   7.023  67.130  1.00  0.00    -0.121 A  
HETATM   26  O   UNL     1      -8.967   5.654  67.139  1.00  0.00    -0.114 OA 
HETATM   27  C   UNL     1     -10.362   7.406  67.103  1.00  0.00    -0.377 A  
HETATM   28  C   UNL     1     -10.243   5.195  67.000  1.00  0.00    -0.223 A  
HETATM   29  C   UNL     1     -11.138   6.236  66.960  1.00  0.00    -0.379 A  
ENDBRANCH  24  25
BRANCH  24  30
HETATM   30  N   UNL     1      -8.138   9.073  66.576  1.00  0.00    -0.110 NA 
HETATM   31  H   UNL     1      -8.040   9.780  67.304  1.00  0.00     0.000 HD 
BRANCH  30  32
HETATM   32  O   UNL     1      -8.574   9.500  65.324  1.00  0.00    -0.138 OA 
HETATM   33  C   UNL     1      -7.695   9.561  64.226  1.00  0.00    -0.124 C  
ENDBRANCH  30  32
ENDBRANCH  24  30
ENDBRANCH  22  24
ENDBRANCH   5  20
TORSDOF 8
ENDMDL
MODEL      197
REMARK 921   NORMALIZED FREE ENERGY PREDICTED BY IDOCK:   -4.12 KCAL/MOL
REMARK 922        TOTAL FREE ENERGY PREDICTED BY IDOCK:   -7.45 KCAL/MOL
REMARK 923 INTER-LIGAND FREE ENERGY PREDICTED BY IDOCK:   -6.36 KCAL/MOL
REMARK 924 INTRA-LIGAND FREE ENERGY PREDICTED BY IDOCK:   -1.09 KCAL/MOL
REMARK 927      BINDING AFFINITY PREDICTED BY RF-SCORE:    0.00 PKD
ROOT
HETATM    1  C   UNL     1     -11.108   6.129  69.144  1.00  0.00    -0.378 C  
HETATM    2  S   UNL     1     -10.950   6.356  67.394  1.00  0.00    -0.330 SA 
HETATM    3  C   UNL     1      -9.913   4.961  66.874  1.00  0.00    -0.217 C  
HETATM    4  C   UNL     1      -9.505   3.932  67.889  1.00  0.00    -0.227 C  
HETATM    5  CA  UNL     1     -10.678   7.075  70.363  1.00  0.00    -0.234 C  
HETATM    6  CA  UNL     1      -9.748   3.988  69.213  1.00  0.00    -0.120 C  
HETATM    7  C   UNL     1     -10.302   5.705  70.991  1.00  0.00    -0.233 C  
HETATM    8  C   UNL     1      -9.353   2.839  70.096  1.00  0.00    -0.129 C  
HETATM    9  N   UNL     1     -10.311   5.116  69.777  1.00  0.00    -0.285 N  
HETATM   10  OXT UNL     1      -9.452   1.683  69.715  1.00  0.00    -0.101 OA 
HETATM   11  O   UNL     1      -9.910   5.320  72.052  1.00  0.00    -0.165 OA 
HETATM   12  O   UNL     1      -8.915   3.125  71.332  1.00  0.00    -0.084 OA 
ENDROOT
BRANCH   4  13
HETATM   13  C   UNL     1      -8.623   2.848  67.263  1.00  0.00    -0.104 C  
BRANCH  13  14
HETATM   14  O   UNL     1      -8.177   3.198  65.938  1.00  0.00    -0.091 OA 
BRANCH  14  15
HETATM   15  C   UNL     1      -8.298   2.255  64.983  1.00  0.00    -0.090 C  
HETATM   16  O   UNL     1      -7.446   1.921  64.174  1.00  0.00    -0.056 OA 
HETATM   17  N   UNL     1      -9.549   1.737  64.997  1.00  0.00    -0.332 N  
HETATM   18  H2  UNL     1     -10.291   2.019  65.637  1.00  0.00     0.000 HD 
HETATM   19  H1  UNL     1      -9.640   1.024  64.273  1.00  0.00     0.000 HD 
ENDBRANCH  14  15
ENDBRANCH  13  14
ENDBRANCH   4  13
BRANCH   5  20
HETATM   20  N   UNL     1      -9.564   8.078  70.598  1.00  0.00    -0.166 N  
HETATM   21  H   UNL     1      -8.803   7.681  71.148  1.00  0.00     0.000 HD 
HETATM   22  C   UNL     1      -9.319   9.419  70.247  1.00  0.00    -0.252 C  
HETATM   23  O   UNL     1      -8.239   9.904  70.547  1.00  0.00    -0.206 OA 
BRANCH  22  24
HETATM   24  C   UNL     1     -10.397  10.336  69.693  1.00  0.00    -0.248 C  
BRANCH  24  25
HETATM   25  C   UNL     1     -10.269  10.872  68.343  1.00  0.00    -0.178 A  
HETATM   26  O   UNL     1     -11.261  11.617  67.761  1.00  0.00    -0.230 OA 
HETATM   27  C   UNL     1      -9.343  10.530  67.365  1.00  0.00    -0.158 A  
HETATM   28  C   UNL     1     -11.017  11.634  66.419  1.00  0.00    -0.295 A  
HETATM   29  C   UNL     1      -9.853  10.967  66.124  1.00  0.00    -0.268 A  
ENDBRANCH  24  25
BRANCH  24  30
HETATM   30  N   UNL     1     -11.369  10.878  70.365  1.00  0.00    -0.446 NA 
HETATM   31  H   UNL     1     -11.742  11.761  70.018  1.00  0.00     0.000 HD 
BRANCH  30  32
HETATM   32  O   UNL     1     -11.945  10.351  71.519  1.00  0.00    -0.333 OA 
HETATM   33  C   UNL     1     -13.230   9.777  71.498  1.00  0.00    -0.404 C  
ENDBRANCH  30  32
ENDBRANCH  24  30
ENDBRANCH  22  24
ENDBRANCH   5  20
TORSDOF 8
ENDMDL
MODEL      198
REMARK 921   NORMALIZED FREE ENERGY PREDICTED BY IDOCK:   -4.12 KCAL/MOL
REMARK 922        TOTAL FREE ENERGY PREDICTED BY IDOCK:   -7.44 KCAL/MOL
REMARK 923 INTER-LIGAND FREE ENERGY PREDICTED BY IDOCK:   -6.39 KCAL/MOL
REMARK 924 INTRA-LIGAND FREE ENERGY PREDICTED BY IDOCK:   -1.05 KCAL/MOL
REMARK 927      BINDING AFFINITY PREDICTED BY RF-SCORE:    0.00 PKD
ROOT
HETATM    1  C   UNL     1     -10.464   8.874  68.839  1.00  0.00    -0.205 C  
HETATM    2  S   UNL     1     -10.412   8.333  67.152  1.00  0.00    -0.275 SA 
HETATM    3  C   UNL     1      -9.678   6.677  67.257  1.00  0.00    -0.134 C  
HETATM    4  C   UNL     1      -9.373   6.094  68.607  1.00  0.00    -0.121 C  
HETATM    5  CA  UNL     1      -9.779  10.133  69.553  1.00  0.00    -0.229 C  
HETATM    6  CA  UNL     1      -9.495   6.729  69.788  1.00  0.00    -0.144 C  
HETATM    7  C   UNL     1      -9.597   9.093  70.693  1.00  0.00    -0.255 C  
HETATM    8  C   UNL     1      -9.234   5.988  71.069  1.00  0.00    -0.157 C  
HETATM    9  N   UNL     1      -9.806   8.075  69.834  1.00  0.00    -0.184 N  
HETATM   10  OXT UNL     1      -9.563   4.819  71.202  1.00  0.00    -0.151 OA 
HETATM   11  O   UNL     1      -9.192   9.107  71.817  1.00  0.00    -0.338 OA 
HETATM   12  O   UNL     1      -8.654   6.663  72.073  1.00  0.00    -0.123 OA 
ENDROOT
BRANCH   4  13
HETATM   13  C   UNL     1      -8.747   4.701  68.486  1.00  0.00    -0.098 C  
BRANCH  13  14
HETATM   14  O   UNL     1      -8.582   4.289  67.115  1.00  0.00    -0.103 OA 
BRANCH  14  15
HETATM   15  C   UNL     1      -9.242   3.180  66.728  1.00  0.00    -0.154 C  
HETATM   16  O   UNL     1      -9.211   2.085  67.267  1.00  0.00    -0.136 OA 
HETATM   17  N   UNL     1      -9.932   3.424  65.589  1.00  0.00    -0.398 N  
HETATM   18  H2  UNL     1      -9.951   4.317  65.097  1.00  0.00     0.000 HD 
HETATM   19  H1  UNL     1     -10.431   2.584  65.295  1.00  0.00     0.000 HD 
ENDBRANCH  14  15
ENDBRANCH  13  14
ENDBRANCH   4  13
BRANCH   5  20
HETATM   20  N   UNL     1      -8.493  10.911  69.348  1.00  0.00    -0.381 N  
HETATM   21  H   UNL     1      -7.854  10.805  70.135  1.00  0.00     0.000 HD 
HETATM   22  C   UNL     1      -7.962  11.742  68.344  1.00  0.00    -0.147 C  
HETATM   23  O   UNL     1      -6.818  12.149  68.479  1.00  0.00    -0.074 OA 
BRANCH  22  24
HETATM   24  C   UNL     1      -8.803  12.307  67.212  1.00  0.00    -0.190 C  
BRANCH  24  25
HETATM   25  C   UNL     1      -9.898  13.224  67.511  1.00  0.00    -0.220 A  
HETATM   26  O   UNL     1     -11.060  12.800  68.099  1.00  0.00    -0.231 OA 
HETATM   27  C   UNL     1     -10.088  14.519  67.043  1.00  0.00    -0.254 A  
HETATM   28  C   UNL     1     -11.994  13.772  67.894  1.00  0.00    -0.356 A  
HETATM   29  C   UNL     1     -11.447  14.847  67.236  1.00  0.00    -0.350 A  
ENDBRANCH  24  25
BRANCH  24  30
HETATM   30  N   UNL     1      -8.792  11.918  65.972  1.00  0.00    -0.395 NA 
HETATM   31  H   UNL     1      -7.883  11.772  65.536  1.00  0.00     0.000 HD 
BRANCH  30  32
HETATM   32  O   UNL     1      -9.920  11.684  65.189  1.00  0.00    -0.245 OA 
HETATM   33  C   UNL     1      -9.915  10.711  64.171  1.00  0.00    -0.342 C  
ENDBRANCH  30  32
ENDBRANCH  24  30
ENDBRANCH  22  24
ENDBRANCH   5  20
TORSDOF 8
ENDMDL
MODEL      199
REMARK 921   NORMALIZED FREE ENERGY PREDICTED BY IDOCK:   -4.11 KCAL/MOL
REMARK 922        TOTAL FREE ENERGY PREDICTED BY IDOCK:   -7.43 KCAL/MOL
REMARK 923 INTER-LIGAND FREE ENERGY PREDICTED BY IDOCK:   -5.39 KCAL/MOL
REMARK 924 INTRA-LIGAND FREE ENERGY PREDICTED BY IDOCK:   -2.05 KCAL/MOL
REMARK 927      BINDING AFFINITY PREDICTED BY RF-SCORE:    0.00 PKD
ROOT
HETATM    1  C   UNL     1      -8.876   8.478  72.156  1.00  0.00    -0.216 C  
HETATM    2  S   UNL     1      -8.346   7.133  73.181  1.00  0.00    -0.115 SA 
HETATM    3  C   UNL     1      -7.548   5.995  72.014  1.00  0.00    -0.097 C  
HETATM    4  C   UNL     1      -7.412   6.398  70.573  1.00  0.00    -0.091 C  
HETATM    5  CA  UNL     1     -10.341   9.063  71.877  1.00  0.00    -0.287 C  
HETATM    6  CA  UNL     1      -7.927   7.508  70.011  1.00  0.00    -0.112 C  
HETATM    7  C   UNL     1      -9.757   9.205  70.443  1.00  0.00    -0.221 C  
HETATM    8  C   UNL     1      -7.635   7.824  68.572  1.00  0.00    -0.105 C  
HETATM    9  N   UNL     1      -8.767   8.336  70.731  1.00  0.00    -0.133 N  
HETATM   10  OXT UNL     1      -6.540   7.592  68.082  1.00  0.00    -0.051 OA 
HETATM   11  O   UNL     1     -10.123   9.669  69.404  1.00  0.00    -0.181 OA 
HETATM   12  O   UNL     1      -8.609   8.398  67.849  1.00  0.00    -0.130 OA 
ENDROOT
BRANCH   4  13
HETATM   13  C   UNL     1      -6.729   5.303  69.749  1.00  0.00    -0.051 C  
BRANCH  13  14
HETATM   14  O   UNL     1      -7.674   4.401  69.141  1.00  0.00    -0.055 OA 
BRANCH  14  15
HETATM   15  C   UNL     1      -7.510   4.135  67.831  1.00  0.00    -0.068 C  
HETATM   16  O   UNL     1      -8.387   3.872  67.022  1.00  0.00    -0.099 OA 
HETATM   17  N   UNL     1      -6.193   4.145  67.516  1.00  0.00    -0.035 N  
HETATM   18  H2  UNL     1      -5.436   4.328  68.175  1.00  0.00     0.000 HD 
HETATM   19  H1  UNL     1      -6.069   3.943  66.524  1.00  0.00     0.000 HD 
ENDBRANCH  14  15
ENDBRANCH  13  14
ENDBRANCH   4  13
BRANCH   5  20
HETATM   20  N   UNL     1     -11.736   8.470  71.814  1.00  0.00    -0.304 N  
HETATM   21  H   UNL     1     -12.427   9.075  72.257  1.00  0.00     0.000 HD 
HETATM   22  C   UNL     1     -12.314   7.296  71.298  1.00  0.00    -0.366 C  
HETATM   23  O   UNL     1     -13.529   7.179  71.354  1.00  0.00    -0.380 OA 
BRANCH  22  24
HETATM   24  C   UNL     1     -11.491   6.097  70.858  1.00  0.00    -0.248 C  
BRANCH  24  25
HETATM   25  C   UNL     1     -10.947   5.185  71.858  1.00  0.00    -0.042 A  
HETATM   26  O   UNL     1     -10.146   4.127  71.517  1.00  0.00    -0.179 OA 
HETATM   27  C   UNL     1     -11.326   5.040  73.187  1.00  0.00    -0.397 A  
HETATM   28  C   UNL     1     -10.126   3.276  72.582  1.00  0.00    -0.160 A  
HETATM   29  C   UNL     1     -10.849   3.788  73.632  1.00  0.00    -0.329 A  
ENDBRANCH  24  25
BRANCH  24  30
HETATM   30  N   UNL     1     -11.032   5.871  69.663  1.00  0.00    -0.376 NA 
HETATM   31  H   UNL     1     -10.440   5.051  69.536  1.00  0.00     0.000 HD 
BRANCH  30  32
HETATM   32  O   UNL     1     -11.282   6.657  68.541  1.00  0.00    -0.235 OA 
HETATM   33  C   UNL     1     -11.019   6.182  67.241  1.00  0.00    -0.326 C  
ENDBRANCH  30  32
ENDBRANCH  24  30
ENDBRANCH  22  24
ENDBRANCH   5  20
TORSDOF 8
ENDMDL
MODEL      200
REMARK 921   NORMALIZED FREE ENERGY PREDICTED BY IDOCK:   -4.11 KCAL/MOL
REMARK 922        TOTAL FREE ENERGY PREDICTED BY IDOCK:   -7.42 KCAL/MOL
REMARK 923 INTER-LIGAND FREE ENERGY PREDICTED BY IDOCK:   -6.09 KCAL/MOL
REMARK 924 INTRA-LIGAND FREE ENERGY PREDICTED BY IDOCK:   -1.33 KCAL/MOL
REMARK 927      BINDING AFFINITY PREDICTED BY RF-SCORE:    0.00 PKD
ROOT
HETATM    1  C   UNL     1     -10.165   8.572  67.061  1.00  0.00    -0.301 C  
HETATM    2  S   UNL     1      -9.170   9.358  65.822  1.00  0.00    -0.236 SA 
HETATM    3  C   UNL     1      -8.385   7.968  64.960  1.00  0.00    -0.113 C  
HETATM    4  C   UNL     1      -8.753   6.563  65.344  1.00  0.00    -0.020 C  
HETATM    5  CA  UNL     1     -10.126   8.687  68.658  1.00  0.00    -0.190 C  
HETATM    6  CA  UNL     1      -9.556   6.208  66.366  1.00  0.00    -0.127 C  
HETATM    7  C   UNL     1     -10.428   7.167  68.542  1.00  0.00    -0.204 C  
HETATM    8  C   UNL     1      -9.904   4.763  66.578  1.00  0.00    -0.217 C  
HETATM    9  N   UNL     1     -10.022   7.157  67.257  1.00  0.00    -0.169 N  
HETATM   10  OXT UNL     1     -10.095   4.012  65.634  1.00  0.00    -0.184 OA 
HETATM   11  O   UNL     1     -10.673   6.275  69.300  1.00  0.00    -0.237 OA 
HETATM   12  O   UNL     1     -10.028   4.330  67.842  1.00  0.00    -0.105 OA 
ENDROOT
BRANCH   4  13
HETATM   13  C   UNL     1      -7.977   5.535  64.516  1.00  0.00    -0.119 C  
BRANCH  13  14
HETATM   14  O   UNL     1      -6.661   5.282  65.046  1.00  0.00    -0.046 OA 
BRANCH  14  15
HETATM   15  C   UNL     1      -6.454   4.080  65.619  1.00  0.00    -0.036 C  
HETATM   16  O   UNL     1      -6.586   2.987  65.092  1.00  0.00    -0.034 OA 
HETATM   17  N   UNL     1      -6.115   4.237  66.920  1.00  0.00    -0.030 N  
HETATM   18  H2  UNL     1      -6.029   5.135  67.397  1.00  0.00     0.000 HD 
HETATM   19  H1  UNL     1      -5.959   3.327  67.354  1.00  0.00     0.000 HD 
ENDBRANCH  14  15
ENDBRANCH  13  14
ENDBRANCH   4  13
BRANCH   5  20
HETATM   20  N   UNL     1      -9.039   8.924  69.688  1.00  0.00    -0.147 N  
HETATM   21  H   UNL     1      -8.124   9.051  69.255  1.00  0.00     0.000 HD 
HETATM   22  C   UNL     1      -8.976   9.013  71.091  1.00  0.00    -0.235 C  
HETATM   23  O   UNL     1      -7.906   9.306  71.602  1.00  0.00    -0.329 OA 
BRANCH  22  24
HETATM   24  C   UNL     1     -10.114   8.573  71.996  1.00  0.00    -0.316 C  
BRANCH  24  25
HETATM   25  C   UNL     1     -11.456   9.102  71.782  1.00  0.00    -0.381 A  
HETATM   26  O   UNL     1     -11.670  10.349  71.255  1.00  0.00    -0.338 OA 
HETATM   27  C   UNL     1     -12.661   8.625  72.286  1.00  0.00    -0.457 A  
HETATM   28  C   UNL     1     -12.961  10.689  71.535  1.00  0.00    -0.461 A  
HETATM   29  C   UNL     1     -13.609   9.665  72.181  1.00  0.00    -0.471 A  
ENDBRANCH  24  25
BRANCH  24  30
HETATM   30  N   UNL     1     -10.006   7.899  73.102  1.00  0.00    -0.297 NA 
HETATM   31  H   UNL     1      -9.962   8.430  73.971  1.00  0.00     0.000 HD 
BRANCH  30  32
HETATM   32  O   UNL     1      -9.946   6.511  73.199  1.00  0.00    -0.164 OA 
HETATM   33  C   UNL     1      -8.844   5.867  73.793  1.00  0.00    -0.124 C  
ENDBRANCH  30  32
ENDBRANCH  24  30
ENDBRANCH  22  24
ENDBRANCH   5  20
TORSDOF 8
ENDMDL
MODEL      201
REMARK 921   NORMALIZED FREE ENERGY PREDICTED BY IDOCK:   -4.09 KCAL/MOL
REMARK 922        TOTAL FREE ENERGY PREDICTED BY IDOCK:   -7.40 KCAL/MOL
REMARK 923 INTER-LIGAND FREE ENERGY PREDICTED BY IDOCK:   -4.99 KCAL/MOL
REMARK 924 INTRA-LIGAND FREE ENERGY PREDICTED BY IDOCK:   -2.41 KCAL/MOL
REMARK 927      BINDING AFFINITY PREDICTED BY RF-SCORE:    0.00 PKD
ROOT
HETATM    1  C   UNL     1     -11.303   7.574  70.214  1.00  0.00    -0.199 C  
HETATM    2  S   UNL     1     -10.930   8.982  71.224  1.00  0.00    -0.344 SA 
HETATM    3  C   UNL     1      -9.921  10.030  70.139  1.00  0.00    -0.184 C  
HETATM    4  C   UNL     1      -9.693   9.607  68.715  1.00  0.00    -0.167 C  
HETATM    5  CA  UNL     1     -10.965   6.022  70.421  1.00  0.00    -0.328 C  
HETATM    6  CA  UNL     1     -10.086   8.443  68.164  1.00  0.00    -0.200 C  
HETATM    7  C   UNL     1     -10.744   6.105  68.885  1.00  0.00    -0.312 C  
HETATM    8  C   UNL     1      -9.863   8.193  66.700  1.00  0.00    -0.261 C  
HETATM    9  N   UNL     1     -10.645   7.448  68.945  1.00  0.00    -0.201 N  
HETATM   10  OXT UNL     1      -9.983   9.090  65.879  1.00  0.00    -0.276 OA 
HETATM   11  O   UNL     1     -10.500   5.334  68.005  1.00  0.00    -0.153 OA 
HETATM   12  O   UNL     1      -9.556   6.944  66.319  1.00  0.00    -0.135 OA 
ENDROOT
BRANCH   4  13
HETATM   13  C   UNL     1      -8.809  10.610  67.969  1.00  0.00    -0.130 C  
BRANCH  13  14
HETATM   14  O   UNL     1      -9.335  11.951  68.018  1.00  0.00    -0.180 OA 
BRANCH  14  15
HETATM   15  C   UNL     1     -10.020  12.378  66.939  1.00  0.00    -0.215 C  
HETATM   16  O   UNL     1     -11.122  12.905  66.935  1.00  0.00    -0.264 OA 
HETATM   17  N   UNL     1      -9.332  12.094  65.808  1.00  0.00    -0.413 N  
HETATM   18  H2  UNL     1      -8.426  11.626  65.778  1.00  0.00     0.000 HD 
HETATM   19  H1  UNL     1      -9.851  12.417  64.992  1.00  0.00     0.000 HD 
ENDBRANCH  14  15
ENDBRANCH  13  14
ENDBRANCH   4  13
BRANCH   5  20
HETATM   20  N   UNL     1      -9.830   5.252  71.069  1.00  0.00    -0.181 N  
HETATM   21  H   UNL     1     -10.166   4.439  71.584  1.00  0.00     0.000 HD 
HETATM   22  C   UNL     1      -8.430   5.378  71.137  1.00  0.00    -0.125 C  
HETATM   23  O   UNL     1      -7.799   4.496  71.700  1.00  0.00    -0.086 OA 
BRANCH  22  24
HETATM   24  C   UNL     1      -7.696   6.642  70.720  1.00  0.00    -0.097 C  
BRANCH  24  25
HETATM   25  C   UNL     1      -6.976   6.677  69.452  1.00  0.00    -0.067 A  
HETATM   26  O   UNL     1      -6.600   7.855  68.863  1.00  0.00    -0.049 OA 
HETATM   27  C   UNL     1      -6.802   5.649  68.532  1.00  0.00    -0.059 A  
HETATM   28  C   UNL     1      -6.311   7.580  67.559  1.00  0.00    -0.056 A  
HETATM   29  C   UNL     1      -6.432   6.236  67.303  1.00  0.00    -0.049 A  
ENDBRANCH  24  25
BRANCH  24  30
HETATM   30  N   UNL     1      -7.460   7.680  71.466  1.00  0.00    -0.077 NA 
HETATM   31  H   UNL     1      -7.966   8.537  71.247  1.00  0.00     0.000 HD 
BRANCH  30  32
HETATM   32  O   UNL     1      -6.574   7.718  72.539  1.00  0.00    -0.058 OA 
HETATM   33  C   UNL     1      -7.012   8.038  73.839  1.00  0.00    -0.125 C  
ENDBRANCH  30  32
ENDBRANCH  24  30
ENDBRANCH  22  24
ENDBRANCH   5  20
TORSDOF 8
ENDMDL
MODEL      202
REMARK 921   NORMALIZED FREE ENERGY PREDICTED BY IDOCK:   -4.08 KCAL/MOL
REMARK 922        TOTAL FREE ENERGY PREDICTED BY IDOCK:   -7.38 KCAL/MOL
REMARK 923 INTER-LIGAND FREE ENERGY PREDICTED BY IDOCK:   -6.14 KCAL/MOL
REMARK 924 INTRA-LIGAND FREE ENERGY PREDICTED BY IDOCK:   -1.24 KCAL/MOL
REMARK 927      BINDING AFFINITY PREDICTED BY RF-SCORE:    0.00 PKD
ROOT
HETATM    1  C   UNL     1      -9.362   8.430  67.680  1.00  0.00    -0.137 C  
HETATM    2  S   UNL     1     -10.135   9.929  67.136  1.00  0.00    -0.228 SA 
HETATM    3  C   UNL     1     -11.124  10.443  68.568  1.00  0.00    -0.266 C  
HETATM    4  C   UNL     1     -11.042   9.648  69.840  1.00  0.00    -0.268 C  
HETATM    5  CA  UNL     1      -9.451   6.940  67.099  1.00  0.00    -0.140 C  
HETATM    6  CA  UNL     1     -10.367   8.495  70.009  1.00  0.00    -0.210 C  
HETATM    7  C   UNL     1      -9.433   6.597  68.615  1.00  0.00    -0.128 C  
HETATM    8  C   UNL     1     -10.303   7.855  71.366  1.00  0.00    -0.198 C  
HETATM    9  N   UNL     1      -9.774   7.862  68.932  1.00  0.00    -0.156 N  
HETATM   10  OXT UNL     1     -10.213   8.529  72.381  1.00  0.00    -0.312 OA 
HETATM   11  O   UNL     1      -9.392   5.601  69.274  1.00  0.00    -0.117 OA 
HETATM   12  O   UNL     1     -10.321   6.515  71.426  1.00  0.00    -0.203 OA 
ENDROOT
BRANCH   4  13
HETATM   13  C   UNL     1     -11.957  10.228  70.922  1.00  0.00    -0.375 C  
BRANCH  13  14
HETATM   14  O   UNL     1     -13.310   9.743  70.817  1.00  0.00    -0.260 OA 
BRANCH  14  15
HETATM   15  C   UNL     1     -13.695   8.810  71.710  1.00  0.00    -0.419 C  
HETATM   16  O   UNL     1     -14.398   7.835  71.491  1.00  0.00    -0.429 OA 
HETATM   17  N   UNL     1     -13.231   9.125  72.942  1.00  0.00    -0.651 N  
HETATM   18  H2  UNL     1     -12.671   9.949  73.162  1.00  0.00     0.000 HD 
HETATM   19  H1  UNL     1     -13.524   8.419  73.617  1.00  0.00     0.000 HD 
ENDBRANCH  14  15
ENDBRANCH  13  14
ENDBRANCH   4  13
BRANCH   5  20
HETATM   20  N   UNL     1     -10.522   6.127  66.395  1.00  0.00    -0.458 N  
HETATM   21  H   UNL     1     -11.408   6.630  66.341  1.00  0.00     0.000 HD 
HETATM   22  C   UNL     1     -10.599   4.855  65.799  1.00  0.00    -0.182 C  
HETATM   23  O   UNL     1     -11.636   4.546  65.233  1.00  0.00     0.071 OA 
BRANCH  22  24
HETATM   24  C   UNL     1      -9.534   3.788  65.995  1.00  0.00    -0.173 C  
BRANCH  24  25
HETATM   25  C   UNL     1      -8.212   3.967  65.407  1.00  0.00    -0.101 A  
HETATM   26  O   UNL     1      -7.209   4.631  66.063  1.00  0.00    -0.073 OA 
HETATM   27  C   UNL     1      -7.825   3.781  64.084  1.00  0.00    -0.085 A  
HETATM   28  C   UNL     1      -6.266   4.958  65.133  1.00  0.00    -0.034 A  
HETATM   29  C   UNL     1      -6.606   4.467  63.896  1.00  0.00    -0.042 A  
ENDBRANCH  24  25
BRANCH  24  30
HETATM   30  N   UNL     1      -9.715   2.597  66.484  1.00  0.00    -0.321 NA 
HETATM   31  H   UNL     1     -10.446   2.025  66.064  1.00  0.00     0.000 HD 
BRANCH  30  32
HETATM   32  O   UNL     1      -8.992   2.039  67.535  1.00  0.00    -0.125 OA 
HETATM   33  C   UNL     1      -8.992   2.625  68.816  1.00  0.00    -0.123 C  
ENDBRANCH  30  32
ENDBRANCH  24  30
ENDBRANCH  22  24
ENDBRANCH   5  20
TORSDOF 8
ENDMDL
MODEL      203
REMARK 921   NORMALIZED FREE ENERGY PREDICTED BY IDOCK:   -4.07 KCAL/MOL
REMARK 922        TOTAL FREE ENERGY PREDICTED BY IDOCK:   -7.38 KCAL/MOL
REMARK 923 INTER-LIGAND FREE ENERGY PREDICTED BY IDOCK:   -5.32 KCAL/MOL
REMARK 924 INTRA-LIGAND FREE ENERGY PREDICTED BY IDOCK:   -2.05 KCAL/MOL
REMARK 927      BINDING AFFINITY PREDICTED BY RF-SCORE:    0.00 PKD
ROOT
HETATM    1  C   UNL     1      -7.000   8.021  69.394  1.00  0.00    -0.055 C  
HETATM    2  S   UNL     1      -7.296   9.191  70.693  1.00  0.00    -0.123 SA 
HETATM    3  C   UNL     1      -9.104   9.329  70.739  1.00  0.00    -0.244 C  
HETATM    4  C   UNL     1      -9.930   8.456  69.838  1.00  0.00    -0.190 C  
HETATM    5  CA  UNL     1      -6.190   8.170  68.020  1.00  0.00    -0.047 C  
HETATM    6  CA  UNL     1      -9.456   7.623  68.893  1.00  0.00    -0.149 C  
HETATM    7  C   UNL     1      -7.364   7.291  67.504  1.00  0.00    -0.092 C  
HETATM    8  C   UNL     1     -10.401   6.745  68.124  1.00  0.00    -0.188 C  
HETATM    9  N   UNL     1      -8.109   7.606  68.582  1.00  0.00    -0.126 N  
HETATM   10  OXT UNL     1     -11.372   6.235  68.663  1.00  0.00    -0.337 OA 
HETATM   11  O   UNL     1      -7.649   6.748  66.478  1.00  0.00    -0.086 OA 
HETATM   12  O   UNL     1     -10.128   6.515  66.831  1.00  0.00    -0.166 OA 
ENDROOT
BRANCH   4  13
HETATM   13  C   UNL     1     -11.427   8.731  70.013  1.00  0.00     0.055 C  
BRANCH  13  14
HETATM   14  O   UNL     1     -11.936   8.232  71.265  1.00  0.00    -0.285 OA 
BRANCH  14  15
HETATM   15  C   UNL     1     -13.187   8.597  71.606  1.00  0.00    -0.346 C  
HETATM   16  O   UNL     1     -13.505   9.529  72.329  1.00  0.00    -0.440 OA 
HETATM   17  N   UNL     1     -14.085   7.738  71.068  1.00  0.00    -0.656 N  
HETATM   18  H2  UNL     1     -13.848   6.932  70.489  1.00  0.00     0.000 HD 
HETATM   19  H1  UNL     1     -15.032   8.015  71.327  1.00  0.00     0.000 HD 
ENDBRANCH  14  15
ENDBRANCH  13  14
ENDBRANCH   4  13
BRANCH   5  20
HETATM   20  N   UNL     1      -5.926   9.306  67.051  1.00  0.00    -0.055 N  
HETATM   21  H   UNL     1      -4.946   9.587  67.051  1.00  0.00     0.000 HD 
HETATM   22  C   UNL     1      -6.695  10.070  66.154  1.00  0.00    -0.100 C  
HETATM   23  O   UNL     1      -6.117  10.880  65.445  1.00  0.00    -0.085 OA 
BRANCH  22  24
HETATM   24  C   UNL     1      -8.214  10.072  66.165  1.00  0.00    -0.121 C  
BRANCH  24  25
HETATM   25  C   UNL     1      -8.930  10.819  67.193  1.00  0.00    -0.141 A  
HETATM   26  O   UNL     1     -10.296  10.789  67.295  1.00  0.00    -0.199 OA 
HETATM   27  C   UNL     1      -8.450  11.838  68.009  1.00  0.00    -0.157 A  
HETATM   28  C   UNL     1     -10.666  11.849  68.068  1.00  0.00    -0.209 A  
HETATM   29  C   UNL     1      -9.566  12.535  68.521  1.00  0.00    -0.114 A  
ENDBRANCH  24  25
BRANCH  24  30
HETATM   30  N   UNL     1      -8.993   9.310  65.458  1.00  0.00    -0.192 NA 
HETATM   31  H   UNL     1      -9.653   8.718  65.962  1.00  0.00     0.000 HD 
BRANCH  30  32
HETATM   32  O   UNL     1      -9.002   9.234  64.067  1.00  0.00    -0.187 OA 
HETATM   33  C   UNL     1      -9.245  10.373  63.274  1.00  0.00    -0.289 C  
ENDBRANCH  30  32
ENDBRANCH  24  30
ENDBRANCH  22  24
ENDBRANCH   5  20
TORSDOF 8
ENDMDL
MODEL      204
REMARK 921   NORMALIZED FREE ENERGY PREDICTED BY IDOCK:   -4.07 KCAL/MOL
REMARK 922        TOTAL FREE ENERGY PREDICTED BY IDOCK:   -7.37 KCAL/MOL
REMARK 923 INTER-LIGAND FREE ENERGY PREDICTED BY IDOCK:   -5.10 KCAL/MOL
REMARK 924 INTRA-LIGAND FREE ENERGY PREDICTED BY IDOCK:   -2.27 KCAL/MOL
REMARK 927      BINDING AFFINITY PREDICTED BY RF-SCORE:    0.00 PKD
ROOT
HETATM    1  C   UNL     1      -6.043   8.642  69.060  1.00  0.00    -0.043 C  
HETATM    2  S   UNL     1      -6.539   9.846  70.262  1.00  0.00    -0.131 SA 
HETATM    3  C   UNL     1      -7.722   8.947  71.304  1.00  0.00    -0.111 C  
HETATM    4  C   UNL     1      -7.964   7.487  71.046  1.00  0.00    -0.095 C  
HETATM    5  CA  UNL     1      -6.176   8.645  67.463  1.00  0.00    -0.053 C  
HETATM    6  CA  UNL     1      -7.457   6.770  70.025  1.00  0.00    -0.094 C  
HETATM    7  C   UNL     1      -6.480   7.143  67.718  1.00  0.00    -0.048 C  
HETATM    8  C   UNL     1      -7.718   5.293  69.944  1.00  0.00    -0.069 C  
HETATM    9  N   UNL     1      -6.741   7.389  69.018  1.00  0.00    -0.051 N  
HETATM   10  OXT UNL     1      -7.750   4.599  70.949  1.00  0.00    -0.069 OA 
HETATM   11  O   UNL     1      -6.668   6.174  67.045  1.00  0.00    -0.056 OA 
HETATM   12  O   UNL     1      -7.886   4.754  68.727  1.00  0.00    -0.075 OA 
ENDROOT
BRANCH   4  13
HETATM   13  C   UNL     1      -9.001   6.913  72.016  1.00  0.00    -0.133 C  
BRANCH  13  14
HETATM   14  O   UNL     1      -9.792   7.939  72.647  1.00  0.00    -0.204 OA 
BRANCH  14  15
HETATM   15  C   UNL     1     -11.131   7.806  72.582  1.00  0.00    -0.376 C  
HETATM   16  O   UNL     1     -11.949   8.702  72.441  1.00  0.00    -0.375 OA 
HETATM   17  N   UNL     1     -11.478   6.508  72.751  1.00  0.00    -0.452 N  
HETATM   18  H2  UNL     1     -10.820   5.743  72.904  1.00  0.00     0.000 HD 
HETATM   19  H1  UNL     1     -12.491   6.407  72.702  1.00  0.00     0.000 HD 
ENDBRANCH  14  15
ENDBRANCH  13  14
ENDBRANCH   4  13
BRANCH   5  20
HETATM   20  N   UNL     1      -7.173   9.217  66.474  1.00  0.00    -0.084 N  
HETATM   21  H   UNL     1      -6.721   9.536  65.617  1.00  0.00     0.000 HD 
HETATM   22  C   UNL     1      -8.566   9.417  66.442  1.00  0.00    -0.134 C  
HETATM   23  O   UNL     1      -9.063   9.844  65.411  1.00  0.00    -0.168 OA 
BRANCH  22  24
HETATM   24  C   UNL     1      -9.442   9.313  67.679  1.00  0.00    -0.132 C  
BRANCH  24  25
HETATM   25  C   UNL     1     -10.256   8.123  67.893  1.00  0.00    -0.218 A  
HETATM   26  O   UNL     1     -10.717   7.772  69.134  1.00  0.00    -0.208 OA 
HETATM   27  C   UNL     1     -10.464   7.055  67.028  1.00  0.00    -0.386 A  
HETATM   28  C   UNL     1     -11.096   6.463  69.069  1.00  0.00    -0.358 A  
HETATM   29  C   UNL     1     -10.947   5.973  67.794  1.00  0.00    -0.333 A  
ENDBRANCH  24  25
BRANCH  24  30
HETATM   30  N   UNL     1      -9.712  10.270  68.516  1.00  0.00    -0.156 NA 
HETATM   31  H   UNL     1      -9.470  10.118  69.495  1.00  0.00     0.000 HD 
BRANCH  30  32
HETATM   32  O   UNL     1     -10.307  11.486  68.187  1.00  0.00    -0.183 OA 
HETATM   33  C   UNL     1     -11.706  11.647  68.213  1.00  0.00    -0.304 C  
ENDBRANCH  30  32
ENDBRANCH  24  30
ENDBRANCH  22  24
ENDBRANCH   5  20
TORSDOF 8
ENDMDL
MODEL      205
REMARK 921   NORMALIZED FREE ENERGY PREDICTED BY IDOCK:   -4.06 KCAL/MOL
REMARK 922        TOTAL FREE ENERGY PREDICTED BY IDOCK:   -7.35 KCAL/MOL
REMARK 923 INTER-LIGAND FREE ENERGY PREDICTED BY IDOCK:   -5.01 KCAL/MOL
REMARK 924 INTRA-LIGAND FREE ENERGY PREDICTED BY IDOCK:   -2.35 KCAL/MOL
REMARK 927      BINDING AFFINITY PREDICTED BY RF-SCORE:    0.00 PKD
ROOT
HETATM    1  C   UNL     1      -7.582   6.910  71.453  1.00  0.00    -0.087 C  
HETATM    2  S   UNL     1      -8.289   5.294  71.269  1.00  0.00    -0.125 SA 
HETATM    3  C   UNL     1      -8.307   5.039  69.473  1.00  0.00    -0.088 C  
HETATM    4  C   UNL     1      -7.701   6.081  68.577  1.00  0.00    -0.095 C  
HETATM    5  CA  UNL     1      -8.182   8.242  72.109  1.00  0.00    -0.157 C  
HETATM    6  CA  UNL     1      -7.219   7.276  68.969  1.00  0.00    -0.089 C  
HETATM    7  C   UNL     1      -7.436   8.890  70.909  1.00  0.00    -0.102 C  
HETATM    8  C   UNL     1      -6.562   8.183  67.968  1.00  0.00    -0.057 C  
HETATM    9  N   UNL     1      -7.370   7.702  70.275  1.00  0.00    -0.070 N  
HETATM   10  OXT UNL     1      -5.860   7.737  67.073  1.00  0.00    -0.041 OA 
HETATM   11  O   UNL     1      -7.212  10.001  70.530  1.00  0.00    -0.246 OA 
HETATM   12  O   UNL     1      -6.747   9.505  68.108  1.00  0.00    -0.061 OA 
ENDROOT
BRANCH   4  13
HETATM   13  C   UNL     1      -7.827   5.691  67.102  1.00  0.00    -0.101 C  
BRANCH  13  14
HETATM   14  O   UNL     1      -9.194   5.699  66.645  1.00  0.00    -0.127 OA 
BRANCH  14  15
HETATM   15  C   UNL     1      -9.701   6.883  66.251  1.00  0.00     0.015 C  
HETATM   16  O   UNL     1      -9.088   7.806  65.736  1.00  0.00    -0.124 OA 
HETATM   17  N   UNL     1     -11.019   6.949  66.553  1.00  0.00    -0.395 N  
HETATM   18  H2  UNL     1     -11.551   6.209  67.012  1.00  0.00     0.000 HD 
HETATM   19  H1  UNL     1     -11.402   7.846  66.255  1.00  0.00     0.000 HD 
ENDBRANCH  14  15
ENDBRANCH  13  14
ENDBRANCH   4  13
BRANCH   5  20
HETATM   20  N   UNL     1      -9.570   8.839  72.242  1.00  0.00    -0.277 N  
HETATM   21  H   UNL     1      -9.838   8.970  73.217  1.00  0.00     0.000 HD 
HETATM   22  C   UNL     1     -10.581   9.257  71.356  1.00  0.00    -0.347 C  
HETATM   23  O   UNL     1     -11.577   9.785  71.826  1.00  0.00    -0.349 OA 
BRANCH  22  24
HETATM   24  C   UNL     1     -10.576   8.907  69.877  1.00  0.00    -0.221 C  
BRANCH  24  25
HETATM   25  C   UNL     1     -10.627   9.971  68.881  1.00  0.00    -0.218 A  
HETATM   26  O   UNL     1     -11.134   9.766  67.625  1.00  0.00    -0.244 OA 
HETATM   27  C   UNL     1      -9.974  11.198  68.897  1.00  0.00    -0.188 A  
HETATM   28  C   UNL     1     -10.699  10.794  66.841  1.00  0.00    -0.252 A  
HETATM   29  C   UNL     1      -9.969  11.696  67.576  1.00  0.00    -0.202 A  
ENDBRANCH  24  25
BRANCH  24  30
HETATM   30  N   UNL     1     -10.727   7.723  69.363  1.00  0.00    -0.332 NA 
HETATM   31  H   UNL     1     -10.070   7.442  68.635  1.00  0.00     0.000 HD 
BRANCH  30  32
HETATM   32  O   UNL     1     -11.712   6.806  69.723  1.00  0.00    -0.270 OA 
HETATM   33  C   UNL     1     -11.824   6.336  71.046  1.00  0.00    -0.154 C  
ENDBRANCH  30  32
ENDBRANCH  24  30
ENDBRANCH  22  24
ENDBRANCH   5  20
TORSDOF 8
ENDMDL
MODEL      206
REMARK 921   NORMALIZED FREE ENERGY PREDICTED BY IDOCK:   -4.06 KCAL/MOL
REMARK 922        TOTAL FREE ENERGY PREDICTED BY IDOCK:   -7.35 KCAL/MOL
REMARK 923 INTER-LIGAND FREE ENERGY PREDICTED BY IDOCK:   -6.23 KCAL/MOL
REMARK 924 INTRA-LIGAND FREE ENERGY PREDICTED BY IDOCK:   -1.12 KCAL/MOL
REMARK 927      BINDING AFFINITY PREDICTED BY RF-SCORE:    0.00 PKD
ROOT
HETATM    1  C   UNL     1     -11.868   8.968  71.083  1.00  0.00    -0.301 C  
HETATM    2  S   UNL     1     -12.859  10.334  71.625  1.00  0.00    -0.481 SA 
HETATM    3  C   UNL     1     -12.503  11.629  70.404  1.00  0.00    -0.221 C  
HETATM    4  C   UNL     1     -11.612  11.312  69.237  1.00  0.00    -0.390 C  
HETATM    5  CA  UNL     1     -10.689   8.176  71.823  1.00  0.00    -0.251 C  
HETATM    6  CA  UNL     1     -10.942  10.160  69.044  1.00  0.00    -0.226 C  
HETATM    7  C   UNL     1     -10.096   8.185  70.386  1.00  0.00    -0.194 C  
HETATM    8  C   UNL     1     -10.155   9.953  67.782  1.00  0.00    -0.180 C  
HETATM    9  N   UNL     1     -10.927   9.183  70.022  1.00  0.00    -0.232 N  
HETATM   10  OXT UNL     1     -10.559  10.371  66.707  1.00  0.00    -0.242 OA 
HETATM   11  O   UNL     1      -9.142   7.714  69.843  1.00  0.00    -0.147 OA 
HETATM   12  O   UNL     1      -9.005   9.267  67.869  1.00  0.00    -0.128 OA 
ENDROOT
BRANCH   4  13
HETATM   13  C   UNL     1     -11.422  12.532  68.331  1.00  0.00    -0.312 C  
BRANCH  13  14
HETATM   14  O   UNL     1     -11.108  13.726  69.075  1.00  0.00    -0.250 OA 
BRANCH  14  15
HETATM   15  C   UNL     1     -10.482  14.715  68.407  1.00  0.00    -0.243 C  
HETATM   16  O   UNL     1      -9.290  14.979  68.442  1.00  0.00    -0.182 OA 
HETATM   17  N   UNL     1     -11.381  15.443  67.704  1.00  0.00    -0.321 N  
HETATM   18  H2  UNL     1     -12.386  15.267  67.682  1.00  0.00     0.000 HD 
HETATM   19  H1  UNL     1     -10.907  16.191  67.199  1.00  0.00     0.000 HD 
ENDBRANCH  14  15
ENDBRANCH  13  14
ENDBRANCH   4  13
BRANCH   5  20
HETATM   20  N   UNL     1      -9.617   8.549  72.829  1.00  0.00    -0.229 N  
HETATM   21  H   UNL     1      -9.639   9.542  73.061  1.00  0.00     0.000 HD 
HETATM   22  C   UNL     1      -8.600   7.868  73.524  1.00  0.00    -0.243 C  
HETATM   23  O   UNL     1      -7.950   8.490  74.350  1.00  0.00    -0.328 OA 
BRANCH  22  24
HETATM   24  C   UNL     1      -8.149   6.464  73.156  1.00  0.00    -0.108 C  
BRANCH  24  25
HETATM   25  C   UNL     1      -8.940   5.314  73.580  1.00  0.00    -0.121 A  
HETATM   26  O   UNL     1      -8.963   4.145  72.866  1.00  0.00    -0.104 OA 
HETATM   27  C   UNL     1      -9.954   5.270  74.530  1.00  0.00    -0.258 A  
HETATM   28  C   UNL     1     -10.050   3.437  73.286  1.00  0.00    -0.136 A  
HETATM   29  C   UNL     1     -10.701   4.095  74.302  1.00  0.00    -0.259 A  
ENDBRANCH  24  25
BRANCH  24  30
HETATM   30  N   UNL     1      -7.000   6.129  72.648  1.00  0.00    -0.074 NA 
HETATM   31  H   UNL     1      -6.469   5.406  73.131  1.00  0.00     0.000 HD 
BRANCH  30  32
HETATM   32  O   UNL     1      -6.436   6.677  71.499  1.00  0.00    -0.041 OA 
HETATM   33  C   UNL     1      -5.845   5.862  70.514  1.00  0.00    -0.025 C  
ENDBRANCH  30  32
ENDBRANCH  24  30
ENDBRANCH  22  24
ENDBRANCH   5  20
TORSDOF 8
ENDMDL
MODEL      207
REMARK 921   NORMALIZED FREE ENERGY PREDICTED BY IDOCK:   -4.06 KCAL/MOL
REMARK 922        TOTAL FREE ENERGY PREDICTED BY IDOCK:   -7.35 KCAL/MOL
REMARK 923 INTER-LIGAND FREE ENERGY PREDICTED BY IDOCK:   -4.91 KCAL/MOL
REMARK 924 INTRA-LIGAND FREE ENERGY PREDICTED BY IDOCK:   -2.44 KCAL/MOL
REMARK 927      BINDING AFFINITY PREDICTED BY RF-SCORE:    0.00 PKD
ROOT
HETATM    1  C   UNL     1      -6.622   6.712  72.044  1.00  0.00    -0.054 C  
HETATM    2  S   UNL     1      -7.166   8.278  72.672  1.00  0.00    -0.079 SA 
HETATM    3  C   UNL     1      -8.973   8.117  72.711  1.00  0.00    -0.246 C  
HETATM    4  C   UNL     1      -9.601   6.804  72.339  1.00  0.00    -0.164 C  
HETATM    5  CA  UNL     1      -5.783   6.350  70.729  1.00  0.00    -0.023 C  
HETATM    6  CA  UNL     1      -8.952   5.723  71.865  1.00  0.00    -0.138 C  
HETATM    7  C   UNL     1      -6.770   5.150  70.712  1.00  0.00    -0.039 C  
HETATM    8  C   UNL     1      -9.702   4.446  71.617  1.00  0.00    -0.171 C  
HETATM    9  N   UNL     1      -7.607   5.792  71.551  1.00  0.00    -0.096 N  
HETATM   10  OXT UNL     1     -10.600   4.084  72.362  1.00  0.00    -0.134 OA 
HETATM   11  O   UNL     1      -6.913   4.159  70.060  1.00  0.00    -0.040 OA 
HETATM   12  O   UNL     1      -9.334   3.701  70.564  1.00  0.00    -0.129 OA 
ENDROOT
BRANCH   4  13
HETATM   13  C   UNL     1     -11.129   6.872  72.419  1.00  0.00    -0.260 C  
BRANCH  13  14
HETATM   14  O   UNL     1     -11.602   8.181  72.790  1.00  0.00    -0.411 OA 
BRANCH  14  15
HETATM   15  C   UNL     1     -12.615   8.694  72.064  1.00  0.00    -0.378 C  
HETATM   16  O   UNL     1     -13.703   9.058  72.483  1.00  0.00    -0.472 OA 
HETATM   17  N   UNL     1     -12.285   8.709  70.751  1.00  0.00    -0.488 N  
HETATM   18  H2  UNL     1     -11.398   8.381  70.368  1.00  0.00     0.000 HD 
HETATM   19  H1  UNL     1     -13.052   9.097  70.202  1.00  0.00     0.000 HD 
ENDBRANCH  14  15
ENDBRANCH  13  14
ENDBRANCH   4  13
BRANCH   5  20
HETATM   20  N   UNL     1      -5.664   6.944  69.338  1.00  0.00    -0.015 N  
HETATM   21  H   UNL     1      -4.705   6.915  68.991  1.00  0.00     0.000 HD 
HETATM   22  C   UNL     1      -6.545   7.526  68.407  1.00  0.00    -0.050 C  
HETATM   23  O   UNL     1      -6.103   7.833  67.310  1.00  0.00    -0.046 OA 
BRANCH  22  24
HETATM   24  C   UNL     1      -7.954   7.965  68.770  1.00  0.00    -0.124 C  
BRANCH  24  25
HETATM   25  C   UNL     1      -9.095   7.163  68.345  1.00  0.00    -0.127 A  
HETATM   26  O   UNL     1     -10.313   7.247  68.965  1.00  0.00    -0.195 OA 
HETATM   27  C   UNL     1      -9.103   6.054  67.507  1.00  0.00    -0.109 A  
HETATM   28  C   UNL     1     -11.024   6.139  68.609  1.00  0.00    -0.336 A  
HETATM   29  C   UNL     1     -10.316   5.366  67.721  1.00  0.00    -0.226 A  
ENDBRANCH  24  25
BRANCH  24  30
HETATM   30  N   UNL     1      -8.300   9.113  69.273  1.00  0.00    -0.119 NA 
HETATM   31  H   UNL     1      -9.076   9.118  69.934  1.00  0.00     0.000 HD 
BRANCH  30  32
HETATM   32  O   UNL     1      -7.699  10.335  68.983  1.00  0.00    -0.091 OA 
HETATM   33  C   UNL     1      -6.755  10.911  69.856  1.00  0.00    -0.147 C  
ENDBRANCH  30  32
ENDBRANCH  24  30
ENDBRANCH  22  24
ENDBRANCH   5  20
TORSDOF 8
ENDMDL
MODEL      208
REMARK 921   NORMALIZED FREE ENERGY PREDICTED BY IDOCK:   -4.05 KCAL/MOL
REMARK 922        TOTAL FREE ENERGY PREDICTED BY IDOCK:   -7.35 KCAL/MOL
REMARK 923 INTER-LIGAND FREE ENERGY PREDICTED BY IDOCK:   -6.32 KCAL/MOL
REMARK 924 INTRA-LIGAND FREE ENERGY PREDICTED BY IDOCK:   -1.02 KCAL/MOL
REMARK 927      BINDING AFFINITY PREDICTED BY RF-SCORE:    0.00 PKD
ROOT
HETATM    1  C   UNL     1     -11.188   6.606  69.814  1.00  0.00    -0.356 C  
HETATM    2  S   UNL     1     -10.539   5.566  68.534  1.00  0.00    -0.078 SA 
HETATM    3  C   UNL     1      -9.442   4.427  69.424  1.00  0.00    -0.180 C  
HETATM    4  C   UNL     1      -9.367   4.502  70.922  1.00  0.00    -0.219 C  
HETATM    5  CA  UNL     1     -11.087   8.191  70.022  1.00  0.00    -0.146 C  
HETATM    6  CA  UNL     1      -9.969   5.423  71.699  1.00  0.00    -0.186 C  
HETATM    7  C   UNL     1     -10.945   7.753  71.506  1.00  0.00    -0.233 C  
HETATM    8  C   UNL     1      -9.873   5.321  73.194  1.00  0.00    -0.154 C  
HETATM    9  N   UNL     1     -10.633   6.495  71.133  1.00  0.00    -0.224 N  
HETATM   10  OXT UNL     1      -9.897   4.237  73.758  1.00  0.00    -0.118 OA 
HETATM   11  O   UNL     1     -10.877   8.301  72.566  1.00  0.00    -0.333 OA 
HETATM   12  O   UNL     1      -9.790   6.463  73.894  1.00  0.00    -0.184 OA 
ENDROOT
BRANCH   4  13
HETATM   13  C   UNL     1      -8.380   3.475  71.484  1.00  0.00    -0.072 C  
BRANCH  13  14
HETATM   14  O   UNL     1      -7.027   3.716  71.049  1.00  0.00    -0.032 OA 
BRANCH  14  15
HETATM   15  C   UNL     1      -6.259   2.635  70.811  1.00  0.00    -0.019 C  
HETATM   16  O   UNL     1      -5.985   1.745  71.602  1.00  0.00    -0.012 OA 
HETATM   17  N   UNL     1      -5.767   2.682  69.551  1.00  0.00    -0.021 N  
HETATM   18  H2  UNL     1      -5.951   3.428  68.880  1.00  0.00     0.000 HD 
HETATM   19  H1  UNL     1      -5.186   1.864  69.371  1.00  0.00     0.000 HD 
ENDBRANCH  14  15
ENDBRANCH  13  14
ENDBRANCH   4  13
BRANCH   5  20
HETATM   20  N   UNL     1     -10.053   9.250  69.691  1.00  0.00    -0.188 N  
HETATM   21  H   UNL     1      -9.116   8.972  69.982  1.00  0.00     0.000 HD 
HETATM   22  C   UNL     1     -10.063  10.519  69.084  1.00  0.00    -0.224 C  
HETATM   23  O   UNL     1      -8.992  11.079  68.901  1.00  0.00    -0.168 OA 
BRANCH  22  24
HETATM   24  C   UNL     1     -11.341  11.300  68.829  1.00  0.00    -0.270 C  
BRANCH  24  25
HETATM   25  C   UNL     1     -11.385  12.290  67.758  1.00  0.00    -0.301 A  
HETATM   26  O   UNL     1     -11.359  13.636  68.012  1.00  0.00    -0.257 OA 
HETATM   27  C   UNL     1     -11.723  12.100  66.423  1.00  0.00    -0.394 A  
HETATM   28  C   UNL     1     -11.792  14.267  66.883  1.00  0.00    -0.433 A  
HETATM   29  C   UNL     1     -12.040  13.363  65.880  1.00  0.00    -0.486 A  
ENDBRANCH  24  25
BRANCH  24  30
HETATM   30  N   UNL     1     -12.391  11.335  69.594  1.00  0.00    -0.243 NA 
HETATM   31  H   UNL     1     -13.302  11.253  69.143  1.00  0.00     0.000 HD 
BRANCH  30  32
HETATM   32  O   UNL     1     -12.376  11.476  70.980  1.00  0.00    -0.371 OA 
HETATM   33  C   UNL     1     -13.246  10.732  71.800  1.00  0.00    -0.418 C  
ENDBRANCH  30  32
ENDBRANCH  24  30
ENDBRANCH  22  24
ENDBRANCH   5  20
TORSDOF 8
ENDMDL
MODEL      209
REMARK 921   NORMALIZED FREE ENERGY PREDICTED BY IDOCK:   -4.05 KCAL/MOL
REMARK 922        TOTAL FREE ENERGY PREDICTED BY IDOCK:   -7.34 KCAL/MOL
REMARK 923 INTER-LIGAND FREE ENERGY PREDICTED BY IDOCK:   -6.60 KCAL/MOL
REMARK 924 INTRA-LIGAND FREE ENERGY PREDICTED BY IDOCK:   -0.75 KCAL/MOL
REMARK 927      BINDING AFFINITY PREDICTED BY RF-SCORE:    0.00 PKD
ROOT
HETATM    1  C   UNL     1     -10.672   9.065  69.080  1.00  0.00    -0.157 C  
HETATM    2  S   UNL     1     -11.638  10.474  69.553  1.00  0.00    -0.244 SA 
HETATM    3  C   UNL     1     -11.417  11.627  68.169  1.00  0.00    -0.313 C  
HETATM    4  C   UNL     1     -10.626  11.190  66.970  1.00  0.00    -0.295 C  
HETATM    5  CA  UNL     1      -9.416   8.374  69.795  1.00  0.00    -0.162 C  
HETATM    6  CA  UNL     1      -9.952  10.031  66.847  1.00  0.00    -0.209 C  
HETATM    7  C   UNL     1      -8.952   8.228  68.319  1.00  0.00    -0.136 C  
HETATM    8  C   UNL     1      -9.274   9.691  65.550  1.00  0.00    -0.234 C  
HETATM    9  N   UNL     1      -9.831   9.170  67.922  1.00  0.00    -0.162 N  
HETATM   10  OXT UNL     1      -9.779   9.982  64.476  1.00  0.00    -0.310 OA 
HETATM   11  O   UNL     1      -8.039   7.709  67.748  1.00  0.00    -0.116 OA 
HETATM   12  O   UNL     1      -8.108   9.031  65.610  1.00  0.00    -0.107 OA 
ENDROOT
BRANCH   4  13
HETATM   13  C   UNL     1     -10.541  12.303  65.921  1.00  0.00    -0.256 C  
BRANCH  13  14
HETATM   14  O   UNL     1     -11.752  12.427  65.150  1.00  0.00    -0.355 OA 
BRANCH  14  15
HETATM   15  C   UNL     1     -12.179  13.675  64.879  1.00  0.00    -0.414 C  
HETATM   16  O   UNL     1     -12.517  14.524  65.689  1.00  0.00    -0.333 OA 
HETATM   17  N   UNL     1     -12.239  13.866  63.539  1.00  0.00    -1.050 N  
HETATM   18  H2  UNL     1     -11.995  13.166  62.838  1.00  0.00     0.000 HD 
HETATM   19  H1  UNL     1     -12.562  14.811  63.334  1.00  0.00     0.000 HD 
ENDBRANCH  14  15
ENDBRANCH  13  14
ENDBRANCH   4  13
BRANCH   5  20
HETATM   20  N   UNL     1      -8.268   8.869  70.654  1.00  0.00    -0.144 N  
HETATM   21  H   UNL     1      -7.884   9.748  70.309  1.00  0.00     0.000 HD 
HETATM   22  C   UNL     1      -7.599   8.417  71.807  1.00  0.00    -0.112 C  
HETATM   23  O   UNL     1      -6.740   9.136  72.293  1.00  0.00    -0.305 OA 
BRANCH  22  24
HETATM   24  C   UNL     1      -7.759   7.008  72.353  1.00  0.00    -0.094 C  
BRANCH  24  25
HETATM   25  C   UNL     1      -9.086   6.508  72.691  1.00  0.00    -0.131 A  
HETATM   26  O   UNL     1      -9.653   5.449  72.032  1.00  0.00    -0.152 OA 
HETATM   27  C   UNL     1     -10.066   7.120  73.466  1.00  0.00    -0.374 A  
HETATM   28  C   UNL     1     -10.990   5.476  72.300  1.00  0.00    -0.239 A  
HETATM   29  C   UNL     1     -11.296   6.495  73.169  1.00  0.00    -0.009 A  
ENDBRANCH  24  25
BRANCH  24  30
HETATM   30  N   UNL     1      -6.804   6.221  72.751  1.00  0.00    -0.073 NA 
HETATM   31  H   UNL     1      -5.963   6.658  73.125  1.00  0.00     0.000 HD 
BRANCH  30  32
HETATM   32  O   UNL     1      -6.835   4.829  72.708  1.00  0.00    -0.064 OA 
HETATM   33  C   UNL     1      -6.498   4.055  73.835  1.00  0.00    -0.046 C  
ENDBRANCH  30  32
ENDBRANCH  24  30
ENDBRANCH  22  24
ENDBRANCH   5  20
TORSDOF 8
ENDMDL
MODEL      210
REMARK 921   NORMALIZED FREE ENERGY PREDICTED BY IDOCK:   -4.05 KCAL/MOL
REMARK 922        TOTAL FREE ENERGY PREDICTED BY IDOCK:   -7.34 KCAL/MOL
REMARK 923 INTER-LIGAND FREE ENERGY PREDICTED BY IDOCK:   -6.75 KCAL/MOL
REMARK 924 INTRA-LIGAND FREE ENERGY PREDICTED BY IDOCK:   -0.59 KCAL/MOL
REMARK 927      BINDING AFFINITY PREDICTED BY RF-SCORE:    0.00 PKD
ROOT
HETATM    1  C   UNL     1      -8.093  13.240  68.216  1.00  0.00    -0.156 C  
HETATM    2  S   UNL     1      -8.311  14.393  66.888  1.00  0.00     0.023 SA 
HETATM    3  C   UNL     1      -9.880  13.884  66.133  1.00  0.00    -0.302 C  
HETATM    4  C   UNL     1     -10.666  12.767  66.758  1.00  0.00    -0.278 C  
HETATM    5  CA  UNL     1      -6.924  12.182  68.498  1.00  0.00    -0.091 C  
HETATM    6  CA  UNL     1     -10.271  12.007  67.797  1.00  0.00    -0.202 C  
HETATM    7  C   UNL     1      -8.132  11.324  68.969  1.00  0.00    -0.042 C  
HETATM    8  C   UNL     1     -11.204  10.979  68.372  1.00  0.00    -0.274 C  
HETATM    9  N   UNL     1      -8.992  12.124  68.307  1.00  0.00    -0.193 N  
HETATM   10  OXT UNL     1     -12.403  11.191  68.459  1.00  0.00    -0.561 OA 
HETATM   11  O   UNL     1      -8.284  10.257  69.485  1.00  0.00    -0.158 OA 
HETATM   12  O   UNL     1     -10.670   9.830  68.814  1.00  0.00    -0.216 OA 
ENDROOT
BRANCH   4  13
HETATM   13  C   UNL     1     -11.947  12.476  65.970  1.00  0.00    -0.392 C  
BRANCH  13  14
HETATM   14  O   UNL     1     -11.678  12.044  64.621  1.00  0.00    -0.335 OA 
BRANCH  14  15
HETATM   15  C   UNL     1     -12.436  12.580  63.645  1.00  0.00    -0.470 C  
HETATM   16  O   UNL     1     -12.639  13.768  63.446  1.00  0.00    -0.842 OA 
HETATM   17  N   UNL     1     -13.010  11.598  62.910  1.00  0.00    -0.792 N  
HETATM   18  H2  UNL     1     -12.886  10.599  63.073  1.00  0.00     0.000 HD 
HETATM   19  H1  UNL     1     -13.584  12.004  62.171  1.00  0.00     0.000 HD 
ENDBRANCH  14  15
ENDBRANCH  13  14
ENDBRANCH   4  13
BRANCH   5  20
HETATM   20  N   UNL     1      -6.002  11.348  67.628  1.00  0.00    -0.050 N  
HETATM   21  H   UNL     1      -5.027  11.629  67.727  1.00  0.00     0.000 HD 
HETATM   22  C   UNL     1      -6.156  10.285  66.719  1.00  0.00    -0.062 C  
HETATM   23  O   UNL     1      -5.149   9.783  66.244  1.00  0.00    -0.037 OA 
BRANCH  22  24
HETATM   24  C   UNL     1      -7.506   9.868  66.160  1.00  0.00    -0.104 C  
BRANCH  24  25
HETATM   25  C   UNL     1      -7.873  10.242  64.798  1.00  0.00    -0.130 A  
HETATM   26  O   UNL     1      -8.934  11.066  64.532  1.00  0.00    -0.157 OA 
HETATM   27  C   UNL     1      -7.451   9.667  63.605  1.00  0.00    -0.121 A  
HETATM   28  C   UNL     1      -9.243  10.912  63.213  1.00  0.00    -0.284 A  
HETATM   29  C   UNL     1      -8.366  10.050  62.601  1.00  0.00    -0.165 A  
ENDBRANCH  24  25
BRANCH  24  30
HETATM   30  N   UNL     1      -8.497   9.359  66.830  1.00  0.00    -0.126 NA 
HETATM   31  H   UNL     1      -9.076  10.002  67.369  1.00  0.00     0.000 HD 
BRANCH  30  32
HETATM   32  O   UNL     1      -8.832   8.008  66.873  1.00  0.00    -0.125 OA 
HETATM   33  C   UNL     1      -7.843   7.013  67.004  1.00  0.00    -0.108 C  
ENDBRANCH  30  32
ENDBRANCH  24  30
ENDBRANCH  22  24
ENDBRANCH   5  20
TORSDOF 8
ENDMDL
MODEL      211
REMARK 921   NORMALIZED FREE ENERGY PREDICTED BY IDOCK:   -4.05 KCAL/MOL
REMARK 922        TOTAL FREE ENERGY PREDICTED BY IDOCK:   -7.33 KCAL/MOL
REMARK 923 INTER-LIGAND FREE ENERGY PREDICTED BY IDOCK:   -4.89 KCAL/MOL
REMARK 924 INTRA-LIGAND FREE ENERGY PREDICTED BY IDOCK:   -2.44 KCAL/MOL
REMARK 927      BINDING AFFINITY PREDICTED BY RF-SCORE:    0.00 PKD
ROOT
HETATM    1  C   UNL     1      -7.752   8.909  67.706  1.00  0.00    -0.101 C  
HETATM    2  S   UNL     1      -9.314   8.832  66.872  1.00  0.00    -0.180 SA 
HETATM    3  C   UNL     1     -10.476   8.362  68.184  1.00  0.00    -0.174 C  
HETATM    4  C   UNL     1      -9.976   8.233  69.595  1.00  0.00    -0.193 C  
HETATM    5  CA  UNL     1      -6.397   8.089  67.463  1.00  0.00    -0.056 C  
HETATM    6  CA  UNL     1      -8.693   8.332  69.991  1.00  0.00    -0.133 C  
HETATM    7  C   UNL     1      -6.364   8.136  69.016  1.00  0.00    -0.040 C  
HETATM    8  C   UNL     1      -8.352   8.267  71.453  1.00  0.00    -0.133 C  
HETATM    9  N   UNL     1      -7.676   8.441  69.061  1.00  0.00    -0.095 N  
HETATM   10  OXT UNL     1      -9.077   8.774  72.295  1.00  0.00    -0.355 OA 
HETATM   11  O   UNL     1      -5.600   7.805  69.873  1.00  0.00    -0.023 OA 
HETATM   12  O   UNL     1      -7.209   7.656  71.800  1.00  0.00    -0.061 OA 
ENDROOT
BRANCH   4  13
HETATM   13  C   UNL     1     -11.099   7.816  70.549  1.00  0.00    -0.257 C  
BRANCH  13  14
HETATM   14  O   UNL     1     -11.982   8.908  70.871  1.00  0.00    -0.282 OA 
BRANCH  14  15
HETATM   15  C   UNL     1     -12.699   8.801  72.006  1.00  0.00    -0.387 C  
HETATM   16  O   UNL     1     -13.730   9.397  72.279  1.00  0.00    -0.451 OA 
HETATM   17  N   UNL     1     -12.084   7.955  72.866  1.00  0.00    -0.613 N  
HETATM   18  H2  UNL     1     -11.207   7.469  72.681  1.00  0.00     0.000 HD 
HETATM   19  H1  UNL     1     -12.627   7.874  73.726  1.00  0.00     0.000 HD 
ENDBRANCH  14  15
ENDBRANCH  13  14
ENDBRANCH   4  13
BRANCH   5  20
HETATM   20  N   UNL     1      -6.065   6.690  66.978  1.00  0.00    -0.031 N  
HETATM   21  H   UNL     1      -5.156   6.652  66.516  1.00  0.00     0.000 HD 
HETATM   22  C   UNL     1      -6.697   5.433  67.005  1.00  0.00    -0.062 C  
HETATM   23  O   UNL     1      -6.080   4.470  66.576  1.00  0.00    -0.029 OA 
BRANCH  22  24
HETATM   24  C   UNL     1      -8.165   5.257  67.356  1.00  0.00    -0.103 C  
BRANCH  24  25
HETATM   25  C   UNL     1      -8.553   4.999  68.738  1.00  0.00    -0.086 A  
HETATM   26  O   UNL     1      -7.631   4.898  69.745  1.00  0.00    -0.055 OA 
HETATM   27  C   UNL     1      -9.780   4.556  69.219  1.00  0.00    -0.260 A  
HETATM   28  C   UNL     1      -8.248   4.290  70.798  1.00  0.00    -0.074 A  
HETATM   29  C   UNL     1      -9.571   4.048  70.518  1.00  0.00    -0.261 A  
ENDBRANCH  24  25
BRANCH  24  30
HETATM   30  N   UNL     1      -9.148   5.115  66.518  1.00  0.00    -0.123 NA 
HETATM   31  H   UNL     1     -10.014   5.611  66.724  1.00  0.00     0.000 HD 
BRANCH  30  32
HETATM   32  O   UNL     1      -9.117   4.340  65.360  1.00  0.00    -0.127 OA 
HETATM   33  C   UNL     1      -9.098   2.933  65.422  1.00  0.00    -0.149 C  
ENDBRANCH  30  32
ENDBRANCH  24  30
ENDBRANCH  22  24
ENDBRANCH   5  20
TORSDOF 8
ENDMDL
MODEL      212
REMARK 921   NORMALIZED FREE ENERGY PREDICTED BY IDOCK:   -4.04 KCAL/MOL
REMARK 922        TOTAL FREE ENERGY PREDICTED BY IDOCK:   -7.32 KCAL/MOL
REMARK 923 INTER-LIGAND FREE ENERGY PREDICTED BY IDOCK:   -6.05 KCAL/MOL
REMARK 924 INTRA-LIGAND FREE ENERGY PREDICTED BY IDOCK:   -1.27 KCAL/MOL
REMARK 927      BINDING AFFINITY PREDICTED BY RF-SCORE:    0.00 PKD
ROOT
HETATM    1  C   UNL     1      -8.396  10.375  68.006  1.00  0.00    -0.118 C  
HETATM    2  S   UNL     1      -9.084   9.766  69.522  1.00  0.00    -0.229 SA 
HETATM    3  C   UNL     1      -9.341   8.000  69.194  1.00  0.00    -0.151 C  
HETATM    4  C   UNL     1      -8.886   7.423  67.884  1.00  0.00    -0.132 C  
HETATM    5  CA  UNL     1      -8.931  11.494  66.993  1.00  0.00    -0.174 C  
HETATM    6  CA  UNL     1      -8.383   8.118  66.847  1.00  0.00    -0.115 C  
HETATM    7  C   UNL     1      -8.370  10.487  65.951  1.00  0.00    -0.161 C  
HETATM    8  C   UNL     1      -7.888   7.393  65.627  1.00  0.00    -0.111 C  
HETATM    9  N   UNL     1      -8.364   9.500  66.869  1.00  0.00    -0.116 N  
HETATM   10  OXT UNL     1      -7.305   6.323  65.719  1.00  0.00    -0.076 OA 
HETATM   11  O   UNL     1      -8.225  10.463  64.765  1.00  0.00    -0.163 OA 
HETATM   12  O   UNL     1      -8.084   7.974  64.434  1.00  0.00    -0.148 OA 
ENDROOT
BRANCH   4  13
HETATM   13  C   UNL     1      -9.203   5.927  67.792  1.00  0.00    -0.108 C  
BRANCH  13  14
HETATM   14  O   UNL     1      -8.495   5.152  68.779  1.00  0.00    -0.088 OA 
BRANCH  14  15
HETATM   15  C   UNL     1      -8.063   3.932  68.404  1.00  0.00    -0.075 C  
HETATM   16  O   UNL     1      -8.482   2.856  68.800  1.00  0.00    -0.063 OA 
HETATM   17  N   UNL     1      -7.031   4.051  67.536  1.00  0.00    -0.055 N  
HETATM   18  H2  UNL     1      -6.638   4.935  67.213  1.00  0.00     0.000 HD 
HETATM   19  H1  UNL     1      -6.704   3.127  67.253  1.00  0.00     0.000 HD 
ENDBRANCH  14  15
ENDBRANCH  13  14
ENDBRANCH   4  13
BRANCH   5  20
HETATM   20  N   UNL     1     -10.301  11.981  66.562  1.00  0.00    -0.207 N  
HETATM   21  H   UNL     1     -10.470  11.815  65.570  1.00  0.00     0.000 HD 
HETATM   22  C   UNL     1     -11.397  12.603  67.187  1.00  0.00    -0.319 C  
HETATM   23  O   UNL     1     -12.410  12.784  66.529  1.00  0.00    -0.476 OA 
BRANCH  22  24
HETATM   24  C   UNL     1     -11.310  13.230  68.569  1.00  0.00    -0.284 C  
BRANCH  24  25
HETATM   25  C   UNL     1     -11.037  14.656  68.702  1.00  0.00    -0.262 A  
HETATM   26  O   UNL     1     -11.432  15.563  67.753  1.00  0.00    -0.322 OA 
HETATM   27  C   UNL     1     -10.158  15.287  69.575  1.00  0.00    -0.261 A  
HETATM   28  C   UNL     1     -10.716  16.705  67.965  1.00  0.00    -0.350 A  
HETATM   29  C   UNL     1      -9.908  16.580  69.068  1.00  0.00    -0.266 A  
ENDBRANCH  24  25
BRANCH  24  30
HETATM   30  N   UNL     1     -11.261  12.597  69.703  1.00  0.00    -0.478 NA 
HETATM   31  H   UNL     1     -10.340  12.337  70.054  1.00  0.00     0.000 HD 
BRANCH  30  32
HETATM   32  O   UNL     1     -12.363  12.243  70.478  1.00  0.00    -0.329 OA 
HETATM   33  C   UNL     1     -12.488  10.951  71.025  1.00  0.00    -0.411 C  
ENDBRANCH  30  32
ENDBRANCH  24  30
ENDBRANCH  22  24
ENDBRANCH   5  20
TORSDOF 8
ENDMDL
MODEL      213
REMARK 921   NORMALIZED FREE ENERGY PREDICTED BY IDOCK:   -4.00 KCAL/MOL
REMARK 922        TOTAL FREE ENERGY PREDICTED BY IDOCK:   -7.27 KCAL/MOL
REMARK 923 INTER-LIGAND FREE ENERGY PREDICTED BY IDOCK:   -6.13 KCAL/MOL
REMARK 924 INTRA-LIGAND FREE ENERGY PREDICTED BY IDOCK:   -1.13 KCAL/MOL
REMARK 927      BINDING AFFINITY PREDICTED BY RF-SCORE:    0.00 PKD
ROOT
HETATM    1  C   UNL     1      -8.658  12.048  67.380  1.00  0.00    -0.171 C  
HETATM    2  S   UNL     1      -9.573  13.567  67.390  1.00  0.00    -0.234 SA 
HETATM    3  C   UNL     1     -10.964  13.220  68.502  1.00  0.00    -0.266 C  
HETATM    4  C   UNL     1     -11.027  11.894  69.206  1.00  0.00    -0.208 C  
HETATM    5  CA  UNL     1      -8.291  11.060  66.175  1.00  0.00    -0.163 C  
HETATM    6  CA  UNL     1     -10.188  10.858  69.018  1.00  0.00    -0.203 C  
HETATM    7  C   UNL     1      -8.568   9.995  67.272  1.00  0.00    -0.125 C  
HETATM    8  C   UNL     1     -10.322   9.621  69.859  1.00  0.00    -0.249 C  
HETATM    9  N   UNL     1      -9.233  10.899  68.019  1.00  0.00    -0.152 N  
HETATM   10  OXT UNL     1     -10.623   9.689  71.042  1.00  0.00    -0.311 OA 
HETATM   11  O   UNL     1      -8.481   8.806  67.363  1.00  0.00    -0.115 OA 
HETATM   12  O   UNL     1     -10.073   8.440  69.276  1.00  0.00    -0.191 OA 
ENDROOT
BRANCH   4  13
HETATM   13  C   UNL     1     -12.278  11.787  70.084  1.00  0.00    -0.263 C  
BRANCH  13  14
HETATM   14  O   UNL     1     -12.558  13.009  70.795  1.00  0.00    -0.314 OA 
BRANCH  14  15
HETATM   15  C   UNL     1     -13.304  12.908  71.912  1.00  0.00    -0.435 C  
HETATM   16  O   UNL     1     -13.746  13.830  72.581  1.00  0.00    -0.647 OA 
HETATM   17  N   UNL     1     -13.468  11.607  72.246  1.00  0.00    -0.536 N  
HETATM   18  H2  UNL     1     -13.084  10.817  71.727  1.00  0.00     0.000 HD 
HETATM   19  H1  UNL     1     -14.033  11.531  73.092  1.00  0.00     0.000 HD 
ENDBRANCH  14  15
ENDBRANCH  13  14
ENDBRANCH   4  13
BRANCH   5  20
HETATM   20  N   UNL     1      -8.965  10.657  64.877  1.00  0.00    -0.195 N  
HETATM   21  H   UNL     1      -9.910  11.034  64.805  1.00  0.00     0.000 HD 
HETATM   22  C   UNL     1      -8.613   9.895  63.748  1.00  0.00    -0.199 C  
HETATM   23  O   UNL     1      -9.402   9.846  62.817  1.00  0.00    -0.285 OA 
BRANCH  22  24
HETATM   24  C   UNL     1      -7.398   8.982  63.716  1.00  0.00    -0.101 C  
BRANCH  24  25
HETATM   25  C   UNL     1      -7.577   7.542  63.573  1.00  0.00    -0.118 A  
HETATM   26  O   UNL     1      -8.387   6.823  64.412  1.00  0.00    -0.034 OA 
HETATM   27  C   UNL     1      -6.819   6.650  62.823  1.00  0.00    -0.043 A  
HETATM   28  C   UNL     1      -8.049   5.509  64.271  1.00  0.00    -0.124 A  
HETATM   29  C   UNL     1      -7.078   5.352  63.312  1.00  0.00    -0.043 A  
ENDBRANCH  24  25
BRANCH  24  30
HETATM   30  N   UNL     1      -6.174   9.315  64.000  1.00  0.00    -0.087 NA 
HETATM   31  H   UNL     1      -5.574   8.594  64.398  1.00  0.00     0.000 HD 
BRANCH  30  32
HETATM   32  O   UNL     1      -5.615  10.576  63.806  1.00  0.00    -0.148 OA 
HETATM   33  C   UNL     1      -5.235  11.017  62.523  1.00  0.00    -0.173 C  
ENDBRANCH  30  32
ENDBRANCH  24  30
ENDBRANCH  22  24
ENDBRANCH   5  20
TORSDOF 8
ENDMDL
MODEL      214
REMARK 921   NORMALIZED FREE ENERGY PREDICTED BY IDOCK:   -3.99 KCAL/MOL
REMARK 922        TOTAL FREE ENERGY PREDICTED BY IDOCK:   -7.26 KCAL/MOL
REMARK 923 INTER-LIGAND FREE ENERGY PREDICTED BY IDOCK:   -6.05 KCAL/MOL
REMARK 924 INTRA-LIGAND FREE ENERGY PREDICTED BY IDOCK:   -1.21 KCAL/MOL
REMARK 927      BINDING AFFINITY PREDICTED BY RF-SCORE:    0.00 PKD
ROOT
HETATM    1  C   UNL     1      -8.323   9.837  68.291  1.00  0.00    -0.106 C  
HETATM    2  S   UNL     1      -7.674  10.251  69.888  1.00  0.00    -0.056 SA 
HETATM    3  C   UNL     1      -8.327   8.945  70.965  1.00  0.00    -0.191 C  
HETATM    4  C   UNL     1      -9.126   7.827  70.361  1.00  0.00    -0.155 C  
HETATM    5  CA  UNL     1      -9.283  10.662  67.309  1.00  0.00    -0.143 C  
HETATM    6  CA  UNL     1      -9.512   7.737  69.074  1.00  0.00    -0.150 C  
HETATM    7  C   UNL     1      -9.869   9.243  67.069  1.00  0.00    -0.198 C  
HETATM    8  C   UNL     1     -10.237   6.513  68.592  1.00  0.00    -0.172 C  
HETATM    9  N   UNL     1      -9.295   8.785  68.199  1.00  0.00    -0.140 N  
HETATM   10  OXT UNL     1      -9.947   5.400  69.006  1.00  0.00    -0.159 OA 
HETATM   11  O   UNL     1     -10.691   8.760  66.349  1.00  0.00    -0.006 OA 
HETATM   12  O   UNL     1     -11.196   6.678  67.668  1.00  0.00    -0.296 OA 
ENDROOT
BRANCH   4  13
HETATM   13  C   UNL     1      -9.599   6.837  71.429  1.00  0.00    -0.167 C  
BRANCH  13  14
HETATM   14  O   UNL     1     -10.322   7.482  72.496  1.00  0.00    -0.207 OA 
BRANCH  14  15
HETATM   15  C   UNL     1     -11.628   7.734  72.286  1.00  0.00    -0.338 C  
HETATM   16  O   UNL     1     -12.143   8.827  72.108  1.00  0.00    -0.347 OA 
HETATM   17  N   UNL     1     -12.339   6.583  72.347  1.00  0.00    -0.534 N  
HETATM   18  H2  UNL     1     -11.943   5.660  72.527  1.00  0.00     0.000 HD 
HETATM   19  H1  UNL     1     -13.328   6.774  72.188  1.00  0.00     0.000 HD 
ENDBRANCH  14  15
ENDBRANCH  13  14
ENDBRANCH   4  13
BRANCH   5  20
HETATM   20  N   UNL     1     -10.407  11.663  67.502  1.00  0.00    -0.194 N  
HETATM   21  H   UNL     1     -11.296  11.205  67.701  1.00  0.00     0.000 HD 
HETATM   22  C   UNL     1     -10.529  13.065  67.476  1.00  0.00    -0.227 C  
HETATM   23  O   UNL     1     -11.609  13.554  67.767  1.00  0.00    -0.299 OA 
BRANCH  22  24
HETATM   24  C   UNL     1      -9.448  13.975  66.918  1.00  0.00    -0.265 C  
BRANCH  24  25
HETATM   25  C   UNL     1      -8.227  14.203  67.681  1.00  0.00    -0.186 A  
HETATM   26  O   UNL     1      -7.097  13.452  67.487  1.00  0.00    -0.154 OA 
HETATM   27  C   UNL     1      -8.064  14.950  68.842  1.00  0.00    -0.165 A  
HETATM   28  C   UNL     1      -6.296  13.639  68.574  1.00  0.00    -0.092 A  
HETATM   29  C   UNL     1      -6.853  14.544  69.444  1.00  0.00    -0.149 A  
ENDBRANCH  24  25
BRANCH  24  30
HETATM   30  N   UNL     1      -9.555  14.760  65.886  1.00  0.00    -0.428 NA 
HETATM   31  H   UNL     1      -8.963  14.557  65.081  1.00  0.00     0.000 HD 
BRANCH  30  32
HETATM   32  O   UNL     1     -10.410  15.854  65.791  1.00  0.00    -0.331 OA 
HETATM   33  C   UNL     1      -9.923  17.173  65.878  1.00  0.00    -0.194 C  
ENDBRANCH  30  32
ENDBRANCH  24  30
ENDBRANCH  22  24
ENDBRANCH   5  20
TORSDOF 8
ENDMDL
MODEL      215
REMARK 921   NORMALIZED FREE ENERGY PREDICTED BY IDOCK:   -3.98 KCAL/MOL
REMARK 922        TOTAL FREE ENERGY PREDICTED BY IDOCK:   -7.24 KCAL/MOL
REMARK 923 INTER-LIGAND FREE ENERGY PREDICTED BY IDOCK:   -6.32 KCAL/MOL
REMARK 924 INTRA-LIGAND FREE ENERGY PREDICTED BY IDOCK:   -0.92 KCAL/MOL
REMARK 927      BINDING AFFINITY PREDICTED BY RF-SCORE:    0.00 PKD
ROOT
HETATM    1  C   UNL     1     -10.681   9.865  70.835  1.00  0.00    -0.235 C  
HETATM    2  S   UNL     1     -12.274   9.332  71.402  1.00  0.00    -0.369 SA 
HETATM    3  C   UNL     1     -11.883   8.063  72.639  1.00  0.00    -0.321 C  
HETATM    4  C   UNL     1     -10.447   7.795  72.988  1.00  0.00    -0.432 C  
HETATM    5  CA  UNL     1     -10.028   9.829  69.373  1.00  0.00    -0.205 C  
HETATM    6  CA  UNL     1      -9.373   8.342  72.387  1.00  0.00    -0.285 C  
HETATM    7  C   UNL     1      -8.763   9.468  70.201  1.00  0.00    -0.230 C  
HETATM    8  C   UNL     1      -7.993   8.045  72.902  1.00  0.00    -0.151 C  
HETATM    9  N   UNL     1      -9.522   9.135  71.265  1.00  0.00    -0.268 N  
HETATM   10  OXT UNL     1      -7.774   7.932  74.099  1.00  0.00    -0.150 OA 
HETATM   11  O   UNL     1      -7.603   9.293  69.973  1.00  0.00    -0.074 OA 
HETATM   12  O   UNL     1      -7.002   7.936  72.004  1.00  0.00    -0.059 OA 
ENDROOT
BRANCH   4  13
HETATM   13  C   UNL     1     -10.323   6.686  74.036  1.00  0.00    -0.351 C  
BRANCH  13  14
HETATM   14  O   UNL     1     -10.895   5.440  73.589  1.00  0.00    -0.276 OA 
BRANCH  14  15
HETATM   15  C   UNL     1     -10.097   4.355  73.622  1.00  0.00    -0.157 C  
HETATM   16  O   UNL     1     -10.420   3.220  73.937  1.00  0.00    -0.147 OA 
HETATM   17  N   UNL     1      -8.828   4.700  73.298  1.00  0.00    -0.107 N  
HETATM   18  H2  UNL     1      -8.522   5.644  73.063  1.00  0.00     0.000 HD 
HETATM   19  H1  UNL     1      -8.225   3.878  73.324  1.00  0.00     0.000 HD 
ENDBRANCH  14  15
ENDBRANCH  13  14
ENDBRANCH   4  13
BRANCH   5  20
HETATM   20  N   UNL     1     -10.143   8.910  68.172  1.00  0.00    -0.181 N  
HETATM   21  H   UNL     1     -10.154   7.927  68.443  1.00  0.00     0.000 HD 
HETATM   22  C   UNL     1     -10.239   9.074  66.778  1.00  0.00    -0.271 C  
HETATM   23  O   UNL     1     -10.406   8.078  66.091  1.00  0.00     0.078 OA 
BRANCH  22  24
HETATM   24  C   UNL     1      -9.950  10.394  66.082  1.00  0.00    -0.231 C  
BRANCH  24  25
HETATM   25  C   UNL     1      -8.910  10.464  65.063  1.00  0.00    -0.191 A  
HETATM   26  O   UNL     1      -9.204  10.480  63.725  1.00  0.00    -0.216 OA 
HETATM   27  C   UNL     1      -7.544  10.253  65.211  1.00  0.00    -0.143 A  
HETATM   28  C   UNL     1      -8.058  10.165  63.056  1.00  0.00    -0.152 A  
HETATM   29  C   UNL     1      -7.010  10.003  63.929  1.00  0.00    -0.124 A  
ENDBRANCH  24  25
BRANCH  24  30
HETATM   30  N   UNL     1     -10.404  11.563  66.425  1.00  0.00    -0.230 NA 
HETATM   31  H   UNL     1      -9.751  12.345  66.397  1.00  0.00     0.000 HD 
BRANCH  30  32
HETATM   32  O   UNL     1     -11.709  11.836  66.828  1.00  0.00    -0.555 OA 
HETATM   33  C   UNL     1     -12.105  13.138  67.193  1.00  0.00    -0.286 C  
ENDBRANCH  30  32
ENDBRANCH  24  30
ENDBRANCH  22  24
ENDBRANCH   5  20
TORSDOF 8
ENDMDL
MODEL      216
REMARK 921   NORMALIZED FREE ENERGY PREDICTED BY IDOCK:   -3.97 KCAL/MOL
REMARK 922        TOTAL FREE ENERGY PREDICTED BY IDOCK:   -7.22 KCAL/MOL
REMARK 923 INTER-LIGAND FREE ENERGY PREDICTED BY IDOCK:   -5.35 KCAL/MOL
REMARK 924 INTRA-LIGAND FREE ENERGY PREDICTED BY IDOCK:   -1.88 KCAL/MOL
REMARK 927      BINDING AFFINITY PREDICTED BY RF-SCORE:    0.00 PKD
ROOT
HETATM    1  C   UNL     1      -7.645  10.013  69.493  1.00  0.00    -0.133 C  
HETATM    2  S   UNL     1      -9.222  10.328  68.748  1.00  0.00    -0.175 SA 
HETATM    3  C   UNL     1     -10.395   9.534  69.882  1.00  0.00    -0.236 C  
HETATM    4  C   UNL     1      -9.884   8.911  71.149  1.00  0.00    -0.345 C  
HETATM    5  CA  UNL     1      -6.366   9.226  68.936  1.00  0.00    -0.044 C  
HETATM    6  CA  UNL     1      -8.590   8.782  71.501  1.00  0.00    -0.186 C  
HETATM    7  C   UNL     1      -6.302   8.755  70.415  1.00  0.00    -0.040 C  
HETATM    8  C   UNL     1      -8.231   8.213  72.843  1.00  0.00    -0.175 C  
HETATM    9  N   UNL     1      -7.584   9.120  70.615  1.00  0.00    -0.118 N  
HETATM   10  OXT UNL     1      -8.897   8.463  73.836  1.00  0.00    -0.165 OA 
HETATM   11  O   UNL     1      -5.552   8.105  71.082  1.00  0.00    -0.033 OA 
HETATM   12  O   UNL     1      -7.135   7.443  72.921  1.00  0.00    -0.067 OA 
ENDROOT
BRANCH   4  13
HETATM   13  C   UNL     1     -11.020   8.283  71.962  1.00  0.00    -0.306 C  
BRANCH  13  14
HETATM   14  O   UNL     1     -12.211   8.080  71.176  1.00  0.00    -0.302 OA 
BRANCH  14  15
HETATM   15  C   UNL     1     -13.387   8.382  71.760  1.00  0.00    -0.357 C  
HETATM   16  O   UNL     1     -13.550   9.027  72.785  1.00  0.00    -0.433 OA 
HETATM   17  N   UNL     1     -14.407   7.818  71.071  1.00  0.00    -0.656 N  
HETATM   18  H2  UNL     1     -14.301   7.248  70.232  1.00  0.00     0.000 HD 
HETATM   19  H1  UNL     1     -15.297   8.047  71.514  1.00  0.00     0.000 HD 
ENDBRANCH  14  15
ENDBRANCH  13  14
ENDBRANCH   4  13
BRANCH   5  20
HETATM   20  N   UNL     1      -6.157   8.047  68.005  1.00  0.00    -0.045 N  
HETATM   21  H   UNL     1      -5.606   8.301  67.185  1.00  0.00     0.000 HD 
HETATM   22  C   UNL     1      -6.533   6.691  67.989  1.00  0.00    -0.056 C  
HETATM   23  O   UNL     1      -6.105   5.985  67.089  1.00  0.00    -0.020 OA 
BRANCH  22  24
HETATM   24  C   UNL     1      -7.593   6.119  68.916  1.00  0.00    -0.092 C  
BRANCH  24  25
HETATM   25  C   UNL     1      -8.986   6.083  68.489  1.00  0.00    -0.114 A  
HETATM   26  O   UNL     1      -9.411   6.698  67.341  1.00  0.00    -0.127 OA 
HETATM   27  C   UNL     1     -10.104   5.710  69.227  1.00  0.00    -0.281 A  
HETATM   28  C   UNL     1     -10.767   6.812  67.422  1.00  0.00    -0.335 A  
HETATM   29  C   UNL     1     -11.241   6.229  68.572  1.00  0.00    -0.305 A  
ENDBRANCH  24  25
BRANCH  24  30
HETATM   30  N   UNL     1      -7.439   5.815  70.170  1.00  0.00    -0.079 NA 
HETATM   31  H   UNL     1      -7.510   6.574  70.848  1.00  0.00     0.000 HD 
BRANCH  30  32
HETATM   32  O   UNL     1      -7.185   4.539  70.666  1.00  0.00    -0.046 OA 
HETATM   33  C   UNL     1      -7.678   4.130  71.920  1.00  0.00    -0.075 C  
ENDBRANCH  30  32
ENDBRANCH  24  30
ENDBRANCH  22  24
ENDBRANCH   5  20
TORSDOF 8
ENDMDL
MODEL      217
REMARK 921   NORMALIZED FREE ENERGY PREDICTED BY IDOCK:   -3.97 KCAL/MOL
REMARK 922        TOTAL FREE ENERGY PREDICTED BY IDOCK:   -7.22 KCAL/MOL
REMARK 923 INTER-LIGAND FREE ENERGY PREDICTED BY IDOCK:   -5.90 KCAL/MOL
REMARK 924 INTRA-LIGAND FREE ENERGY PREDICTED BY IDOCK:   -1.32 KCAL/MOL
REMARK 927      BINDING AFFINITY PREDICTED BY RF-SCORE:    0.00 PKD
ROOT
HETATM    1  C   UNL     1     -10.550   5.859  67.163  1.00  0.00    -0.299 C  
HETATM    2  S   UNL     1      -9.661   4.326  67.204  1.00  0.00    -0.186 SA 
HETATM    3  C   UNL     1      -9.468   3.992  68.977  1.00  0.00    -0.173 C  
HETATM    4  C   UNL     1     -10.107   4.917  69.972  1.00  0.00    -0.337 C  
HETATM    5  CA  UNL     1     -10.153   7.279  66.538  1.00  0.00    -0.093 C  
HETATM    6  CA  UNL     1     -10.746   6.067  69.685  1.00  0.00    -0.335 C  
HETATM    7  C   UNL     1     -10.864   7.783  67.825  1.00  0.00    -0.041 C  
HETATM    8  C   UNL     1     -11.413   6.849  70.781  1.00  0.00    -0.335 C  
HETATM    9  N   UNL     1     -10.749   6.567  68.396  1.00  0.00    -0.252 N  
HETATM   10  OXT UNL     1     -11.986   6.286  71.701  1.00  0.00    -0.305 OA 
HETATM   11  O   UNL     1     -11.175   8.843  68.280  1.00  0.00     0.169 OA 
HETATM   12  O   UNL     1     -11.383   8.187  70.700  1.00  0.00    -0.268 OA 
ENDROOT
BRANCH   4  13
HETATM   13  C   UNL     1      -9.819   4.477  71.410  1.00  0.00    -0.194 C  
BRANCH  13  14
HETATM   14  O   UNL     1      -8.409   4.335  71.671  1.00  0.00    -0.092 OA 
BRANCH  14  15
HETATM   15  C   UNL     1      -7.876   5.143  72.608  1.00  0.00    -0.098 C  
HETATM   16  O   UNL     1      -8.283   6.245  72.940  1.00  0.00    -0.115 OA 
HETATM   17  N   UNL     1      -6.756   4.582  73.123  1.00  0.00    -0.055 N  
HETATM   18  H2  UNL     1      -6.373   3.679  72.843  1.00  0.00     0.000 HD 
HETATM   19  H1  UNL     1      -6.353   5.193  73.832  1.00  0.00     0.000 HD 
ENDBRANCH  14  15
ENDBRANCH  13  14
ENDBRANCH   4  13
BRANCH   5  20
HETATM   20  N   UNL     1      -8.853   8.033  66.332  1.00  0.00    -0.148 N  
HETATM   21  H   UNL     1      -8.069   7.575  66.797  1.00  0.00     0.000 HD 
HETATM   22  C   UNL     1      -8.458   9.205  65.661  1.00  0.00    -0.139 C  
HETATM   23  O   UNL     1      -7.268   9.481  65.636  1.00  0.00    -0.089 OA 
BRANCH  22  24
HETATM   24  C   UNL     1      -9.451  10.232  65.143  1.00  0.00    -0.252 C  
BRANCH  24  25
HETATM   25  C   UNL     1      -9.865  11.337  66.000  1.00  0.00    -0.229 A  
HETATM   26  O   UNL     1      -9.565  11.371  67.337  1.00  0.00    -0.172 OA 
HETATM   27  C   UNL     1     -10.800  12.331  65.733  1.00  0.00    -0.313 A  
HETATM   28  C   UNL     1     -10.390  12.292  67.912  1.00  0.00    -0.208 A  
HETATM   29  C   UNL     1     -11.179  12.902  66.967  1.00  0.00    -0.329 A  
ENDBRANCH  24  25
BRANCH  24  30
HETATM   30  N   UNL     1     -10.153  10.146  64.052  1.00  0.00    -0.474 NA 
HETATM   31  H   UNL     1     -11.154   9.982  64.152  1.00  0.00     0.000 HD 
BRANCH  30  32
HETATM   32  O   UNL     1      -9.650  10.261  62.758  1.00  0.00    -0.315 OA 
HETATM   33  C   UNL     1      -8.534  11.073  62.477  1.00  0.00    -0.223 C  
ENDBRANCH  30  32
ENDBRANCH  24  30
ENDBRANCH  22  24
ENDBRANCH   5  20
TORSDOF 8
ENDMDL
MODEL      218
REMARK 921   NORMALIZED FREE ENERGY PREDICTED BY IDOCK:   -3.96 KCAL/MOL
REMARK 922        TOTAL FREE ENERGY PREDICTED BY IDOCK:   -7.21 KCAL/MOL
REMARK 923 INTER-LIGAND FREE ENERGY PREDICTED BY IDOCK:   -6.59 KCAL/MOL
REMARK 924 INTRA-LIGAND FREE ENERGY PREDICTED BY IDOCK:   -0.62 KCAL/MOL
REMARK 927      BINDING AFFINITY PREDICTED BY RF-SCORE:    0.00 PKD
ROOT
HETATM    1  C   UNL     1     -10.475  11.358  65.056  1.00  0.00    -0.303 C  
HETATM    2  S   UNL     1     -10.328  10.744  63.399  1.00  0.00     0.029 SA 
HETATM    3  C   UNL     1      -8.606  10.182  63.304  1.00  0.00    -0.198 C  
HETATM    4  C   UNL     1      -7.744  10.242  64.533  1.00  0.00    -0.107 C  
HETATM    5  CA  UNL     1     -10.843  12.819  65.599  1.00  0.00    -0.273 C  
HETATM    6  CA  UNL     1      -8.093  10.782  65.716  1.00  0.00    -0.135 C  
HETATM    7  C   UNL     1      -9.758  12.448  66.648  1.00  0.00    -0.225 C  
HETATM    8  C   UNL     1      -7.156  10.692  66.887  1.00  0.00    -0.109 C  
HETATM    9  N   UNL     1      -9.286  11.468  65.853  1.00  0.00    -0.221 N  
HETATM   10  OXT UNL     1      -6.479   9.694  67.081  1.00  0.00    -0.068 OA 
HETATM   11  O   UNL     1      -9.314  12.942  67.642  1.00  0.00    -0.181 OA 
HETATM   12  O   UNL     1      -7.109  11.735  67.730  1.00  0.00    -0.083 OA 
ENDROOT
BRANCH   4  13
HETATM   13  C   UNL     1      -6.326   9.740  64.247  1.00  0.00    -0.117 C  
BRANCH  13  14
HETATM   14  O   UNL     1      -6.179   8.330  64.505  1.00  0.00    -0.063 OA 
BRANCH  14  15
HETATM   15  C   UNL     1      -6.911   7.490  63.747  1.00  0.00    -0.059 C  
HETATM   16  O   UNL     1      -6.822   7.330  62.539  1.00  0.00    -0.065 OA 
HETATM   17  N   UNL     1      -7.831   6.856  64.511  1.00  0.00    -0.113 N  
HETATM   18  H2  UNL     1      -7.952   6.994  65.515  1.00  0.00     0.000 HD 
HETATM   19  H1  UNL     1      -8.385   6.221  63.937  1.00  0.00     0.000 HD 
ENDBRANCH  14  15
ENDBRANCH  13  14
ENDBRANCH   4  13
BRANCH   5  20
HETATM   20  N   UNL     1     -10.621  14.234  65.099  1.00  0.00    -0.380 N  
HETATM   21  H   UNL     1     -10.258  14.249  64.147  1.00  0.00     0.000 HD 
HETATM   22  C   UNL     1     -10.791  15.529  65.621  1.00  0.00    -0.346 C  
HETATM   23  O   UNL     1     -10.581  16.480  64.883  1.00  0.00    -0.689 OA 
BRANCH  22  24
HETATM   24  C   UNL     1     -11.029  15.798  67.098  1.00  0.00    -0.244 C  
BRANCH  24  25
HETATM   25  C   UNL     1     -10.320  16.887  67.760  1.00  0.00    -0.327 A  
HETATM   26  O   UNL     1     -10.896  18.115  67.956  1.00  0.00    -0.331 OA 
HETATM   27  C   UNL     1      -8.961  16.989  68.034  1.00  0.00    -0.230 A  
HETATM   28  C   UNL     1      -9.890  18.993  68.232  1.00  0.00    -0.378 A  
HETATM   29  C   UNL     1      -8.677  18.350  68.279  1.00  0.00    -0.321 A  
ENDBRANCH  24  25
BRANCH  24  30
HETATM   30  N   UNL     1     -11.671  15.032  67.929  1.00  0.00    -0.404 NA 
HETATM   31  H   UNL     1     -11.913  14.094  67.609  1.00  0.00     0.000 HD 
BRANCH  30  32
HETATM   32  O   UNL     1     -12.056  15.385  69.220  1.00  0.00    -0.315 OA 
HETATM   33  C   UNL     1     -12.052  14.445  70.268  1.00  0.00    -0.331 C  
ENDBRANCH  30  32
ENDBRANCH  24  30
ENDBRANCH  22  24
ENDBRANCH   5  20
TORSDOF 8
ENDMDL
MODEL      219
REMARK 921   NORMALIZED FREE ENERGY PREDICTED BY IDOCK:   -3.96 KCAL/MOL
REMARK 922        TOTAL FREE ENERGY PREDICTED BY IDOCK:   -7.21 KCAL/MOL
REMARK 923 INTER-LIGAND FREE ENERGY PREDICTED BY IDOCK:   -6.03 KCAL/MOL
REMARK 924 INTRA-LIGAND FREE ENERGY PREDICTED BY IDOCK:   -1.17 KCAL/MOL
REMARK 927      BINDING AFFINITY PREDICTED BY RF-SCORE:    0.00 PKD
ROOT
HETATM    1  C   UNL     1      -8.767   9.605  67.270  1.00  0.00    -0.132 C  
HETATM    2  S   UNL     1     -10.508   9.907  67.126  1.00  0.00    -0.227 SA 
HETATM    3  C   UNL     1     -10.693  11.620  67.695  1.00  0.00    -0.207 C  
HETATM    4  C   UNL     1      -9.466  12.411  68.052  1.00  0.00    -0.208 C  
HETATM    5  CA  UNL     1      -7.964   8.523  68.137  1.00  0.00    -0.111 C  
HETATM    6  CA  UNL     1      -8.206  11.938  68.094  1.00  0.00    -0.158 C  
HETATM    7  C   UNL     1      -6.994   9.725  68.308  1.00  0.00    -0.073 C  
HETATM    8  C   UNL     1      -7.065  12.871  68.384  1.00  0.00    -0.099 C  
HETATM    9  N   UNL     1      -7.954  10.590  67.925  1.00  0.00    -0.105 N  
HETATM   10  OXT UNL     1      -7.055  14.014  67.952  1.00  0.00    -0.124 OA 
HETATM   11  O   UNL     1      -5.922   9.904  68.805  1.00  0.00    -0.039 OA 
HETATM   12  O   UNL     1      -6.042  12.398  69.112  1.00  0.00    -0.074 OA 
ENDROOT
BRANCH   4  13
HETATM   13  C   UNL     1      -9.829  13.823  68.521  1.00  0.00    -0.204 C  
BRANCH  13  14
HETATM   14  O   UNL     1     -10.318  14.651  67.448  1.00  0.00    -0.240 OA 
BRANCH  14  15
HETATM   15  C   UNL     1     -11.115  15.683  67.787  1.00  0.00    -0.311 C  
HETATM   16  O   UNL     1     -10.937  16.862  67.520  1.00  0.00    -0.254 OA 
HETATM   17  N   UNL     1     -12.154  15.243  68.535  1.00  0.00    -0.572 N  
HETATM   18  H2  UNL     1     -12.311  14.271  68.802  1.00  0.00     0.000 HD 
HETATM   19  H1  UNL     1     -12.757  16.024  68.791  1.00  0.00     0.000 HD 
ENDBRANCH  14  15
ENDBRANCH  13  14
ENDBRANCH   4  13
BRANCH   5  20
HETATM   20  N   UNL     1      -8.189   7.842  69.473  1.00  0.00    -0.127 N  
HETATM   21  H   UNL     1      -7.374   7.918  70.082  1.00  0.00     0.000 HD 
HETATM   22  C   UNL     1      -9.240   7.132  70.083  1.00  0.00    -0.155 C  
HETATM   23  O   UNL     1      -9.101   6.782  71.245  1.00  0.00    -0.150 OA 
BRANCH  22  24
HETATM   24  C   UNL     1     -10.443   6.617  69.311  1.00  0.00    -0.214 C  
BRANCH  24  25
HETATM   25  C   UNL     1     -10.247   5.915  68.048  1.00  0.00    -0.184 A  
HETATM   26  O   UNL     1     -10.972   6.222  66.926  1.00  0.00    -0.358 OA 
HETATM   27  C   UNL     1      -9.569   4.723  67.821  1.00  0.00    -0.194 A  
HETATM   28  C   UNL     1     -10.840   5.175  66.062  1.00  0.00    -0.064 A  
HETATM   29  C   UNL     1      -9.996   4.220  66.573  1.00  0.00    -0.214 A  
ENDBRANCH  24  25
BRANCH  24  30
HETATM   30  N   UNL     1     -11.691   6.895  69.548  1.00  0.00    -0.600 NA 
HETATM   31  H   UNL     1     -12.191   7.435  68.843  1.00  0.00     0.000 HD 
BRANCH  30  32
HETATM   32  O   UNL     1     -12.400   6.517  70.685  1.00  0.00    -0.277 OA 
HETATM   33  C   UNL     1     -12.933   7.477  71.567  1.00  0.00    -0.359 C  
ENDBRANCH  30  32
ENDBRANCH  24  30
ENDBRANCH  22  24
ENDBRANCH   5  20
TORSDOF 8
ENDMDL
MODEL      220
REMARK 921   NORMALIZED FREE ENERGY PREDICTED BY IDOCK:   -3.95 KCAL/MOL
REMARK 922        TOTAL FREE ENERGY PREDICTED BY IDOCK:   -7.19 KCAL/MOL
REMARK 923 INTER-LIGAND FREE ENERGY PREDICTED BY IDOCK:   -5.42 KCAL/MOL
REMARK 924 INTRA-LIGAND FREE ENERGY PREDICTED BY IDOCK:   -1.77 KCAL/MOL
REMARK 927      BINDING AFFINITY PREDICTED BY RF-SCORE:    0.00 PKD
ROOT
HETATM    1  C   UNL     1      -6.843   7.601  70.816  1.00  0.00    -0.043 C  
HETATM    2  S   UNL     1      -7.266   9.287  70.468  1.00  0.00    -0.123 SA 
HETATM    3  C   UNL     1      -9.080   9.291  70.519  1.00  0.00    -0.259 C  
HETATM    4  C   UNL     1      -9.806   8.032  70.898  1.00  0.00    -0.195 C  
HETATM    5  CA  UNL     1      -6.038   6.526  69.944  1.00  0.00    -0.026 C  
HETATM    6  CA  UNL     1      -9.241   6.829  71.114  1.00  0.00    -0.159 C  
HETATM    7  C   UNL     1      -7.112   5.579  70.546  1.00  0.00    -0.062 C  
HETATM    8  C   UNL     1     -10.087   5.675  71.573  1.00  0.00    -0.201 C  
HETATM    9  N   UNL     1      -7.896   6.628  70.866  1.00  0.00    -0.104 N  
HETATM   10  OXT UNL     1     -11.007   5.838  72.360  1.00  0.00    -0.232 OA 
HETATM   11  O   UNL     1      -7.332   4.404  70.534  1.00  0.00    -0.047 OA 
HETATM   12  O   UNL     1      -9.779   4.453  71.112  1.00  0.00    -0.163 OA 
ENDROOT
BRANCH   4  13
HETATM   13  C   UNL     1     -11.324   8.232  70.869  1.00  0.00    -0.268 C  
BRANCH  13  14
HETATM   14  O   UNL     1     -11.797   9.016  71.981  1.00  0.00    -0.358 OA 
BRANCH  14  15
HETATM   15  C   UNL     1     -12.984   9.636  71.831  1.00  0.00    -0.435 C  
HETATM   16  O   UNL     1     -13.238  10.802  72.091  1.00  0.00    -0.473 OA 
HETATM   17  N   UNL     1     -13.914   8.758  71.386  1.00  0.00    -0.556 N  
HETATM   18  H2  UNL     1     -13.741   7.772  71.192  1.00  0.00     0.000 HD 
HETATM   19  H1  UNL     1     -14.812   9.228  71.272  1.00  0.00     0.000 HD 
ENDBRANCH  14  15
ENDBRANCH  13  14
ENDBRANCH   4  13
BRANCH   5  20
HETATM   20  N   UNL     1      -5.878   6.255  68.460  1.00  0.00    -0.015 N  
HETATM   21  H   UNL     1      -4.913   6.373  68.152  1.00  0.00     0.000 HD 
HETATM   22  C   UNL     1      -6.728   5.883  67.402  1.00  0.00    -0.058 C  
HETATM   23  O   UNL     1      -6.227   5.665  66.310  1.00  0.00    -0.032 OA 
BRANCH  22  24
HETATM   24  C   UNL     1      -8.244   5.930  67.508  1.00  0.00    -0.105 C  
BRANCH  24  25
HETATM   25  C   UNL     1      -8.959   7.141  67.123  1.00  0.00    -0.125 A  
HETATM   26  O   UNL     1      -8.318   8.339  66.946  1.00  0.00    -0.112 OA 
HETATM   27  C   UNL     1     -10.330   7.374  67.143  1.00  0.00    -0.377 A  
HETATM   28  C   UNL     1      -9.271   9.314  66.976  1.00  0.00    -0.138 A  
HETATM   29  C   UNL     1     -10.525   8.771  67.108  1.00  0.00    -0.354 A  
ENDBRANCH  24  25
BRANCH  24  30
HETATM   30  N   UNL     1      -9.005   5.057  68.098  1.00  0.00    -0.106 NA 
HETATM   31  H   UNL     1      -9.320   5.273  69.042  1.00  0.00     0.000 HD 
BRANCH  30  32
HETATM   32  O   UNL     1      -9.425   3.849  67.545  1.00  0.00    -0.177 OA 
HETATM   33  C   UNL     1      -8.636   3.162  66.603  1.00  0.00    -0.119 C  
ENDBRANCH  30  32
ENDBRANCH  24  30
ENDBRANCH  22  24
ENDBRANCH   5  20
TORSDOF 8
ENDMDL
MODEL      221
REMARK 921   NORMALIZED FREE ENERGY PREDICTED BY IDOCK:   -3.94 KCAL/MOL
REMARK 922        TOTAL FREE ENERGY PREDICTED BY IDOCK:   -7.18 KCAL/MOL
REMARK 923 INTER-LIGAND FREE ENERGY PREDICTED BY IDOCK:   -4.63 KCAL/MOL
REMARK 924 INTRA-LIGAND FREE ENERGY PREDICTED BY IDOCK:   -2.55 KCAL/MOL
REMARK 927      BINDING AFFINITY PREDICTED BY RF-SCORE:    0.00 PKD
ROOT
HETATM    1  C   UNL     1     -11.024   7.003  70.665  1.00  0.00    -0.260 C  
HETATM    2  S   UNL     1     -10.193   7.747  72.043  1.00  0.00    -0.213 SA 
HETATM    3  C   UNL     1      -9.319   9.155  71.305  1.00  0.00    -0.215 C  
HETATM    4  C   UNL     1      -9.513   9.457  69.846  1.00  0.00    -0.235 C  
HETATM    5  CA  UNL     1     -10.903   5.532  70.043  1.00  0.00    -0.231 C  
HETATM    6  CA  UNL     1     -10.212   8.709  68.971  1.00  0.00    -0.207 C  
HETATM    7  C   UNL     1     -11.048   6.331  68.719  1.00  0.00    -0.346 C  
HETATM    8  C   UNL     1     -10.393   9.183  67.557  1.00  0.00    -0.261 C  
HETATM    9  N   UNL     1     -10.721   7.480  69.345  1.00  0.00    -0.220 N  
HETATM   10  OXT UNL     1     -10.559  10.366  67.302  1.00  0.00    -0.235 OA 
HETATM   11  O   UNL     1     -11.153   6.067  67.558  1.00  0.00    -0.302 OA 
HETATM   12  O   UNL     1     -10.394   8.259  66.585  1.00  0.00    -0.308 OA 
ENDROOT
BRANCH   4  13
HETATM   13  C   UNL     1      -8.684  10.668  69.411  1.00  0.00    -0.023 C  
BRANCH  13  14
HETATM   14  O   UNL     1      -7.323  10.318  69.093  1.00  0.00    -0.077 OA 
BRANCH  14  15
HETATM   15  C   UNL     1      -6.413  10.441  70.079  1.00  0.00    -0.126 C  
HETATM   16  O   UNL     1      -6.207  11.431  70.764  1.00  0.00    -0.343 OA 
HETATM   17  N   UNL     1      -5.691   9.301  70.190  1.00  0.00    -0.030 N  
HETATM   18  H2  UNL     1      -5.817   8.471  69.612  1.00  0.00     0.000 HD 
HETATM   19  H1  UNL     1      -5.002   9.394  70.937  1.00  0.00     0.000 HD 
ENDBRANCH  14  15
ENDBRANCH  13  14
ENDBRANCH   4  13
BRANCH   5  20
HETATM   20  N   UNL     1      -9.786   4.513  69.915  1.00  0.00    -0.218 N  
HETATM   21  H   UNL     1     -10.107   3.567  70.124  1.00  0.00     0.000 HD 
HETATM   22  C   UNL     1      -8.420   4.545  69.581  1.00  0.00    -0.069 C  
HETATM   23  O   UNL     1      -7.823   3.483  69.495  1.00  0.00    -0.051 OA 
BRANCH  22  24
HETATM   24  C   UNL     1      -7.618   5.834  69.518  1.00  0.00    -0.087 C  
BRANCH  24  25
HETATM   25  C   UNL     1      -7.162   6.342  68.229  1.00  0.00    -0.085 A  
HETATM   26  O   UNL     1      -6.265   7.373  68.130  1.00  0.00    -0.040 OA 
HETATM   27  C   UNL     1      -7.707   6.110  66.971  1.00  0.00    -0.100 A  
HETATM   28  C   UNL     1      -6.341   7.852  66.855  1.00  0.00    -0.055 A  
HETATM   29  C   UNL     1      -7.224   7.115  66.105  1.00  0.00    -0.074 A  
ENDBRANCH  24  25
BRANCH  24  30
HETATM   30  N   UNL     1      -7.103   6.475  70.525  1.00  0.00    -0.064 NA 
HETATM   31  H   UNL     1      -6.669   7.377  70.334  1.00  0.00     0.000 HD 
BRANCH  30  32
HETATM   32  O   UNL     1      -7.097   6.030  71.845  1.00  0.00    -0.081 OA 
HETATM   33  C   UNL     1      -6.778   6.898  72.907  1.00  0.00    -0.069 C  
ENDBRANCH  30  32
ENDBRANCH  24  30
ENDBRANCH  22  24
ENDBRANCH   5  20
TORSDOF 8
ENDMDL
MODEL      222
REMARK 921   NORMALIZED FREE ENERGY PREDICTED BY IDOCK:   -3.91 KCAL/MOL
REMARK 922        TOTAL FREE ENERGY PREDICTED BY IDOCK:   -7.14 KCAL/MOL
REMARK 923 INTER-LIGAND FREE ENERGY PREDICTED BY IDOCK:   -6.36 KCAL/MOL
REMARK 924 INTRA-LIGAND FREE ENERGY PREDICTED BY IDOCK:   -0.78 KCAL/MOL
REMARK 927      BINDING AFFINITY PREDICTED BY RF-SCORE:    0.00 PKD
ROOT
HETATM    1  C   UNL     1     -10.292   9.456  66.321  1.00  0.00    -0.141 C  
HETATM    2  S   UNL     1     -10.902  10.162  67.828  1.00  0.00    -0.274 SA 
HETATM    3  C   UNL     1     -11.336  11.860  67.359  1.00  0.00    -0.324 C  
HETATM    4  C   UNL     1     -11.205  12.281  65.923  1.00  0.00    -0.381 C  
HETATM    5  CA  UNL     1      -8.860   8.836  65.964  1.00  0.00    -0.175 C  
HETATM    6  CA  UNL     1     -10.686  11.539  64.926  1.00  0.00    -0.297 C  
HETATM    7  C   UNL     1      -9.143   9.555  64.616  1.00  0.00    -0.210 C  
HETATM    8  C   UNL     1     -10.699  12.062  63.518  1.00  0.00    -0.455 C  
HETATM    9  N   UNL     1     -10.090  10.321  65.193  1.00  0.00    -0.314 N  
HETATM   10  OXT UNL     1     -11.643  12.709  63.092  1.00  0.00    -0.442 OA 
HETATM   11  O   UNL     1      -8.612   9.627  63.548  1.00  0.00    -0.178 OA 
HETATM   12  O   UNL     1      -9.651  11.768  62.734  1.00  0.00    -0.318 OA 
ENDROOT
BRANCH   4  13
HETATM   13  C   UNL     1     -11.603  13.748  65.733  1.00  0.00    -0.331 C  
BRANCH  13  14
HETATM   14  O   UNL     1     -10.459  14.617  65.616  1.00  0.00    -0.303 OA 
BRANCH  14  15
HETATM   15  C   UNL     1     -10.607  15.883  66.053  1.00  0.00    -0.323 C  
HETATM   16  O   UNL     1     -10.381  16.905  65.423  1.00  0.00    -0.609 OA 
HETATM   17  N   UNL     1     -11.004  15.885  67.347  1.00  0.00    -0.296 N  
HETATM   18  H2  UNL     1     -11.168  15.050  67.909  1.00  0.00     0.000 HD 
HETATM   19  H1  UNL     1     -11.116  16.843  67.678  1.00  0.00     0.000 HD 
ENDBRANCH  14  15
ENDBRANCH  13  14
ENDBRANCH   4  13
BRANCH   5  20
HETATM   20  N   UNL     1      -7.435   9.107  66.409  1.00  0.00    -0.092 N  
HETATM   21  H   UNL     1      -7.002   9.854  65.867  1.00  0.00     0.000 HD 
HETATM   22  C   UNL     1      -6.562   8.585  67.381  1.00  0.00    -0.059 C  
HETATM   23  O   UNL     1      -5.472   9.118  67.521  1.00  0.00    -0.037 OA 
BRANCH  22  24
HETATM   24  C   UNL     1      -6.833   7.284  68.118  1.00  0.00    -0.070 C  
BRANCH  24  25
HETATM   25  C   UNL     1      -7.225   6.096  67.370  1.00  0.00    -0.076 A  
HETATM   26  O   UNL     1      -6.558   5.693  66.244  1.00  0.00    -0.052 OA 
HETATM   27  C   UNL     1      -8.408   5.371  67.464  1.00  0.00    -0.103 A  
HETATM   28  C   UNL     1      -7.370   4.818  65.585  1.00  0.00    -0.077 A  
HETATM   29  C   UNL     1      -8.528   4.597  66.290  1.00  0.00    -0.113 A  
ENDBRANCH  24  25
BRANCH  24  30
HETATM   30  N   UNL     1      -6.945   7.134  69.405  1.00  0.00    -0.060 NA 
HETATM   31  H   UNL     1      -6.084   7.029  69.940  1.00  0.00     0.000 HD 
BRANCH  30  32
HETATM   32  O   UNL     1      -8.145   7.105  70.112  1.00  0.00    -0.124 OA 
HETATM   33  C   UNL     1      -8.352   6.190  71.162  1.00  0.00    -0.124 C  
ENDBRANCH  30  32
ENDBRANCH  24  30
ENDBRANCH  22  24
ENDBRANCH   5  20
TORSDOF 8
ENDMDL
MODEL      223
REMARK 921   NORMALIZED FREE ENERGY PREDICTED BY IDOCK:   -3.88 KCAL/MOL
REMARK 922        TOTAL FREE ENERGY PREDICTED BY IDOCK:   -7.10 KCAL/MOL
REMARK 923 INTER-LIGAND FREE ENERGY PREDICTED BY IDOCK:   -5.90 KCAL/MOL
REMARK 924 INTRA-LIGAND FREE ENERGY PREDICTED BY IDOCK:   -1.20 KCAL/MOL
REMARK 927      BINDING AFFINITY PREDICTED BY RF-SCORE:    0.00 PKD
ROOT
HETATM    1  C   UNL     1      -9.141  11.706  68.486  1.00  0.00    -0.157 C  
HETATM    2  S   UNL     1      -8.186  12.095  67.045  1.00  0.00    -0.135 SA 
HETATM    3  C   UNL     1      -9.040  13.533  66.342  1.00  0.00    -0.044 C  
HETATM    4  C   UNL     1     -10.210  14.124  67.077  1.00  0.00    -0.260 C  
HETATM    5  CA  UNL     1      -9.940  10.375  68.881  1.00  0.00    -0.199 C  
HETATM    6  CA  UNL     1     -10.778  13.623  68.191  1.00  0.00    -0.248 C  
HETATM    7  C   UNL     1     -10.946  11.422  69.434  1.00  0.00    -0.205 C  
HETATM    8  C   UNL     1     -11.891  14.371  68.867  1.00  0.00    -0.320 C  
HETATM    9  N   UNL     1     -10.383  12.396  68.691  1.00  0.00    -0.213 N  
HETATM   10  OXT UNL     1     -11.888  15.591  68.928  1.00  0.00    -0.361 OA 
HETATM   11  O   UNL     1     -11.965  11.394  70.058  1.00  0.00    -0.310 OA 
HETATM   12  O   UNL     1     -12.875  13.653  69.428  1.00  0.00     0.240 OA 
ENDROOT
BRANCH   4  13
HETATM   13  C   UNL     1     -10.802  15.315  66.320  1.00  0.00    -0.312 C  
BRANCH  13  14
HETATM   14  O   UNL     1      -9.852  16.385  66.146  1.00  0.00    -0.298 OA 
BRANCH  14  15
HETATM   15  C   UNL     1     -10.235  17.613  66.547  1.00  0.00    -0.355 C  
HETATM   16  O   UNL     1     -10.674  18.508  65.841  1.00  0.00    -0.404 OA 
HETATM   17  N   UNL     1     -10.016  17.758  67.875  1.00  0.00    -0.306 N  
HETATM   18  H2  UNL     1      -9.620  17.042  68.484  1.00  0.00     0.000 HD 
HETATM   19  H1  UNL     1     -10.306  18.688  68.178  1.00  0.00     0.000 HD 
ENDBRANCH  14  15
ENDBRANCH  13  14
ENDBRANCH   4  13
BRANCH   5  20
HETATM   20  N   UNL     1     -10.680   9.302  68.105  1.00  0.00    -0.398 N  
HETATM   21  H   UNL     1     -11.348   9.700  67.445  1.00  0.00     0.000 HD 
HETATM   22  C   UNL     1     -10.677   7.895  68.069  1.00  0.00    -0.054 C  
HETATM   23  O   UNL     1     -11.371   7.339  67.232  1.00  0.00    -0.064 OA 
BRANCH  22  24
HETATM   24  C   UNL     1     -10.009   7.046  69.138  1.00  0.00    -0.165 C  
BRANCH  24  25
HETATM   25  C   UNL     1      -9.245   5.865  68.753  1.00  0.00    -0.115 A  
HETATM   26  O   UNL     1      -8.079   5.955  68.039  1.00  0.00    -0.104 OA 
HETATM   27  C   UNL     1      -9.649   4.534  68.770  1.00  0.00    -0.227 A  
HETATM   28  C   UNL     1      -7.827   4.719  67.520  1.00  0.00    -0.094 A  
HETATM   29  C   UNL     1      -8.773   3.812  67.932  1.00  0.00    -0.124 A  
ENDBRANCH  24  25
BRANCH  24  30
HETATM   30  N   UNL     1     -10.194   7.134  70.422  1.00  0.00    -0.192 NA 
HETATM   31  H   UNL     1     -10.531   6.301  70.904  1.00  0.00     0.000 HD 
BRANCH  30  32
HETATM   32  O   UNL     1      -9.969   8.271  71.193  1.00  0.00    -0.176 OA 
HETATM   33  C   UNL     1     -10.568   8.428  72.458  1.00  0.00    -0.298 C  
ENDBRANCH  30  32
ENDBRANCH  24  30
ENDBRANCH  22  24
ENDBRANCH   5  20
TORSDOF 8
ENDMDL
MODEL      224
REMARK 921   NORMALIZED FREE ENERGY PREDICTED BY IDOCK:   -3.87 KCAL/MOL
REMARK 922        TOTAL FREE ENERGY PREDICTED BY IDOCK:   -7.07 KCAL/MOL
REMARK 923 INTER-LIGAND FREE ENERGY PREDICTED BY IDOCK:   -6.80 KCAL/MOL
REMARK 924 INTRA-LIGAND FREE ENERGY PREDICTED BY IDOCK:   -0.27 KCAL/MOL
REMARK 927      BINDING AFFINITY PREDICTED BY RF-SCORE:    0.00 PKD
ROOT
HETATM    1  C   UNL     1      -8.094  15.621  68.736  1.00  0.00    -0.169 C  
HETATM    2  S   UNL     1      -9.807  16.063  68.637  1.00  0.00    -0.227 SA 
HETATM    3  C   UNL     1     -10.584  14.597  67.902  1.00  0.00    -0.244 C  
HETATM    4  C   UNL     1      -9.746  13.380  67.632  1.00  0.00    -0.222 C  
HETATM    5  CA  UNL     1      -6.802  16.298  68.074  1.00  0.00    -0.131 C  
HETATM    6  CA  UNL     1      -8.411  13.289  67.788  1.00  0.00    -0.181 C  
HETATM    7  C   UNL     1      -6.388  14.808  67.920  1.00  0.00    -0.161 C  
HETATM    8  C   UNL     1      -7.717  11.977  67.560  1.00  0.00    -0.155 C  
HETATM    9  N   UNL     1      -7.662  14.407  68.103  1.00  0.00    -0.119 N  
HETATM   10  OXT UNL     1      -8.236  10.921  67.889  1.00  0.00    -0.111 OA 
HETATM   11  O   UNL     1      -5.420  14.215  67.545  1.00  0.00    -0.338 OA 
HETATM   12  O   UNL     1      -6.495  12.005  67.009  1.00  0.00    -0.149 OA 
ENDROOT
BRANCH   4  13
HETATM   13  C   UNL     1     -10.576  12.259  67.000  1.00  0.00    -0.223 C  
BRANCH  13  14
HETATM   14  O   UNL     1     -10.745  11.134  67.884  1.00  0.00    -0.191 OA 
BRANCH  14  15
HETATM   15  C   UNL     1     -11.533  11.316  68.962  1.00  0.00    -0.302 C  
HETATM   16  O   UNL     1     -12.532  12.016  69.027  1.00  0.00    -0.033 OA 
HETATM   17  N   UNL     1     -11.032  10.642  70.024  1.00  0.00    -0.393 N  
HETATM   18  H2  UNL     1     -10.182  10.077  70.009  1.00  0.00     0.000 HD 
HETATM   19  H1  UNL     1     -11.628  10.780  70.839  1.00  0.00     0.000 HD 
ENDBRANCH  14  15
ENDBRANCH  13  14
ENDBRANCH   4  13
BRANCH   5  20
HETATM   20  N   UNL     1      -6.529  17.049  66.784  1.00  0.00    -0.207 N  
HETATM   21  H   UNL     1      -6.001  16.486  66.119  1.00  0.00     0.000 HD 
HETATM   22  C   UNL     1      -6.823  18.329  66.278  1.00  0.00    -0.240 C  
HETATM   23  O   UNL     1      -6.508  18.577  65.124  1.00  0.00    -0.436 OA 
BRANCH  22  24
HETATM   24  C   UNL     1      -7.329  19.465  67.151  1.00  0.00    -0.212 C  
BRANCH  24  25
HETATM   25  C   UNL     1      -8.749  19.795  67.160  1.00  0.00    -0.323 A  
HETATM   26  O   UNL     1      -9.547  19.545  68.245  1.00  0.00    -0.340 OA 
HETATM   27  C   UNL     1      -9.564  20.123  66.081  1.00  0.00    -0.440 A  
HETATM   28  C   UNL     1     -10.841  19.600  67.816  1.00  0.00    -0.217 A  
HETATM   29  C   UNL     1     -10.903  19.940  66.487  1.00  0.00    -0.325 A  
ENDBRANCH  24  25
BRANCH  24  30
HETATM   30  N   UNL     1      -6.601  20.340  67.779  1.00  0.00    -0.249 NA 
HETATM   31  H   UNL     1      -6.703  21.316  67.505  1.00  0.00     0.000 HD 
BRANCH  30  32
HETATM   32  O   UNL     1      -5.694  20.054  68.796  1.00  0.00    -0.218 OA 
HETATM   33  C   UNL     1      -5.418  20.987  69.814  1.00  0.00    -0.243 C  
ENDBRANCH  30  32
ENDBRANCH  24  30
ENDBRANCH  22  24
ENDBRANCH   5  20
TORSDOF 8
ENDMDL
MODEL      225
REMARK 921   NORMALIZED FREE ENERGY PREDICTED BY IDOCK:   -3.86 KCAL/MOL
REMARK 922        TOTAL FREE ENERGY PREDICTED BY IDOCK:   -7.07 KCAL/MOL
REMARK 923 INTER-LIGAND FREE ENERGY PREDICTED BY IDOCK:   -5.33 KCAL/MOL
REMARK 924 INTRA-LIGAND FREE ENERGY PREDICTED BY IDOCK:   -1.74 KCAL/MOL
REMARK 927      BINDING AFFINITY PREDICTED BY RF-SCORE:    0.00 PKD
ROOT
HETATM    1  C   UNL     1      -7.093   9.912  67.326  1.00  0.00    -0.085 C  
HETATM    2  S   UNL     1      -7.757   8.802  66.114  1.00  0.00    -0.102 SA 
HETATM    3  C   UNL     1      -9.337   9.567  65.655  1.00  0.00    -0.241 C  
HETATM    4  C   UNL     1      -9.707  10.898  66.246  1.00  0.00    -0.245 C  
HETATM    5  CA  UNL     1      -6.701   9.669  68.860  1.00  0.00    -0.046 C  
HETATM    6  CA  UNL     1      -9.015  11.562  67.191  1.00  0.00    -0.166 C  
HETATM    7  C   UNL     1      -7.301  11.097  68.997  1.00  0.00    -0.120 C  
HETATM    8  C   UNL     1      -9.462  12.929  67.625  1.00  0.00    -0.197 C  
HETATM    9  N   UNL     1      -7.926  10.977  67.808  1.00  0.00    -0.112 N  
HETATM   10  OXT UNL     1      -9.924  13.728  66.825  1.00  0.00    -0.256 OA 
HETATM   11  O   UNL     1      -7.410  11.907  69.868  1.00  0.00     0.422 OA 
HETATM   12  O   UNL     1      -9.309  13.254  68.918  1.00  0.00     0.048 OA 
ENDROOT
BRANCH   4  13
HETATM   13  C   UNL     1     -11.077  11.368  65.750  1.00  0.00    -0.153 C  
BRANCH  13  14
HETATM   14  O   UNL     1     -11.002  12.036  64.475  1.00  0.00    -0.292 OA 
BRANCH  14  15
HETATM   15  C   UNL     1     -11.989  12.904  64.180  1.00  0.00    -0.423 C  
HETATM   16  O   UNL     1     -11.989  14.108  64.386  1.00  0.00    -0.429 OA 
HETATM   17  N   UNL     1     -13.047  12.244  63.653  1.00  0.00    -0.760 N  
HETATM   18  H2  UNL     1     -13.089  11.236  63.500  1.00  0.00     0.000 HD 
HETATM   19  H1  UNL     1     -13.794  12.902  63.430  1.00  0.00     0.000 HD 
ENDBRANCH  14  15
ENDBRANCH  13  14
ENDBRANCH   4  13
BRANCH   5  20
HETATM   20  N   UNL     1      -7.225   8.777  69.970  1.00  0.00    -0.050 N  
HETATM   21  H   UNL     1      -6.481   8.471  70.596  1.00  0.00     0.000 HD 
HETATM   22  C   UNL     1      -8.479   8.267  70.351  1.00  0.00    -0.129 C  
HETATM   23  O   UNL     1      -8.549   7.622  71.387  1.00  0.00    -0.117 OA 
BRANCH  22  24
HETATM   24  C   UNL     1      -9.698   8.314  69.444  1.00  0.00    -0.177 C  
BRANCH  24  25
HETATM   25  C   UNL     1      -9.932   7.237  68.489  1.00  0.00    -0.162 A  
HETATM   26  O   UNL     1      -8.976   6.298  68.204  1.00  0.00    -0.117 OA 
HETATM   27  C   UNL     1     -10.953   7.124  67.552  1.00  0.00    -0.261 A  
HETATM   28  C   UNL     1      -9.340   5.692  67.038  1.00  0.00    -0.118 A  
HETATM   29  C   UNL     1     -10.546   6.175  66.590  1.00  0.00    -0.296 A  
ENDBRANCH  24  25
BRANCH  24  30
HETATM   30  N   UNL     1     -10.495   9.326  69.272  1.00  0.00    -0.215 NA 
HETATM   31  H   UNL     1     -11.018   9.366  68.399  1.00  0.00     0.000 HD 
BRANCH  30  32
HETATM   32  O   UNL     1     -10.693  10.361  70.183  1.00  0.00    -0.280 OA 
HETATM   33  C   UNL     1     -11.522  10.195  71.309  1.00  0.00    -0.249 C  
ENDBRANCH  30  32
ENDBRANCH  24  30
ENDBRANCH  22  24
ENDBRANCH   5  20
TORSDOF 8
ENDMDL
MODEL      226
REMARK 921   NORMALIZED FREE ENERGY PREDICTED BY IDOCK:   -3.83 KCAL/MOL
REMARK 922        TOTAL FREE ENERGY PREDICTED BY IDOCK:   -7.02 KCAL/MOL
REMARK 923 INTER-LIGAND FREE ENERGY PREDICTED BY IDOCK:   -4.43 KCAL/MOL
REMARK 924 INTRA-LIGAND FREE ENERGY PREDICTED BY IDOCK:   -2.59 KCAL/MOL
REMARK 927      BINDING AFFINITY PREDICTED BY RF-SCORE:    0.00 PKD
ROOT
HETATM    1  C   UNL     1      -8.349   7.695  73.345  1.00  0.00    -0.158 C  
HETATM    2  S   UNL     1      -8.081   6.241  74.322  1.00  0.00    -0.116 SA 
HETATM    3  C   UNL     1      -7.343   5.069  73.150  1.00  0.00    -0.087 C  
HETATM    4  C   UNL     1      -7.040   5.524  71.750  1.00  0.00    -0.077 C  
HETATM    5  CA  UNL     1      -9.699   8.482  72.995  1.00  0.00     0.008 C  
HETATM    6  CA  UNL     1      -7.361   6.720  71.221  1.00  0.00    -0.082 C  
HETATM    7  C   UNL     1      -8.988   8.619  71.620  1.00  0.00    -0.235 C  
HETATM    8  C   UNL     1      -6.915   7.068  69.829  1.00  0.00    -0.059 C  
HETATM    9  N   UNL     1      -8.144   7.614  71.927  1.00  0.00    -0.097 N  
HETATM   10  OXT UNL     1      -5.823   6.718  69.408  1.00  0.00    -0.017 OA 
HETATM   11  O   UNL     1      -9.206   9.180  70.587  1.00  0.00    -0.216 OA 
HETATM   12  O   UNL     1      -7.746   7.801  69.073  1.00  0.00    -0.104 OA 
ENDROOT
BRANCH   4  13
HETATM   13  C   UNL     1      -6.438   4.391  70.913  1.00  0.00    -0.030 C  
BRANCH  13  14
HETATM   14  O   UNL     1      -7.435   3.675  70.157  1.00  0.00    -0.041 OA 
BRANCH  14  15
HETATM   15  C   UNL     1      -7.805   2.467  70.625  1.00  0.00    -0.042 C  
HETATM   16  O   UNL     1      -7.067   1.542  70.924  1.00  0.00    -0.031 OA 
HETATM   17  N   UNL     1      -9.155   2.383  70.676  1.00  0.00    -0.096 N  
HETATM   18  H2  UNL     1      -9.798   3.125  70.401  1.00  0.00     0.000 HD 
HETATM   19  H1  UNL     1      -9.436   1.468  71.029  1.00  0.00     0.000 HD 
ENDBRANCH  14  15
ENDBRANCH  13  14
ENDBRANCH   4  13
BRANCH   5  20
HETATM   20  N   UNL     1     -11.149   8.084  72.793  1.00  0.00    -0.392 N  
HETATM   21  H   UNL     1     -11.784   8.667  73.338  1.00  0.00     0.000 HD 
HETATM   22  C   UNL     1     -11.836   7.112  72.043  1.00  0.00    -0.295 C  
HETATM   23  O   UNL     1     -13.057   7.131  72.057  1.00  0.00    -0.248 OA 
BRANCH  22  24
HETATM   24  C   UNL     1     -11.137   5.934  71.384  1.00  0.00    -0.248 C  
BRANCH  24  25
HETATM   25  C   UNL     1     -11.082   5.845  69.930  1.00  0.00    -0.347 A  
HETATM   26  O   UNL     1     -10.311   4.913  69.288  1.00  0.00    -0.187 OA 
HETATM   27  C   UNL     1     -11.521   6.774  68.993  1.00  0.00    -0.072 A  
HETATM   28  C   UNL     1     -10.174   5.324  67.995  1.00  0.00    -0.143 A  
HETATM   29  C   UNL     1     -10.891   6.473  67.767  1.00  0.00    -0.395 A  
ENDBRANCH  24  25
BRANCH  24  30
HETATM   30  N   UNL     1     -10.725   4.852  71.975  1.00  0.00    -0.144 NA 
HETATM   31  H   UNL     1     -10.099   4.242  71.450  1.00  0.00     0.000 HD 
BRANCH  30  32
HETATM   32  O   UNL     1     -11.068   4.456  73.265  1.00  0.00    -0.251 OA 
HETATM   33  C   UNL     1     -11.106   3.095  73.627  1.00  0.00    -0.226 C  
ENDBRANCH  30  32
ENDBRANCH  24  30
ENDBRANCH  22  24
ENDBRANCH   5  20
TORSDOF 8
ENDMDL
MODEL      227
REMARK 921   NORMALIZED FREE ENERGY PREDICTED BY IDOCK:   -3.80 KCAL/MOL
REMARK 922        TOTAL FREE ENERGY PREDICTED BY IDOCK:   -6.98 KCAL/MOL
REMARK 923 INTER-LIGAND FREE ENERGY PREDICTED BY IDOCK:   -5.74 KCAL/MOL
REMARK 924 INTRA-LIGAND FREE ENERGY PREDICTED BY IDOCK:   -1.24 KCAL/MOL
REMARK 927      BINDING AFFINITY PREDICTED BY RF-SCORE:    0.00 PKD
ROOT
HETATM    1  C   UNL     1     -10.777   9.310  68.385  1.00  0.00    -0.145 C  
HETATM    2  S   UNL     1     -11.135  10.679  69.452  1.00  0.00    -0.280 SA 
HETATM    3  C   UNL     1     -10.785  12.129  68.419  1.00  0.00    -0.228 C  
HETATM    4  C   UNL     1     -10.394  11.929  66.982  1.00  0.00    -0.239 C  
HETATM    5  CA  UNL     1      -9.715   8.120  68.534  1.00  0.00    -0.162 C  
HETATM    6  CA  UNL     1     -10.168  10.745  66.382  1.00  0.00    -0.240 C  
HETATM    7  C   UNL     1      -9.580   8.360  67.005  1.00  0.00    -0.190 C  
HETATM    8  C   UNL     1      -9.867  10.694  64.911  1.00  0.00    -0.302 C  
HETATM    9  N   UNL     1     -10.156   9.574  67.118  1.00  0.00    -0.214 N  
HETATM   10  OXT UNL     1     -10.422  11.447  64.125  1.00  0.00    -0.306 OA 
HETATM   11  O   UNL     1      -8.997   7.844  66.098  1.00  0.00    -0.168 OA 
HETATM   12  O   UNL     1      -8.988   9.775  64.485  1.00  0.00    -0.207 OA 
ENDROOT
BRANCH   4  13
HETATM   13  C   UNL     1     -10.127  13.266  66.284  1.00  0.00    -0.294 C  
BRANCH  13  14
HETATM   14  O   UNL     1     -11.213  14.198  66.447  1.00  0.00    -0.315 OA 
BRANCH  14  15
HETATM   15  C   UNL     1     -11.764  14.698  65.324  1.00  0.00    -0.346 C  
HETATM   16  O   UNL     1     -11.400  15.689  64.709  1.00  0.00    -0.409 OA 
HETATM   17  N   UNL     1     -12.847  13.966  64.972  1.00  0.00    -0.733 N  
HETATM   18  H2  UNL     1     -13.195  13.154  65.483  1.00  0.00     0.000 HD 
HETATM   19  H1  UNL     1     -13.264  14.344  64.121  1.00  0.00     0.000 HD 
ENDBRANCH  14  15
ENDBRANCH  13  14
ENDBRANCH   4  13
BRANCH   5  20
HETATM   20  N   UNL     1      -8.341   7.984  69.162  1.00  0.00    -0.130 N  
HETATM   21  H   UNL     1      -8.025   8.859  69.581  1.00  0.00     0.000 HD 
HETATM   22  C   UNL     1      -7.394   6.954  69.312  1.00  0.00    -0.092 C  
HETATM   23  O   UNL     1      -6.391   7.185  69.970  1.00  0.00    -0.030 OA 
BRANCH  22  24
HETATM   24  C   UNL     1      -7.468   5.649  68.538  1.00  0.00    -0.080 C  
BRANCH  24  25
HETATM   25  C   UNL     1      -7.806   4.412  69.234  1.00  0.00    -0.058 A  
HETATM   26  O   UNL     1      -6.848   3.605  69.788  1.00  0.00    -0.036 OA 
HETATM   27  C   UNL     1      -9.013   3.721  69.224  1.00  0.00    -0.172 A  
HETATM   28  C   UNL     1      -7.424   2.388  70.007  1.00  0.00    -0.043 A  
HETATM   29  C   UNL     1      -8.754   2.405  69.664  1.00  0.00    -0.125 A  
ENDBRANCH  24  25
BRANCH  24  30
HETATM   30  N   UNL     1      -7.070   5.451  67.317  1.00  0.00    -0.069 NA 
HETATM   31  H   UNL     1      -6.324   6.050  66.965  1.00  0.00     0.000 HD 
BRANCH  30  32
HETATM   32  O   UNL     1      -7.578   4.487  66.449  1.00  0.00    -0.088 OA 
HETATM   33  C   UNL     1      -6.737   3.538  65.837  1.00  0.00    -0.041 C  
ENDBRANCH  30  32
ENDBRANCH  24  30
ENDBRANCH  22  24
ENDBRANCH   5  20
TORSDOF 8
ENDMDL
MODEL      228
REMARK 921   NORMALIZED FREE ENERGY PREDICTED BY IDOCK:   -3.77 KCAL/MOL
REMARK 922        TOTAL FREE ENERGY PREDICTED BY IDOCK:   -6.92 KCAL/MOL
REMARK 923 INTER-LIGAND FREE ENERGY PREDICTED BY IDOCK:   -5.85 KCAL/MOL
REMARK 924 INTRA-LIGAND FREE ENERGY PREDICTED BY IDOCK:   -1.08 KCAL/MOL
REMARK 927      BINDING AFFINITY PREDICTED BY RF-SCORE:    0.00 PKD
ROOT
HETATM    1  C   UNL     1     -10.855   8.686  68.389  1.00  0.00     0.057 C  
HETATM    2  S   UNL     1     -10.038   7.867  67.046  1.00  0.00    -0.303 SA 
HETATM    3  C   UNL     1      -9.095   6.549  67.862  1.00  0.00    -0.113 C  
HETATM    4  C   UNL     1      -9.238   6.353  69.344  1.00  0.00    -0.143 C  
HETATM    5  CA  UNL     1     -10.768  10.204  68.893  1.00  0.00    -0.223 C  
HETATM    6  CA  UNL     1      -9.937   7.143  70.182  1.00  0.00    -0.186 C  
HETATM    7  C   UNL     1     -10.849   9.504  70.278  1.00  0.00    -0.269 C  
HETATM    8  C   UNL     1     -10.062   6.773  71.632  1.00  0.00    -0.183 C  
HETATM    9  N   UNL     1     -10.499   8.323  69.731  1.00  0.00    -0.218 N  
HETATM   10  OXT UNL     1     -10.179   5.608  71.981  1.00  0.00    -0.193 OA 
HETATM   11  O   UNL     1     -10.930   9.853  71.418  1.00  0.00    -0.287 OA 
HETATM   12  O   UNL     1     -10.068   7.769  72.531  1.00  0.00    -0.202 OA 
ENDROOT
BRANCH   4  13
HETATM   13  C   UNL     1      -8.354   5.207  69.845  1.00  0.00    -0.093 C  
BRANCH  13  14
HETATM   14  O   UNL     1      -7.695   4.510  68.769  1.00  0.00    -0.070 OA 
BRANCH  14  15
HETATM   15  C   UNL     1      -6.415   4.143  68.973  1.00  0.00    -0.040 C  
HETATM   16  O   UNL     1      -5.631   3.727  68.133  1.00  0.00    -0.016 OA 
HETATM   17  N   UNL     1      -6.104   4.248  70.287  1.00  0.00    -0.018 N  
HETATM   18  H2  UNL     1      -6.746   4.559  71.016  1.00  0.00     0.000 HD 
HETATM   19  H1  UNL     1      -5.135   3.970  70.441  1.00  0.00     0.000 HD 
ENDBRANCH  14  15
ENDBRANCH  13  14
ENDBRANCH   4  13
BRANCH   5  20
HETATM   20  N   UNL     1      -9.685  11.266  68.910  1.00  0.00    -0.356 N  
HETATM   21  H   UNL     1      -9.441  11.548  69.859  1.00  0.00     0.000 HD 
HETATM   22  C   UNL     1      -8.934  11.960  67.943  1.00  0.00    -0.179 C  
HETATM   23  O   UNL     1      -8.056  12.716  68.330  1.00  0.00    -0.155 OA 
BRANCH  22  24
HETATM   24  C   UNL     1      -9.291  11.961  66.466  1.00  0.00    -0.216 C  
BRANCH  24  25
HETATM   25  C   UNL     1     -10.426  12.748  65.996  1.00  0.00    -0.274 A  
HETATM   26  O   UNL     1     -10.350  13.534  64.876  1.00  0.00    -0.366 OA 
HETATM   27  C   UNL     1     -11.598  13.061  66.675  1.00  0.00    -0.410 A  
HETATM   28  C   UNL     1     -11.398  14.405  64.924  1.00  0.00    -0.380 A  
HETATM   29  C   UNL     1     -12.189  14.162  66.020  1.00  0.00    -0.464 A  
ENDBRANCH  24  25
BRANCH  24  30
HETATM   30  N   UNL     1      -8.810  11.170  65.554  1.00  0.00    -0.312 NA 
HETATM   31  H   UNL     1      -9.230  11.215  64.627  1.00  0.00     0.000 HD 
BRANCH  30  32
HETATM   32  O   UNL     1      -7.767  10.265  65.740  1.00  0.00    -0.131 OA 
HETATM   33  C   UNL     1      -6.423  10.685  65.721  1.00  0.00    -0.107 C  
ENDBRANCH  30  32
ENDBRANCH  24  30
ENDBRANCH  22  24
ENDBRANCH   5  20
TORSDOF 8
ENDMDL
MODEL      229
REMARK 921   NORMALIZED FREE ENERGY PREDICTED BY IDOCK:   -3.76 KCAL/MOL
REMARK 922        TOTAL FREE ENERGY PREDICTED BY IDOCK:   -6.92 KCAL/MOL
REMARK 923 INTER-LIGAND FREE ENERGY PREDICTED BY IDOCK:   -6.69 KCAL/MOL
REMARK 924 INTRA-LIGAND FREE ENERGY PREDICTED BY IDOCK:   -0.23 KCAL/MOL
REMARK 927      BINDING AFFINITY PREDICTED BY RF-SCORE:    0.00 PKD
ROOT
HETATM    1  C   UNL     1     -10.374   8.424  67.144  1.00  0.00    -0.311 C  
HETATM    2  S   UNL     1     -11.079   9.771  68.056  1.00  0.00     0.007 SA 
HETATM    3  C   UNL     1     -10.811  11.204  66.977  1.00  0.00    -0.284 C  
HETATM    4  C   UNL     1     -10.198  10.997  65.621  1.00  0.00    -0.318 C  
HETATM    5  CA  UNL     1      -9.177   7.427  67.514  1.00  0.00    -0.130 C  
HETATM    6  CA  UNL     1      -9.715   9.836  65.141  1.00  0.00    -0.268 C  
HETATM    7  C   UNL     1      -8.868   7.609  66.002  1.00  0.00    -0.155 C  
HETATM    8  C   UNL     1      -9.207   9.761  63.729  1.00  0.00    -0.189 C  
HETATM    9  N   UNL     1      -9.630   8.720  65.953  1.00  0.00    -0.223 N  
HETATM   10  OXT UNL     1      -9.754  10.376  62.826  1.00  0.00    -0.312 OA 
HETATM   11  O   UNL     1      -8.094   7.147  65.217  1.00  0.00    -0.125 OA 
HETATM   12  O   UNL     1      -8.150   8.972  63.487  1.00  0.00    -0.146 OA 
ENDROOT
BRANCH   4  13
HETATM   13  C   UNL     1     -10.040  12.323  64.871  1.00  0.00    -0.250 C  
BRANCH  13  14
HETATM   14  O   UNL     1     -11.130  12.575  63.962  1.00  0.00    -0.337 OA 
BRANCH  14  15
HETATM   15  C   UNL     1     -12.363  12.667  64.497  1.00  0.00    -0.464 C  
HETATM   16  O   UNL     1     -13.315  11.936  64.270  1.00  0.00    -0.610 OA 
HETATM   17  N   UNL     1     -12.436  13.745  65.314  1.00  0.00    -0.488 N  
HETATM   18  H2  UNL     1     -11.669  14.392  65.497  1.00  0.00     0.000 HD 
HETATM   19  H1  UNL     1     -13.370  13.814  65.718  1.00  0.00     0.000 HD 
ENDBRANCH  14  15
ENDBRANCH  13  14
ENDBRANCH   4  13
BRANCH   5  20
HETATM   20  N   UNL     1      -7.900   7.542  68.323  1.00  0.00    -0.120 N  
HETATM   21  H   UNL     1      -7.205   6.850  68.041  1.00  0.00     0.000 HD 
HETATM   22  C   UNL     1      -7.433   8.364  69.366  1.00  0.00    -0.089 C  
HETATM   23  O   UNL     1      -6.277   8.224  69.736  1.00  0.00    -0.032 OA 
BRANCH  22  24
HETATM   24  C   UNL     1      -8.348   9.269  70.174  1.00  0.00    -0.178 C  
BRANCH  24  25
HETATM   25  C   UNL     1      -9.523   8.710  70.832  1.00  0.00    -0.194 A  
HETATM   26  O   UNL     1     -10.575   9.493  71.228  1.00  0.00    -0.332 OA 
HETATM   27  C   UNL     1      -9.675   7.449  71.398  1.00  0.00    -0.175 A  
HETATM   28  C   UNL     1     -11.304   8.767  72.122  1.00  0.00    -0.341 A  
HETATM   29  C   UNL     1     -10.783   7.505  72.271  1.00  0.00    -0.294 A  
ENDBRANCH  24  25
BRANCH  24  30
HETATM   30  N   UNL     1      -8.320  10.568  70.203  1.00  0.00    -0.301 NA 
HETATM   31  H   UNL     1      -9.178  11.048  70.473  1.00  0.00     0.000 HD 
BRANCH  30  32
HETATM   32  O   UNL     1      -7.216  11.359  69.895  1.00  0.00     0.066 OA 
HETATM   33  C   UNL     1      -7.242  12.265  68.817  1.00  0.00    -0.098 C  
ENDBRANCH  30  32
ENDBRANCH  24  30
ENDBRANCH  22  24
ENDBRANCH   5  20
TORSDOF 8
ENDMDL
MODEL      230
REMARK 921   NORMALIZED FREE ENERGY PREDICTED BY IDOCK:   -3.76 KCAL/MOL
REMARK 922        TOTAL FREE ENERGY PREDICTED BY IDOCK:   -6.91 KCAL/MOL
REMARK 923 INTER-LIGAND FREE ENERGY PREDICTED BY IDOCK:   -6.23 KCAL/MOL
REMARK 924 INTRA-LIGAND FREE ENERGY PREDICTED BY IDOCK:   -0.68 KCAL/MOL
REMARK 927      BINDING AFFINITY PREDICTED BY RF-SCORE:    0.00 PKD
ROOT
HETATM    1  C   UNL     1      -9.325  13.018  67.198  1.00  0.00    -0.230 C  
HETATM    2  S   UNL     1     -10.852  13.774  67.685  1.00  0.00    -0.257 SA 
HETATM    3  C   UNL     1     -10.365  15.458  68.152  1.00  0.00    -0.239 C  
HETATM    4  C   UNL     1      -8.937  15.886  67.970  1.00  0.00    -0.182 C  
HETATM    5  CA  UNL     1      -8.560  11.739  67.785  1.00  0.00    -0.151 C  
HETATM    6  CA  UNL     1      -7.919  15.096  67.579  1.00  0.00    -0.174 C  
HETATM    7  C   UNL     1      -7.324  12.635  67.495  1.00  0.00    -0.151 C  
HETATM    8  C   UNL     1      -6.555  15.685  67.356  1.00  0.00    -0.159 C  
HETATM    9  N   UNL     1      -8.102  13.734  67.430  1.00  0.00    -0.181 N  
HETATM   10  OXT UNL     1      -6.417  16.796  66.866  1.00  0.00    -0.179 OA 
HETATM   11  O   UNL     1      -6.136  12.511  67.546  1.00  0.00    -0.126 OA 
HETATM   12  O   UNL     1      -5.491  14.938  67.688  1.00  0.00    -0.296 OA 
ENDROOT
BRANCH   4  13
HETATM   13  C   UNL     1      -8.723  17.330  68.433  1.00  0.00    -0.261 C  
BRANCH  13  14
HETATM   14  O   UNL     1      -8.790  18.273  67.345  1.00  0.00    -0.250 OA 
BRANCH  14  15
HETATM   15  C   UNL     1      -9.936  18.970  67.210  1.00  0.00    -0.344 C  
HETATM   16  O   UNL     1     -10.407  19.762  68.010  1.00  0.00    -0.427 OA 
HETATM   17  N   UNL     1     -10.552  18.631  66.053  1.00  0.00    -0.436 N  
HETATM   18  H2  UNL     1     -10.200  17.949  65.381  1.00  0.00     0.000 HD 
HETATM   19  H1  UNL     1     -11.419  19.159  65.951  1.00  0.00     0.000 HD 
ENDBRANCH  14  15
ENDBRANCH  13  14
ENDBRANCH   4  13
BRANCH   5  20
HETATM   20  N   UNL     1      -8.431  11.105  69.157  1.00  0.00    -0.373 N  
HETATM   21  H   UNL     1      -8.050  11.755  69.844  1.00  0.00     0.000 HD 
HETATM   22  C   UNL     1      -8.707   9.844  69.719  1.00  0.00    -0.212 C  
HETATM   23  O   UNL     1      -8.551   9.704  70.923  1.00  0.00    -0.233 OA 
BRANCH  22  24
HETATM   24  C   UNL     1      -8.995   8.613  68.877  1.00  0.00    -0.142 C  
BRANCH  24  25
HETATM   25  C   UNL     1      -7.915   7.974  68.134  1.00  0.00    -0.128 A  
HETATM   26  O   UNL     1      -7.560   8.381  66.875  1.00  0.00    -0.089 OA 
HETATM   27  C   UNL     1      -7.287   6.762  68.398  1.00  0.00    -0.087 A  
HETATM   28  C   UNL     1      -6.819   7.379  66.321  1.00  0.00    -0.061 A  
HETATM   29  C   UNL     1      -6.634   6.353  67.215  1.00  0.00    -0.058 A  
ENDBRANCH  24  25
BRANCH  24  30
HETATM   30  N   UNL     1     -10.168   8.142  68.572  1.00  0.00    -0.204 NA 
HETATM   31  H   UNL     1     -10.894   8.198  69.285  1.00  0.00     0.000 HD 
BRANCH  30  32
HETATM   32  O   UNL     1     -10.515   7.568  67.352  1.00  0.00    -0.245 OA 
HETATM   33  C   UNL     1     -10.849   6.204  67.254  1.00  0.00    -0.352 C  
ENDBRANCH  30  32
ENDBRANCH  24  30
ENDBRANCH  22  24
ENDBRANCH   5  20
TORSDOF 8
ENDMDL
MODEL      231
REMARK 921   NORMALIZED FREE ENERGY PREDICTED BY IDOCK:   -3.74 KCAL/MOL
REMARK 922        TOTAL FREE ENERGY PREDICTED BY IDOCK:   -6.88 KCAL/MOL
REMARK 923 INTER-LIGAND FREE ENERGY PREDICTED BY IDOCK:   -5.72 KCAL/MOL
REMARK 924 INTRA-LIGAND FREE ENERGY PREDICTED BY IDOCK:   -1.17 KCAL/MOL
REMARK 927      BINDING AFFINITY PREDICTED BY RF-SCORE:    0.00 PKD
ROOT
HETATM    1  C   UNL     1      -9.238   8.358  67.610  1.00  0.00    -0.134 C  
HETATM    2  S   UNL     1     -10.047   9.845  67.085  1.00  0.00    -0.228 SA 
HETATM    3  C   UNL     1     -10.988  10.359  68.549  1.00  0.00    -0.254 C  
HETATM    4  C   UNL     1     -10.850   9.575  69.822  1.00  0.00    -0.264 C  
HETATM    5  CA  UNL     1      -9.333   6.863  67.044  1.00  0.00    -0.145 C  
HETATM    6  CA  UNL     1     -10.157   8.430  69.974  1.00  0.00    -0.192 C  
HETATM    7  C   UNL     1      -9.255   6.532  68.560  1.00  0.00    -0.125 C  
HETATM    8  C   UNL     1     -10.036   7.801  71.333  1.00  0.00    -0.182 C  
HETATM    9  N   UNL     1      -9.598   7.796  68.881  1.00  0.00    -0.153 N  
HETATM   10  OXT UNL     1      -9.915   8.485  72.339  1.00  0.00    -0.302 OA 
HETATM   11  O   UNL     1      -9.179   5.542  69.225  1.00  0.00    -0.110 OA 
HETATM   12  O   UNL     1     -10.037   6.462  71.403  1.00  0.00    -0.188 OA 
ENDROOT
BRANCH   4  13
HETATM   13  C   UNL     1     -11.730  10.154  70.933  1.00  0.00    -0.378 C  
BRANCH  13  14
HETATM   14  O   UNL     1     -12.646  11.154  70.445  1.00  0.00    -0.293 OA 
BRANCH  14  15
HETATM   15  C   UNL     1     -12.776  12.275  71.180  1.00  0.00    -0.243 C  
HETATM   16  O   UNL     1     -13.483  12.427  72.164  1.00  0.00    -0.525 OA 
HETATM   17  N   UNL     1     -12.033  13.272  70.643  1.00  0.00    -0.532 N  
HETATM   18  H2  UNL     1     -11.459  13.185  69.804  1.00  0.00     0.000 HD 
HETATM   19  H1  UNL     1     -12.131  14.121  71.200  1.00  0.00     0.000 HD 
ENDBRANCH  14  15
ENDBRANCH  13  14
ENDBRANCH   4  13
BRANCH   5  20
HETATM   20  N   UNL     1     -10.420   6.034  66.386  1.00  0.00    -0.459 N  
HETATM   21  H   UNL     1     -11.347   6.432  66.537  1.00  0.00     0.000 HD 
HETATM   22  C   UNL     1     -10.470   4.855  65.621  1.00  0.00    -0.121 C  
HETATM   23  O   UNL     1     -11.550   4.506  65.170  1.00  0.00    -0.005 OA 
BRANCH  22  24
HETATM   24  C   UNL     1      -9.291   3.903  65.497  1.00  0.00    -0.160 C  
BRANCH  24  25
HETATM   25  C   UNL     1      -8.727   3.288  66.693  1.00  0.00    -0.129 A  
HETATM   26  O   UNL     1      -7.401   3.408  67.015  1.00  0.00    -0.065 OA 
HETATM   27  C   UNL     1      -9.292   2.315  67.509  1.00  0.00    -0.146 A  
HETATM   28  C   UNL     1      -7.120   2.439  67.933  1.00  0.00    -0.048 A  
HETATM   29  C   UNL     1      -8.250   1.731  68.260  1.00  0.00    -0.071 A  
ENDBRANCH  24  25
BRANCH  24  30
HETATM   30  N   UNL     1      -8.570   3.700  64.435  1.00  0.00    -0.096 NA 
HETATM   31  H   UNL     1      -8.617   2.776  64.007  1.00  0.00     0.000 HD 
BRANCH  30  32
HETATM   32  O   UNL     1      -7.738   4.640  63.833  1.00  0.00    -0.069 OA 
HETATM   33  C   UNL     1      -8.250   5.612  62.951  1.00  0.00    -0.098 C  
ENDBRANCH  30  32
ENDBRANCH  24  30
ENDBRANCH  22  24
ENDBRANCH   5  20
TORSDOF 8
ENDMDL
MODEL      232
REMARK 921   NORMALIZED FREE ENERGY PREDICTED BY IDOCK:   -3.72 KCAL/MOL
REMARK 922        TOTAL FREE ENERGY PREDICTED BY IDOCK:   -6.85 KCAL/MOL
REMARK 923 INTER-LIGAND FREE ENERGY PREDICTED BY IDOCK:   -5.96 KCAL/MOL
REMARK 924 INTRA-LIGAND FREE ENERGY PREDICTED BY IDOCK:   -0.90 KCAL/MOL
REMARK 927      BINDING AFFINITY PREDICTED BY RF-SCORE:    0.00 PKD
ROOT
HETATM    1  C   UNL     1      -8.158   9.530  68.507  1.00  0.00    -0.101 C  
HETATM    2  S   UNL     1      -8.531   9.418  70.236  1.00  0.00    -0.222 SA 
HETATM    3  C   UNL     1      -8.878   7.654  70.484  1.00  0.00    -0.149 C  
HETATM    4  C   UNL     1      -8.712   6.704  69.333  1.00  0.00    -0.135 C  
HETATM    5  CA  UNL     1      -8.870  10.361  67.338  1.00  0.00    -0.132 C  
HETATM    6  CA  UNL     1      -8.420   7.045  68.063  1.00  0.00    -0.125 C  
HETATM    7  C   UNL     1      -8.553   9.065  66.541  1.00  0.00    -0.120 C  
HETATM    8  C   UNL     1      -8.198   5.976  67.032  1.00  0.00    -0.105 C  
HETATM    9  N   UNL     1      -8.374   8.374  67.684  1.00  0.00    -0.129 N  
HETATM   10  OXT UNL     1      -7.627   4.933  67.313  1.00  0.00    -0.085 OA 
HETATM   11  O   UNL     1      -8.654   8.703  65.406  1.00  0.00    -0.165 OA 
HETATM   12  O   UNL     1      -8.624   6.216  65.782  1.00  0.00    -0.145 OA 
ENDROOT
BRANCH   4  13
HETATM   13  C   UNL     1      -9.066   5.270  69.736  1.00  0.00    -0.116 C  
BRANCH  13  14
HETATM   14  O   UNL     1      -8.789   5.004  71.125  1.00  0.00    -0.125 OA 
BRANCH  14  15
HETATM   15  C   UNL     1      -9.766   4.412  71.840  1.00  0.00    -0.170 C  
HETATM   16  O   UNL     1     -10.439   4.924  72.721  1.00  0.00    -0.188 OA 
HETATM   17  N   UNL     1      -9.879   3.111  71.484  1.00  0.00    -0.158 N  
HETATM   18  H2  UNL     1      -9.308   2.646  70.777  1.00  0.00     0.000 HD 
HETATM   19  H1  UNL     1     -10.618   2.663  72.026  1.00  0.00     0.000 HD 
ENDBRANCH  14  15
ENDBRANCH  13  14
ENDBRANCH   4  13
BRANCH   5  20
HETATM   20  N   UNL     1     -10.292  10.809  67.056  1.00  0.00    -0.217 N  
HETATM   21  H   UNL     1     -10.967  10.062  67.221  1.00  0.00     0.000 HD 
HETATM   22  C   UNL     1     -10.912  11.996  66.625  1.00  0.00    -0.287 C  
HETATM   23  O   UNL     1     -12.133  12.026  66.584  1.00  0.00    -0.615 OA 
BRANCH  22  24
HETATM   24  C   UNL     1     -10.139  13.160  66.028  1.00  0.00    -0.286 C  
BRANCH  24  25
HETATM   25  C   UNL     1      -9.397  14.061  66.902  1.00  0.00    -0.257 A  
HETATM   26  O   UNL     1      -8.582  15.045  66.407  1.00  0.00    -0.222 OA 
HETATM   27  C   UNL     1      -9.156  13.935  68.265  1.00  0.00    -0.191 A  
HETATM   28  C   UNL     1      -7.764  15.441  67.424  1.00  0.00    -0.196 A  
HETATM   29  C   UNL     1      -8.070  14.776  68.586  1.00  0.00    -0.153 A  
ENDBRANCH  24  25
BRANCH  24  30
HETATM   30  N   UNL     1     -10.206  13.584  64.801  1.00  0.00    -0.574 NA 
HETATM   31  H   UNL     1      -9.377  13.467  64.219  1.00  0.00     0.000 HD 
BRANCH  30  32
HETATM   32  O   UNL     1     -11.317  14.186  64.215  1.00  0.00    -0.332 OA 
HETATM   33  C   UNL     1     -11.565  15.564  64.363  1.00  0.00    -0.258 C  
ENDBRANCH  30  32
ENDBRANCH  24  30
ENDBRANCH  22  24
ENDBRANCH   5  20
TORSDOF 8
ENDMDL
MODEL      233
REMARK 921   NORMALIZED FREE ENERGY PREDICTED BY IDOCK:   -3.72 KCAL/MOL
REMARK 922        TOTAL FREE ENERGY PREDICTED BY IDOCK:   -6.85 KCAL/MOL
REMARK 923 INTER-LIGAND FREE ENERGY PREDICTED BY IDOCK:   -6.19 KCAL/MOL
REMARK 924 INTRA-LIGAND FREE ENERGY PREDICTED BY IDOCK:   -0.66 KCAL/MOL
REMARK 927      BINDING AFFINITY PREDICTED BY RF-SCORE:    0.00 PKD
ROOT
HETATM    1  C   UNL     1     -12.133   9.414  70.822  1.00  0.00    -0.203 C  
HETATM    2  S   UNL     1     -13.349   9.449  72.111  1.00  0.00    -0.472 SA 
HETATM    3  C   UNL     1     -13.743  11.213  72.278  1.00  0.00     0.302 C  
HETATM    4  C   UNL     1     -13.112  12.198  71.336  1.00  0.00    -0.284 C  
HETATM    5  CA  UNL     1     -10.618   8.896  70.831  1.00  0.00    -0.233 C  
HETATM    6  CA  UNL     1     -12.173  11.918  70.413  1.00  0.00    -0.314 C  
HETATM    7  C   UNL     1     -10.431  10.145  69.924  1.00  0.00    -0.275 C  
HETATM    8  C   UNL     1     -11.694  12.994  69.480  1.00  0.00    -0.317 C  
HETATM    9  N   UNL     1     -11.602  10.661  70.348  1.00  0.00    -0.330 N  
HETATM   10  OXT UNL     1     -12.462  13.834  69.035  1.00  0.00    -0.194 OA 
HETATM   11  O   UNL     1      -9.539  10.627  69.292  1.00  0.00    -0.202 OA 
HETATM   12  O   UNL     1     -10.400  12.984  69.127  1.00  0.00    -0.016 OA 
ENDROOT
BRANCH   4  13
HETATM   13  C   UNL     1     -13.555  13.631  71.646  1.00  0.00    -0.293 C  
BRANCH  13  14
HETATM   14  O   UNL     1     -13.470  13.942  73.051  1.00  0.00    -0.637 OA 
BRANCH  14  15
HETATM   15  C   UNL     1     -13.326  15.240  73.382  1.00  0.00    -0.289 C  
HETATM   16  O   UNL     1     -14.116  16.143  73.159  1.00  0.00    -0.435 OA 
HETATM   17  N   UNL     1     -12.123  15.438  73.972  1.00  0.00    -0.566 N  
HETATM   18  H2  UNL     1     -11.428  14.711  74.141  1.00  0.00     0.000 HD 
HETATM   19  H1  UNL     1     -12.014  16.421  74.222  1.00  0.00     0.000 HD 
ENDBRANCH  14  15
ENDBRANCH  13  14
ENDBRANCH   4  13
BRANCH   5  20
HETATM   20  N   UNL     1      -9.513   8.838  71.869  1.00  0.00    -0.295 N  
HETATM   21  H   UNL     1      -9.550   9.629  72.510  1.00  0.00     0.000 HD 
HETATM   22  C   UNL     1      -8.451   7.964  72.168  1.00  0.00    -0.132 C  
HETATM   23  O   UNL     1      -7.781   8.191  73.164  1.00  0.00    -0.142 OA 
BRANCH  22  24
HETATM   24  C   UNL     1      -7.983   6.880  71.212  1.00  0.00    -0.108 C  
BRANCH  24  25
HETATM   25  C   UNL     1      -8.159   7.054  69.775  1.00  0.00    -0.126 A  
HETATM   26  O   UNL     1      -8.829   6.138  69.008  1.00  0.00    -0.122 OA 
HETATM   27  C   UNL     1      -7.501   7.940  68.928  1.00  0.00    -0.094 A  
HETATM   28  C   UNL     1      -8.496   6.378  67.708  1.00  0.00    -0.117 A  
HETATM   29  C   UNL     1      -7.669   7.471  67.607  1.00  0.00    -0.115 A  
ENDBRANCH  24  25
BRANCH  24  30
HETATM   30  N   UNL     1      -7.596   5.681  71.533  1.00  0.00    -0.102 NA 
HETATM   31  H   UNL     1      -7.945   4.909  70.966  1.00  0.00     0.000 HD 
BRANCH  30  32
HETATM   32  O   UNL     1      -6.745   5.363  72.589  1.00  0.00    -0.069 OA 
HETATM   33  C   UNL     1      -5.789   4.335  72.473  1.00  0.00    -0.015 C  
ENDBRANCH  30  32
ENDBRANCH  24  30
ENDBRANCH  22  24
ENDBRANCH   5  20
TORSDOF 8
ENDMDL
MODEL      234
REMARK 921   NORMALIZED FREE ENERGY PREDICTED BY IDOCK:   -3.71 KCAL/MOL
REMARK 922        TOTAL FREE ENERGY PREDICTED BY IDOCK:   -6.84 KCAL/MOL
REMARK 923 INTER-LIGAND FREE ENERGY PREDICTED BY IDOCK:   -5.90 KCAL/MOL
REMARK 924 INTRA-LIGAND FREE ENERGY PREDICTED BY IDOCK:   -0.94 KCAL/MOL
REMARK 927      BINDING AFFINITY PREDICTED BY RF-SCORE:    0.00 PKD
ROOT
HETATM    1  C   UNL     1     -10.386   7.955  68.309  1.00  0.00    -0.197 C  
HETATM    2  S   UNL     1      -9.463   9.071  69.330  1.00  0.00    -0.162 SA 
HETATM    3  C   UNL     1      -7.869   9.213  68.476  1.00  0.00    -0.101 C  
HETATM    4  C   UNL     1      -7.677   8.515  67.160  1.00  0.00    -0.097 C  
HETATM    5  CA  UNL     1     -11.027   6.525  68.640  1.00  0.00    -0.293 C  
HETATM    6  CA  UNL     1      -8.556   7.682  66.571  1.00  0.00    -0.138 C  
HETATM    7  C   UNL     1     -10.535   6.229  67.196  1.00  0.00    -0.263 C  
HETATM    8  C   UNL     1      -8.263   7.123  65.208  1.00  0.00    -0.128 C  
HETATM    9  N   UNL     1      -9.706   7.292  67.233  1.00  0.00    -0.149 N  
HETATM   10  OXT UNL     1      -7.710   7.797  64.353  1.00  0.00    -0.109 OA 
HETATM   11  O   UNL     1     -10.622   5.322  66.423  1.00  0.00    -0.287 OA 
HETATM   12  O   UNL     1      -8.657   5.867  64.951  1.00  0.00    -0.127 OA 
ENDROOT
BRANCH   4  13
HETATM   13  C   UNL     1      -6.267   8.742  66.607  1.00  0.00    -0.058 C  
BRANCH  13  14
HETATM   14  O   UNL     1      -5.714  10.010  67.012  1.00  0.00    -0.046 OA 
BRANCH  14  15
HETATM   15  C   UNL     1      -5.795  11.022  66.126  1.00  0.00    -0.142 C  
HETATM   16  O   UNL     1      -5.407  11.013  64.968  1.00  0.00    -0.188 OA 
HETATM   17  N   UNL     1      -6.336  12.114  66.717  1.00  0.00    -0.334 N  
HETATM   18  H2  UNL     1      -6.638  12.162  67.690  1.00  0.00     0.000 HD 
HETATM   19  H1  UNL     1      -6.397  12.880  66.047  1.00  0.00     0.000 HD 
ENDBRANCH  14  15
ENDBRANCH  13  14
ENDBRANCH   4  13
BRANCH   5  20
HETATM   20  N   UNL     1     -10.661   5.375  69.560  1.00  0.00    -0.259 N  
HETATM   21  H   UNL     1     -10.478   4.516  69.042  1.00  0.00     0.000 HD 
HETATM   22  C   UNL     1     -10.512   5.198  70.948  1.00  0.00    -0.187 C  
HETATM   23  O   UNL     1     -10.113   4.116  71.350  1.00  0.00    -0.173 OA 
BRANCH  22  24
HETATM   24  C   UNL     1     -11.006   6.212  71.966  1.00  0.00    -0.258 C  
BRANCH  24  25
HETATM   25  C   UNL     1     -10.095   6.718  72.985  1.00  0.00    -0.191 A  
HETATM   26  O   UNL     1      -9.940   8.059  73.220  1.00  0.00    -0.299 OA 
HETATM   27  C   UNL     1      -9.087   6.035  73.655  1.00  0.00    -0.127 A  
HETATM   28  C   UNL     1      -8.783   8.214  73.925  1.00  0.00    -0.191 A  
HETATM   29  C   UNL     1      -8.214   6.996  74.207  1.00  0.00    -0.166 A  
ENDBRANCH  24  25
BRANCH  24  30
HETATM   30  N   UNL     1     -12.241   6.563  72.169  1.00  0.00    -0.492 NA 
HETATM   31  H   UNL     1     -12.749   6.080  72.910  1.00  0.00     0.000 HD 
BRANCH  30  32
HETATM   32  O   UNL     1     -12.928   7.545  71.460  1.00  0.00    -0.345 OA 
HETATM   33  C   UNL     1     -14.333   7.528  71.362  1.00  0.00    -0.394 C  
ENDBRANCH  30  32
ENDBRANCH  24  30
ENDBRANCH  22  24
ENDBRANCH   5  20
TORSDOF 8
ENDMDL
MODEL      235
REMARK 921   NORMALIZED FREE ENERGY PREDICTED BY IDOCK:   -3.71 KCAL/MOL
REMARK 922        TOTAL FREE ENERGY PREDICTED BY IDOCK:   -6.84 KCAL/MOL
REMARK 923 INTER-LIGAND FREE ENERGY PREDICTED BY IDOCK:   -5.95 KCAL/MOL
REMARK 924 INTRA-LIGAND FREE ENERGY PREDICTED BY IDOCK:   -0.89 KCAL/MOL
REMARK 927      BINDING AFFINITY PREDICTED BY RF-SCORE:    0.00 PKD
ROOT
HETATM    1  C   UNL     1     -10.288   9.175  71.067  1.00  0.00    -0.293 C  
HETATM    2  S   UNL     1     -11.853   8.984  71.877  1.00  0.00    -0.370 SA 
HETATM    3  C   UNL     1     -11.525   7.734  73.151  1.00  0.00    -0.043 C  
HETATM    4  C   UNL     1     -10.125   7.219  73.330  1.00  0.00    -0.367 C  
HETATM    5  CA  UNL     1      -9.867   8.936  69.541  1.00  0.00    -0.180 C  
HETATM    6  CA  UNL     1      -9.067   7.520  72.553  1.00  0.00    -0.146 C  
HETATM    7  C   UNL     1      -8.583   8.388  70.223  1.00  0.00    -0.128 C  
HETATM    8  C   UNL     1      -7.704   6.996  72.907  1.00  0.00    -0.084 C  
HETATM    9  N   UNL     1      -9.230   8.264  71.400  1.00  0.00    -0.155 N  
HETATM   10  OXT UNL     1      -7.341   6.910  74.070  1.00  0.00    -0.092 OA 
HETATM   11  O   UNL     1      -7.518   7.985  69.862  1.00  0.00    -0.075 OA 
HETATM   12  O   UNL     1      -6.887   6.653  71.900  1.00  0.00    -0.065 OA 
ENDROOT
BRANCH   4  13
HETATM   13  C   UNL     1     -10.055   6.165  74.439  1.00  0.00    -0.323 C  
BRANCH  13  14
HETATM   14  O   UNL     1     -10.755   4.955  74.093  1.00  0.00    -0.289 OA 
BRANCH  14  15
HETATM   15  C   UNL     1     -10.017   3.938  73.606  1.00  0.00    -0.123 C  
HETATM   16  O   UNL     1      -8.808   3.797  73.711  1.00  0.00    -0.089 OA 
HETATM   17  N   UNL     1     -10.804   3.082  72.913  1.00  0.00    -0.079 N  
HETATM   18  H2  UNL     1     -11.810   3.191  72.779  1.00  0.00     0.000 HD 
HETATM   19  H1  UNL     1     -10.245   2.313  72.544  1.00  0.00     0.000 HD 
ENDBRANCH  14  15
ENDBRANCH  13  14
ENDBRANCH   4  13
BRANCH   5  20
HETATM   20  N   UNL     1     -10.315   7.991  68.442  1.00  0.00    -0.221 N  
HETATM   21  H   UNL     1     -10.601   7.084  68.812  1.00  0.00     0.000 HD 
HETATM   22  C   UNL     1     -10.435   8.051  67.041  1.00  0.00    -0.340 C  
HETATM   23  O   UNL     1     -10.927   7.094  66.463  1.00  0.00    -0.014 OA 
BRANCH  22  24
HETATM   24  C   UNL     1      -9.808   9.157  66.208  1.00  0.00    -0.289 C  
BRANCH  24  25
HETATM   25  C   UNL     1     -10.191  10.545  66.440  1.00  0.00    -0.237 A  
HETATM   26  O   UNL     1     -11.402  10.883  66.985  1.00  0.00    -0.364 OA 
HETATM   27  C   UNL     1      -9.596  11.697  65.939  1.00  0.00    -0.250 A  
HETATM   28  C   UNL     1     -11.608  12.205  66.719  1.00  0.00    -0.345 A  
HETATM   29  C   UNL     1     -10.530  12.748  66.065  1.00  0.00    -0.291 A  
ENDBRANCH  24  25
BRANCH  24  30
HETATM   30  N   UNL     1      -9.080   9.003  65.142  1.00  0.00    -0.378 NA 
HETATM   31  H   UNL     1      -8.210   8.482  65.242  1.00  0.00     0.000 HD 
BRANCH  30  32
HETATM   32  O   UNL     1      -9.391   9.491  63.876  1.00  0.00    -0.155 OA 
HETATM   33  C   UNL     1      -8.383   9.766  62.930  1.00  0.00    -0.163 C  
ENDBRANCH  30  32
ENDBRANCH  24  30
ENDBRANCH  22  24
ENDBRANCH   5  20
TORSDOF 8
ENDMDL
MODEL      236
REMARK 921   NORMALIZED FREE ENERGY PREDICTED BY IDOCK:   -3.67 KCAL/MOL
REMARK 922        TOTAL FREE ENERGY PREDICTED BY IDOCK:   -6.78 KCAL/MOL
REMARK 923 INTER-LIGAND FREE ENERGY PREDICTED BY IDOCK:   -5.65 KCAL/MOL
REMARK 924 INTRA-LIGAND FREE ENERGY PREDICTED BY IDOCK:   -1.13 KCAL/MOL
REMARK 927      BINDING AFFINITY PREDICTED BY RF-SCORE:    0.00 PKD
ROOT
HETATM    1  C   UNL     1     -10.162   8.560  66.956  1.00  0.00    -0.301 C  
HETATM    2  S   UNL     1     -10.696   9.631  68.265  1.00  0.00    -0.186 SA 
HETATM    3  C   UNL     1     -10.662  11.279  67.508  1.00  0.00    -0.232 C  
HETATM    4  C   UNL     1     -10.321  11.411  66.051  1.00  0.00    -0.297 C  
HETATM    5  CA  UNL     1      -8.902   7.577  66.862  1.00  0.00    -0.135 C  
HETATM    6  CA  UNL     1      -9.924  10.413  65.239  1.00  0.00    -0.309 C  
HETATM    7  C   UNL     1      -8.895   8.104  65.400  1.00  0.00    -0.044 C  
HETATM    8  C   UNL     1      -9.700  10.679  63.778  1.00  0.00    -0.327 C  
HETATM    9  N   UNL     1      -9.667   9.153  65.746  1.00  0.00    -0.266 N  
HETATM   10  OXT UNL     1     -10.420  11.445  63.155  1.00  0.00    -0.332 OA 
HETATM   11  O   UNL     1      -8.281   7.871  64.401  1.00  0.00    -0.129 OA 
HETATM   12  O   UNL     1      -8.698  10.025  63.171  1.00  0.00    -0.175 OA 
ENDROOT
BRANCH   4  13
HETATM   13  C   UNL     1     -10.331  12.876  65.605  1.00  0.00    -0.282 C  
BRANCH  13  14
HETATM   14  O   UNL     1     -11.662  13.364  65.346  1.00  0.00    -0.313 OA 
BRANCH  14  15
HETATM   15  C   UNL     1     -11.772  14.456  64.564  1.00  0.00    -0.419 C  
HETATM   16  O   UNL     1     -12.769  14.831  63.968  1.00  0.00    -0.786 OA 
HETATM   17  N   UNL     1     -10.577  15.087  64.477  1.00  0.00    -0.545 N  
HETATM   18  H2  UNL     1      -9.719  14.780  64.936  1.00  0.00     0.000 HD 
HETATM   19  H1  UNL     1     -10.660  15.914  63.885  1.00  0.00     0.000 HD 
ENDBRANCH  14  15
ENDBRANCH  13  14
ENDBRANCH   4  13
BRANCH   5  20
HETATM   20  N   UNL     1      -7.493   7.584  67.424  1.00  0.00    -0.101 N  
HETATM   21  H   UNL     1      -7.169   8.530  67.628  1.00  0.00     0.000 HD 
HETATM   22  C   UNL     1      -6.522   6.614  67.734  1.00  0.00    -0.053 C  
HETATM   23  O   UNL     1      -5.488   6.985  68.269  1.00  0.00    -0.018 OA 
BRANCH  22  24
HETATM   24  C   UNL     1      -6.616   5.174  67.261  1.00  0.00    -0.053 C  
BRANCH  24  25
HETATM   25  C   UNL     1      -6.629   4.879  65.832  1.00  0.00    -0.045 A  
HETATM   26  O   UNL     1      -5.639   5.316  64.992  1.00  0.00    -0.013 OA 
HETATM   27  C   UNL     1      -7.682   4.401  65.061  1.00  0.00    -0.081 A  
HETATM   28  C   UNL     1      -6.120   5.221  63.719  1.00  0.00    -0.022 A  
HETATM   29  C   UNL     1      -7.380   4.675  63.710  1.00  0.00    -0.054 A  
ENDBRANCH  24  25
BRANCH  24  30
HETATM   30  N   UNL     1      -6.887   4.135  67.995  1.00  0.00    -0.047 NA 
HETATM   31  H   UNL     1      -7.262   3.314  67.522  1.00  0.00     0.000 HD 
BRANCH  30  32
HETATM   32  O   UNL     1      -6.705   4.052  69.373  1.00  0.00    -0.039 OA 
HETATM   33  C   UNL     1      -7.601   4.670  70.267  1.00  0.00    -0.051 C  
ENDBRANCH  30  32
ENDBRANCH  24  30
ENDBRANCH  22  24
ENDBRANCH   5  20
TORSDOF 8
ENDMDL
MODEL      237
REMARK 921   NORMALIZED FREE ENERGY PREDICTED BY IDOCK:   -3.66 KCAL/MOL
REMARK 922        TOTAL FREE ENERGY PREDICTED BY IDOCK:   -6.77 KCAL/MOL
REMARK 923 INTER-LIGAND FREE ENERGY PREDICTED BY IDOCK:   -4.94 KCAL/MOL
REMARK 924 INTRA-LIGAND FREE ENERGY PREDICTED BY IDOCK:   -1.83 KCAL/MOL
REMARK 927      BINDING AFFINITY PREDICTED BY RF-SCORE:    0.00 PKD
ROOT
HETATM    1  C   UNL     1      -7.421   9.080  71.135  1.00  0.00    -0.095 C  
HETATM    2  S   UNL     1      -6.401  10.052  70.060  1.00  0.00    -0.094 SA 
HETATM    3  C   UNL     1      -7.589  10.812  68.918  1.00  0.00    -0.121 C  
HETATM    4  C   UNL     1      -9.058  10.583  69.127  1.00  0.00    -0.177 C  
HETATM    5  CA  UNL     1      -7.433   7.503  71.418  1.00  0.00    -0.079 C  
HETATM    6  CA  UNL     1      -9.608   9.762  70.042  1.00  0.00    -0.241 C  
HETATM    7  C   UNL     1      -8.966   7.756  71.450  1.00  0.00    -0.133 C  
HETATM    8  C   UNL     1     -11.101   9.699  70.193  1.00  0.00    -0.269 C  
HETATM    9  N   UNL     1      -8.812   8.933  70.811  1.00  0.00    -0.188 N  
HETATM   10  OXT UNL     1     -11.791  10.701  70.081  1.00  0.00    -0.281 OA 
HETATM   11  O   UNL     1      -9.943   7.110  71.691  1.00  0.00    -0.178 OA 
HETATM   12  O   UNL     1     -11.649   8.510  70.484  1.00  0.00    -0.240 OA 
ENDROOT
BRANCH   4  13
HETATM   13  C   UNL     1      -9.893  11.292  68.056  1.00  0.00    -0.178 C  
BRANCH  13  14
HETATM   14  O   UNL     1     -10.043  12.701  68.319  1.00  0.00    -0.224 OA 
BRANCH  14  15
HETATM   15  C   UNL     1     -11.203  13.273  67.941  1.00  0.00    -0.272 C  
HETATM   16  O   UNL     1     -11.559  13.519  66.799  1.00  0.00    -0.330 OA 
HETATM   17  N   UNL     1     -11.936  13.602  69.031  1.00  0.00    -0.351 N  
HETATM   18  H2  UNL     1     -11.651  13.440  69.997  1.00  0.00     0.000 HD 
HETATM   19  H1  UNL     1     -12.814  14.035  68.745  1.00  0.00     0.000 HD 
ENDBRANCH  14  15
ENDBRANCH  13  14
ENDBRANCH   4  13
BRANCH   5  20
HETATM   20  N   UNL     1      -7.127   6.266  70.596  1.00  0.00    -0.067 N  
HETATM   21  H   UNL     1      -6.667   5.544  71.150  1.00  0.00     0.000 HD 
HETATM   22  C   UNL     1      -7.318   5.865  69.261  1.00  0.00    -0.083 C  
HETATM   23  O   UNL     1      -7.011   4.724  68.952  1.00  0.00    -0.050 OA 
BRANCH  22  24
HETATM   24  C   UNL     1      -7.701   6.836  68.156  1.00  0.00    -0.109 C  
BRANCH  24  25
HETATM   25  C   UNL     1      -8.951   6.649  67.428  1.00  0.00    -0.114 A  
HETATM   26  O   UNL     1     -10.072   7.383  67.708  1.00  0.00    -0.164 OA 
HETATM   27  C   UNL     1      -9.310   5.599  66.590  1.00  0.00    -0.151 A  
HETATM   28  C   UNL     1     -11.132   6.730  67.152  1.00  0.00    -0.333 A  
HETATM   29  C   UNL     1     -10.715   5.617  66.463  1.00  0.00    -0.296 A  
ENDBRANCH  24  25
BRANCH  24  30
HETATM   30  N   UNL     1      -6.937   7.745  67.627  1.00  0.00    -0.079 NA 
HETATM   31  H   UNL     1      -7.334   8.676  67.505  1.00  0.00     0.000 HD 
BRANCH  30  32
HETATM   32  O   UNL     1      -5.621   7.553  67.215  1.00  0.00    -0.028 OA 
HETATM   33  C   UNL     1      -5.304   6.652  66.179  1.00  0.00    -0.018 C  
ENDBRANCH  30  32
ENDBRANCH  24  30
ENDBRANCH  22  24
ENDBRANCH   5  20
TORSDOF 8
ENDMDL
MODEL      238
REMARK 921   NORMALIZED FREE ENERGY PREDICTED BY IDOCK:   -3.66 KCAL/MOL
REMARK 922        TOTAL FREE ENERGY PREDICTED BY IDOCK:   -6.77 KCAL/MOL
REMARK 923 INTER-LIGAND FREE ENERGY PREDICTED BY IDOCK:   -6.83 KCAL/MOL
REMARK 924 INTRA-LIGAND FREE ENERGY PREDICTED BY IDOCK:    0.06 KCAL/MOL
REMARK 927      BINDING AFFINITY PREDICTED BY RF-SCORE:    0.00 PKD
ROOT
HETATM    1  C   UNL     1      -9.984  16.147  65.519  1.00  0.00    -0.216 C  
HETATM    2  S   UNL     1     -10.821  17.677  65.835  1.00  0.00     0.218 SA 
HETATM    3  C   UNL     1     -10.687  17.873  67.634  1.00  0.00    -0.331 C  
HETATM    4  C   UNL     1      -9.898  16.869  68.425  1.00  0.00    -0.266 C  
HETATM    5  CA  UNL     1     -10.514  14.783  64.869  1.00  0.00    -0.369 C  
HETATM    6  CA  UNL     1      -9.344  15.741  67.941  1.00  0.00    -0.200 C  
HETATM    7  C   UNL     1      -9.595  14.175  65.965  1.00  0.00    -0.225 C  
HETATM    8  C   UNL     1      -8.508  14.872  68.836  1.00  0.00    -0.174 C  
HETATM    9  N   UNL     1      -9.581  15.343  66.638  1.00  0.00    -0.242 N  
HETATM   10  OXT UNL     1      -7.768  15.358  69.678  1.00  0.00    -0.217 OA 
HETATM   11  O   UNL     1      -9.229  13.081  66.276  1.00  0.00    -0.185 OA 
HETATM   12  O   UNL     1      -8.579  13.544  68.661  1.00  0.00    -0.122 OA 
ENDROOT
BRANCH   4  13
HETATM   13  C   UNL     1      -9.916  17.197  69.921  1.00  0.00     0.517 C  
BRANCH  13  14
HETATM   14  O   UNL     1     -11.234  17.089  70.493  1.00  0.00     0.150 OA 
BRANCH  14  15
HETATM   15  C   UNL     1     -11.711  15.846  70.699  1.00  0.00    -0.384 C  
HETATM   16  O   UNL     1     -11.096  14.894  71.154  1.00  0.00    -0.209 OA 
HETATM   17  N   UNL     1     -12.994  15.764  70.275  1.00  0.00    -0.691 N  
HETATM   18  H2  UNL     1     -13.522  16.532  69.860  1.00  0.00     0.000 HD 
HETATM   19  H1  UNL     1     -13.355  14.823  70.430  1.00  0.00     0.000 HD 
ENDBRANCH  14  15
ENDBRANCH  13  14
ENDBRANCH   4  13
BRANCH   5  20
HETATM   20  N   UNL     1     -11.845  14.055  64.844  1.00  0.00    -0.372 N  
HETATM   21  H   UNL     1     -12.630  14.699  64.751  1.00  0.00     0.000 HD 
HETATM   22  C   UNL     1     -12.267  12.715  64.918  1.00  0.00    -0.471 C  
HETATM   23  O   UNL     1     -13.457  12.477  64.779  1.00  0.00    -0.645 OA 
BRANCH  22  24
HETATM   24  C   UNL     1     -11.349  11.585  65.354  1.00  0.00    -0.078 C  
BRANCH  24  25
HETATM   25  C   UNL     1     -11.144  11.324  66.774  1.00  0.00    -0.250 A  
HETATM   26  O   UNL     1     -10.369  10.286  67.218  1.00  0.00    -0.205 OA 
HETATM   27  C   UNL     1     -11.853  11.837  67.855  1.00  0.00    -0.289 A  
HETATM   28  C   UNL     1     -10.682  10.080  68.529  1.00  0.00    -0.231 A  
HETATM   29  C   UNL     1     -11.602  11.002  68.964  1.00  0.00    -0.392 A  
ENDBRANCH  24  25
BRANCH  24  30
HETATM   30  N   UNL     1     -10.541  10.909  64.593  1.00  0.00    -0.313 NA 
HETATM   31  H   UNL     1      -9.922  10.239  65.047  1.00  0.00     0.000 HD 
BRANCH  30  32
HETATM   32  O   UNL     1     -10.451  11.025  63.208  1.00  0.00    -0.337 OA 
HETATM   33  C   UNL     1      -9.205  11.004  62.552  1.00  0.00    -0.299 C  
ENDBRANCH  30  32
ENDBRANCH  24  30
ENDBRANCH  22  24
ENDBRANCH   5  20
TORSDOF 8
ENDMDL
MODEL      239
REMARK 921   NORMALIZED FREE ENERGY PREDICTED BY IDOCK:   -3.66 KCAL/MOL
REMARK 922        TOTAL FREE ENERGY PREDICTED BY IDOCK:   -6.77 KCAL/MOL
REMARK 923 INTER-LIGAND FREE ENERGY PREDICTED BY IDOCK:   -5.55 KCAL/MOL
REMARK 924 INTRA-LIGAND FREE ENERGY PREDICTED BY IDOCK:   -1.22 KCAL/MOL
REMARK 927      BINDING AFFINITY PREDICTED BY RF-SCORE:    0.00 PKD
ROOT
HETATM    1  C   UNL     1     -10.425  11.958  65.663  1.00  0.00    -0.262 C  
HETATM    2  S   UNL     1      -8.992  10.926  65.515  1.00  0.00    -0.186 SA 
HETATM    3  C   UNL     1      -8.873  10.126  67.139  1.00  0.00    -0.132 C  
HETATM    4  C   UNL     1      -9.942  10.380  68.163  1.00  0.00    -0.170 C  
HETATM    5  CA  UNL     1     -10.586  13.546  65.529  1.00  0.00    -0.296 C  
HETATM    6  CA  UNL     1     -10.964  11.248  68.039  1.00  0.00    -0.247 C  
HETATM    7  C   UNL     1     -11.577  13.311  66.703  1.00  0.00    -0.365 C  
HETATM    8  C   UNL     1     -12.010  11.333  69.114  1.00  0.00    -0.336 C  
HETATM    9  N   UNL     1     -11.033  12.104  66.955  1.00  0.00    -0.257 N  
HETATM   10  OXT UNL     1     -12.396  10.335  69.702  1.00  0.00    -0.077 OA 
HETATM   11  O   UNL     1     -12.347  13.977  67.329  1.00  0.00    -0.351 OA 
HETATM   12  O   UNL     1     -12.528  12.540  69.386  1.00  0.00     0.011 OA 
ENDROOT
BRANCH   4  13
HETATM   13  C   UNL     1      -9.657   9.630  69.467  1.00  0.00    -0.198 C  
BRANCH  13  14
HETATM   14  O   UNL     1      -8.265   9.677  69.836  1.00  0.00    -0.138 OA 
BRANCH  14  15
HETATM   15  C   UNL     1      -7.954   9.322  71.098  1.00  0.00     0.011 C  
HETATM   16  O   UNL     1      -6.851   9.369  71.620  1.00  0.00    -0.306 OA 
HETATM   17  N   UNL     1      -9.051   8.839  71.728  1.00  0.00    -0.250 N  
HETATM   18  H2  UNL     1      -9.977   8.756  71.308  1.00  0.00     0.000 HD 
HETATM   19  H1  UNL     1      -8.815   8.570  72.683  1.00  0.00     0.000 HD 
ENDBRANCH  14  15
ENDBRANCH  13  14
ENDBRANCH   4  13
BRANCH   5  20
HETATM   20  N   UNL     1      -9.701  14.741  65.828  1.00  0.00    -0.424 N  
HETATM   21  H   UNL     1      -9.420  15.230  64.978  1.00  0.00     0.000 HD 
HETATM   22  C   UNL     1      -9.169  15.342  66.984  1.00  0.00    -0.225 C  
HETATM   23  O   UNL     1      -8.539  16.381  66.854  1.00  0.00    -0.182 OA 
BRANCH  22  24
HETATM   24  C   UNL     1      -9.175  14.663  68.343  1.00  0.00    -0.197 C  
BRANCH  24  25
HETATM   25  C   UNL     1      -9.830  15.310  69.474  1.00  0.00    -0.226 A  
HETATM   26  O   UNL     1     -10.289  14.600  70.551  1.00  0.00     0.284 OA 
HETATM   27  C   UNL     1     -10.335  16.604  69.551  1.00  0.00    -0.245 A  
HETATM   28  C   UNL     1     -11.162  15.405  71.223  1.00  0.00    -0.352 A  
HETATM   29  C   UNL     1     -11.234  16.646  70.638  1.00  0.00     0.067 A  
ENDBRANCH  24  25
BRANCH  24  30
HETATM   30  N   UNL     1      -8.481  13.620  68.689  1.00  0.00    -0.327 NA 
HETATM   31  H   UNL     1      -8.556  13.308  69.656  1.00  0.00     0.000 HD 
BRANCH  30  32
HETATM   32  O   UNL     1      -7.644  12.893  67.846  1.00  0.00    -0.110 OA 
HETATM   33  C   UNL     1      -6.353  12.504  68.255  1.00  0.00    -0.062 C  
ENDBRANCH  30  32
ENDBRANCH  24  30
ENDBRANCH  22  24
ENDBRANCH   5  20
TORSDOF 8
ENDMDL
MODEL      240
REMARK 921   NORMALIZED FREE ENERGY PREDICTED BY IDOCK:   -3.63 KCAL/MOL
REMARK 922        TOTAL FREE ENERGY PREDICTED BY IDOCK:   -6.73 KCAL/MOL
REMARK 923 INTER-LIGAND FREE ENERGY PREDICTED BY IDOCK:   -6.32 KCAL/MOL
REMARK 924 INTRA-LIGAND FREE ENERGY PREDICTED BY IDOCK:   -0.41 KCAL/MOL
REMARK 927      BINDING AFFINITY PREDICTED BY RF-SCORE:    0.00 PKD
ROOT
HETATM    1  C   UNL     1      -9.338  14.942  65.554  1.00  0.00     0.160 C  
HETATM    2  S   UNL     1      -8.402  13.885  66.626  1.00  0.00     0.439 SA 
HETATM    3  C   UNL     1      -9.151  12.252  66.374  1.00  0.00    -0.158 C  
HETATM    4  C   UNL     1     -10.239  12.093  65.350  1.00  0.00    -0.299 C  
HETATM    5  CA  UNL     1     -10.236  16.228  65.881  1.00  0.00    -0.364 C  
HETATM    6  CA  UNL     1     -10.810  13.087  64.644  1.00  0.00    -0.354 C  
HETATM    7  C   UNL     1     -11.128  15.597  64.775  1.00  0.00    -0.412 C  
HETATM    8  C   UNL     1     -11.830  12.767  63.588  1.00  0.00    -0.532 C  
HETATM    9  N   UNL     1     -10.508  14.408  64.916  1.00  0.00    -0.434 N  
HETATM   10  OXT UNL     1     -11.718  11.778  62.879  1.00  0.00    -0.029 OA 
HETATM   11  O   UNL     1     -12.123  15.903  64.190  1.00  0.00    -0.615 OA 
HETATM   12  O   UNL     1     -12.854  13.619  63.430  1.00  0.00    -0.569 OA 
ENDROOT
BRANCH   4  13
HETATM   13  C   UNL     1     -10.751  10.651  65.297  1.00  0.00    -0.030 C  
BRANCH  13  14
HETATM   14  O   UNL     1     -10.294   9.863  66.414  1.00  0.00    -0.227 OA 
BRANCH  14  15
HETATM   15  C   UNL     1      -9.607   8.739  66.130  1.00  0.00    -0.253 C  
HETATM   16  O   UNL     1      -8.495   8.669  65.631  1.00  0.00    -0.138 OA 
HETATM   17  N   UNL     1     -10.354   7.650  66.430  1.00  0.00    -0.467 N  
HETATM   18  H2  UNL     1     -11.298   7.677  66.815  1.00  0.00     0.000 HD 
HETATM   19  H1  UNL     1      -9.834   6.799  66.214  1.00  0.00     0.000 HD 
ENDBRANCH  14  15
ENDBRANCH  13  14
ENDBRANCH   4  13
BRANCH   5  20
HETATM   20  N   UNL     1     -11.094  16.664  67.053  1.00  0.00     0.035 N  
HETATM   21  H   UNL     1     -11.726  17.424  66.802  1.00  0.00     0.000 HD 
HETATM   22  C   UNL     1     -11.235  16.283  68.401  1.00  0.00    -0.349 C  
HETATM   23  O   UNL     1     -12.115  16.815  69.060  1.00  0.00     0.414 OA 
BRANCH  22  24
HETATM   24  C   UNL     1     -10.229  15.396  69.116  1.00  0.00    -0.239 C  
BRANCH  24  25
HETATM   25  C   UNL     1      -8.817  15.757  69.116  1.00  0.00    -0.250 A  
HETATM   26  O   UNL     1      -7.866  14.968  69.708  1.00  0.00    -0.172 OA 
HETATM   27  C   UNL     1      -8.241  16.985  68.810  1.00  0.00    -0.245 A  
HETATM   28  C   UNL     1      -6.751  15.736  69.875  1.00  0.00    -0.077 A  
HETATM   29  C   UNL     1      -6.937  16.991  69.349  1.00  0.00    -0.140 A  
ENDBRANCH  24  25
BRANCH  24  30
HETATM   30  N   UNL     1     -10.449  14.206  69.591  1.00  0.00    -0.428 NA 
HETATM   31  H   UNL     1      -9.690  13.760  70.104  1.00  0.00     0.000 HD 
BRANCH  30  32
HETATM   32  O   UNL     1     -11.636  13.490  69.456  1.00  0.00    -0.279 OA 
HETATM   33  C   UNL     1     -12.203  12.803  70.547  1.00  0.00    -0.307 C  
ENDBRANCH  30  32
ENDBRANCH  24  30
ENDBRANCH  22  24
ENDBRANCH   5  20
TORSDOF 8
ENDMDL
MODEL      241
REMARK 921   NORMALIZED FREE ENERGY PREDICTED BY IDOCK:   -3.62 KCAL/MOL
REMARK 922        TOTAL FREE ENERGY PREDICTED BY IDOCK:   -6.71 KCAL/MOL
REMARK 923 INTER-LIGAND FREE ENERGY PREDICTED BY IDOCK:   -4.73 KCAL/MOL
REMARK 924 INTRA-LIGAND FREE ENERGY PREDICTED BY IDOCK:   -1.99 KCAL/MOL
REMARK 927      BINDING AFFINITY PREDICTED BY RF-SCORE:    0.00 PKD
ROOT
HETATM    1  C   UNL     1      -8.575   8.315  72.050  1.00  0.00    -0.178 C  
HETATM    2  S   UNL     1      -7.771   6.795  72.481  1.00  0.00    -0.096 SA 
HETATM    3  C   UNL     1      -6.947   6.298  70.943  1.00  0.00    -0.068 C  
HETATM    4  C   UNL     1      -7.009   7.208  69.749  1.00  0.00    -0.054 C  
HETATM    5  CA  UNL     1     -10.125   8.718  72.070  1.00  0.00    -0.327 C  
HETATM    6  CA  UNL     1      -7.720   8.348  69.661  1.00  0.00    -0.095 C  
HETATM    7  C   UNL     1      -9.710   9.458  70.768  1.00  0.00    -0.264 C  
HETATM    8  C   UNL     1      -7.616   9.203  68.430  1.00  0.00    -0.083 C  
HETATM    9  N   UNL     1      -8.589   8.715  70.671  1.00  0.00    -0.148 N  
HETATM   10  OXT UNL     1      -6.554   9.342  67.843  1.00  0.00    -0.062 OA 
HETATM   11  O   UNL     1     -10.235  10.199  69.991  1.00  0.00    -0.254 OA 
HETATM   12  O   UNL     1      -8.725   9.833  68.013  1.00  0.00    -0.119 OA 
ENDROOT
BRANCH   4  13
HETATM   13  C   UNL     1      -6.269   6.608  68.550  1.00  0.00    -0.026 C  
BRANCH  13  14
HETATM   14  O   UNL     1      -7.167   6.026  67.584  1.00  0.00    -0.073 OA 
BRANCH  14  15
HETATM   15  C   UNL     1      -6.681   5.818  66.345  1.00  0.00    -0.057 C  
HETATM   16  O   UNL     1      -7.268   6.000  65.290  1.00  0.00    -0.066 OA 
HETATM   17  N   UNL     1      -5.428   5.311  66.417  1.00  0.00    -0.012 N  
HETATM   18  H2  UNL     1      -4.925   5.116  67.283  1.00  0.00     0.000 HD 
HETATM   19  H1  UNL     1      -5.060   5.153  65.479  1.00  0.00     0.000 HD 
ENDBRANCH  14  15
ENDBRANCH  13  14
ENDBRANCH   4  13
BRANCH   5  20
HETATM   20  N   UNL     1     -11.427   7.972  71.851  1.00  0.00    -0.274 N  
HETATM   21  H   UNL     1     -12.160   8.289  72.486  1.00  0.00     0.000 HD 
HETATM   22  C   UNL     1     -11.877   6.952  70.992  1.00  0.00    -0.364 C  
HETATM   23  O   UNL     1     -13.057   6.639  71.038  1.00  0.00    -0.112 OA 
BRANCH  22  24
HETATM   24  C   UNL     1     -10.934   6.098  70.162  1.00  0.00    -0.358 C  
BRANCH  24  25
HETATM   25  C   UNL     1     -10.936   6.219  68.709  1.00  0.00    -0.352 A  
HETATM   26  O   UNL     1     -10.771   5.134  67.889  1.00  0.00    -0.034 OA 
HETATM   27  C   UNL     1     -10.823   7.372  67.940  1.00  0.00    -0.151 A  
HETATM   28  C   UNL     1     -10.441   5.608  66.654  1.00  0.00    -0.279 A  
HETATM   29  C   UNL     1     -10.447   6.981  66.637  1.00  0.00    -0.209 A  
ENDBRANCH  24  25
BRANCH  24  30
HETATM   30  N   UNL     1     -10.223   5.096  70.586  1.00  0.00    -0.253 NA 
HETATM   31  H   UNL     1      -9.524   4.715  69.949  1.00  0.00     0.000 HD 
BRANCH  30  32
HETATM   32  O   UNL     1     -10.338   4.498  71.839  1.00  0.00    -0.189 OA 
HETATM   33  C   UNL     1      -9.886   3.184  72.066  1.00  0.00    -0.171 C  
ENDBRANCH  30  32
ENDBRANCH  24  30
ENDBRANCH  22  24
ENDBRANCH   5  20
TORSDOF 8
ENDMDL
MODEL      242
REMARK 921   NORMALIZED FREE ENERGY PREDICTED BY IDOCK:   -3.62 KCAL/MOL
REMARK 922        TOTAL FREE ENERGY PREDICTED BY IDOCK:   -6.70 KCAL/MOL
REMARK 923 INTER-LIGAND FREE ENERGY PREDICTED BY IDOCK:   -5.76 KCAL/MOL
REMARK 924 INTRA-LIGAND FREE ENERGY PREDICTED BY IDOCK:   -0.94 KCAL/MOL
REMARK 927      BINDING AFFINITY PREDICTED BY RF-SCORE:    0.00 PKD
ROOT
HETATM    1  C   UNL     1     -10.469   7.805  69.186  1.00  0.00    -0.211 C  
HETATM    2  S   UNL     1     -10.860   6.149  68.689  1.00  0.00    -0.331 SA 
HETATM    3  C   UNL     1     -10.514   5.165  70.174  1.00  0.00    -0.235 C  
HETATM    4  C   UNL     1     -10.099   5.864  71.437  1.00  0.00    -0.245 C  
HETATM    5  CA  UNL     1      -9.394   8.841  68.607  1.00  0.00    -0.141 C  
HETATM    6  CA  UNL     1      -9.849   7.181  71.566  1.00  0.00    -0.171 C  
HETATM    7  C   UNL     1      -9.240   9.168  70.118  1.00  0.00    -0.206 C  
HETATM    8  C   UNL     1      -9.526   7.754  72.916  1.00  0.00    -0.234 C  
HETATM    9  N   UNL     1      -9.833   8.005  70.457  1.00  0.00    -0.182 N  
HETATM   10  OXT UNL     1     -10.079   7.346  73.926  1.00  0.00    -0.313 OA 
HETATM   11  O   UNL     1      -8.638   9.967  70.772  1.00  0.00    -0.094 OA 
HETATM   12  O   UNL     1      -8.629   8.750  72.973  1.00  0.00    -0.382 OA 
ENDROOT
BRANCH   4  13
HETATM   13  C   UNL     1      -9.839   4.865  72.569  1.00  0.00    -0.157 C  
BRANCH  13  14
HETATM   14  O   UNL     1     -10.284   3.534  72.241  1.00  0.00    -0.162 OA 
BRANCH  14  15
HETATM   15  C   UNL     1     -10.023   2.564  73.139  1.00  0.00    -0.113 C  
HETATM   16  O   UNL     1     -10.841   1.920  73.777  1.00  0.00    -0.132 OA 
HETATM   17  N   UNL     1      -8.685   2.419  73.292  1.00  0.00    -0.070 N  
HETATM   18  H2  UNL     1      -7.978   2.965  72.799  1.00  0.00     0.000 HD 
HETATM   19  H1  UNL     1      -8.488   1.685  73.972  1.00  0.00     0.000 HD 
ENDBRANCH  14  15
ENDBRANCH  13  14
ENDBRANCH   4  13
BRANCH   5  20
HETATM   20  N   UNL     1      -8.028   8.717  67.960  1.00  0.00    -0.106 N  
HETATM   21  H   UNL     1      -7.274   8.889  68.624  1.00  0.00     0.000 HD 
HETATM   22  C   UNL     1      -7.541   8.425  66.672  1.00  0.00    -0.089 C  
HETATM   23  O   UNL     1      -6.333   8.325  66.522  1.00  0.00    -0.052 OA 
BRANCH  22  24
HETATM   24  C   UNL     1      -8.427   8.421  65.437  1.00  0.00    -0.176 C  
BRANCH  24  25
HETATM   25  C   UNL     1      -9.119   9.641  65.039  1.00  0.00    -0.233 A  
HETATM   26  O   UNL     1      -9.929  10.332  65.902  1.00  0.00    -0.229 OA 
HETATM   27  C   UNL     1      -9.316  10.140  63.757  1.00  0.00    -0.336 A  
HETATM   28  C   UNL     1     -10.704  11.164  65.150  1.00  0.00    -0.210 A  
HETATM   29  C   UNL     1     -10.373  11.073  63.820  1.00  0.00    -0.427 A  
ENDBRANCH  24  25
BRANCH  24  30
HETATM   30  N   UNL     1      -8.812   7.378  64.765  1.00  0.00    -0.232 NA 
HETATM   31  H   UNL     1      -9.556   7.510  64.081  1.00  0.00     0.000 HD 
BRANCH  30  32
HETATM   32  O   UNL     1      -8.291   6.093  64.902  1.00  0.00    -0.140 OA 
HETATM   33  C   UNL     1      -9.090   5.025  65.354  1.00  0.00    -0.154 C  
ENDBRANCH  30  32
ENDBRANCH  24  30
ENDBRANCH  22  24
ENDBRANCH   5  20
TORSDOF 8
ENDMDL
MODEL      243
REMARK 921   NORMALIZED FREE ENERGY PREDICTED BY IDOCK:   -3.58 KCAL/MOL
REMARK 922        TOTAL FREE ENERGY PREDICTED BY IDOCK:   -6.66 KCAL/MOL
REMARK 923 INTER-LIGAND FREE ENERGY PREDICTED BY IDOCK:   -5.74 KCAL/MOL
REMARK 924 INTRA-LIGAND FREE ENERGY PREDICTED BY IDOCK:   -0.92 KCAL/MOL
REMARK 927      BINDING AFFINITY PREDICTED BY RF-SCORE:    0.00 PKD
ROOT
HETATM    1  C   UNL     1      -8.011   9.732  68.533  1.00  0.00    -0.089 C  
HETATM    2  S   UNL     1      -8.494   8.980  70.064  1.00  0.00    -0.162 SA 
HETATM    3  C   UNL     1      -8.770   7.243  69.616  1.00  0.00    -0.141 C  
HETATM    4  C   UNL     1      -8.480   6.791  68.213  1.00  0.00    -0.125 C  
HETATM    5  CA  UNL     1      -8.683  10.923  67.698  1.00  0.00    -0.127 C  
HETATM    6  CA  UNL     1      -8.121   7.584  67.186  1.00  0.00    -0.118 C  
HETATM    7  C   UNL     1      -8.249  10.022  66.509  1.00  0.00    -0.119 C  
HETATM    8  C   UNL     1      -7.778   6.978  65.855  1.00  0.00    -0.101 C  
HETATM    9  N   UNL     1      -8.115   8.959  67.328  1.00  0.00    -0.104 N  
HETATM   10  OXT UNL     1      -7.176   5.918  65.778  1.00  0.00    -0.071 OA 
HETATM   11  O   UNL     1      -8.256  10.104  65.316  1.00  0.00    -0.144 OA 
HETATM   12  O   UNL     1      -8.130   7.656  64.752  1.00  0.00    -0.138 OA 
ENDROOT
BRANCH   4  13
HETATM   13  C   UNL     1      -8.790   5.303  68.030  1.00  0.00    -0.105 C  
BRANCH  13  14
HETATM   14  O   UNL     1     -10.017   5.080  67.308  1.00  0.00    -0.165 OA 
BRANCH  14  15
HETATM   15  C   UNL     1      -9.964   4.236  66.259  1.00  0.00    -0.211 C  
HETATM   16  O   UNL     1     -10.183   4.509  65.089  1.00  0.00    -0.183 OA 
HETATM   17  N   UNL     1      -9.676   2.983  66.685  1.00  0.00    -0.401 N  
HETATM   18  H2  UNL     1      -9.522   2.718  67.657  1.00  0.00     0.000 HD 
HETATM   19  H1  UNL     1      -9.637   2.344  65.890  1.00  0.00     0.000 HD 
ENDBRANCH  14  15
ENDBRANCH  13  14
ENDBRANCH   4  13
BRANCH   5  20
HETATM   20  N   UNL     1     -10.103  11.414  67.487  1.00  0.00    -0.182 N  
HETATM   21  H   UNL     1     -10.792  10.690  67.694  1.00  0.00     0.000 HD 
HETATM   22  C   UNL     1     -10.707  12.617  67.077  1.00  0.00    -0.245 C  
HETATM   23  O   UNL     1     -11.927  12.686  67.101  1.00  0.00    -0.437 OA 
BRANCH  22  24
HETATM   24  C   UNL     1      -9.930  13.750  66.429  1.00  0.00    -0.297 C  
BRANCH  24  25
HETATM   25  C   UNL     1      -9.120  14.638  67.254  1.00  0.00    -0.206 A  
HETATM   26  O   UNL     1      -8.231  15.527  66.709  1.00  0.00    -0.230 OA 
HETATM   27  C   UNL     1      -8.889  14.569  68.623  1.00  0.00    -0.180 A  
HETATM   28  C   UNL     1      -7.384  15.913  67.705  1.00  0.00    -0.144 A  
HETATM   29  C   UNL     1      -7.740  15.340  68.902  1.00  0.00    -0.167 A  
ENDBRANCH  24  25
BRANCH  24  30
HETATM   30  N   UNL     1     -10.045  14.163  65.202  1.00  0.00    -0.536 NA 
HETATM   31  H   UNL     1      -9.284  13.942  64.561  1.00  0.00     0.000 HD 
BRANCH  30  32
HETATM   32  O   UNL     1     -11.123  14.882  64.690  1.00  0.00    -0.372 OA 
HETATM   33  C   UNL     1     -11.252  16.266  64.918  1.00  0.00    -0.236 C  
ENDBRANCH  30  32
ENDBRANCH  24  30
ENDBRANCH  22  24
ENDBRANCH   5  20
TORSDOF 8
ENDMDL
MODEL      244
REMARK 921   NORMALIZED FREE ENERGY PREDICTED BY IDOCK:   -3.57 KCAL/MOL
REMARK 922        TOTAL FREE ENERGY PREDICTED BY IDOCK:   -6.63 KCAL/MOL
REMARK 923 INTER-LIGAND FREE ENERGY PREDICTED BY IDOCK:   -5.60 KCAL/MOL
REMARK 924 INTRA-LIGAND FREE ENERGY PREDICTED BY IDOCK:   -1.03 KCAL/MOL
REMARK 927      BINDING AFFINITY PREDICTED BY RF-SCORE:    0.00 PKD
ROOT
HETATM    1  C   UNL     1     -10.481   7.414  68.300  1.00  0.00    -0.189 C  
HETATM    2  S   UNL     1      -9.220   6.301  67.741  1.00  0.00    -0.114 SA 
HETATM    3  C   UNL     1      -8.554   5.604  69.279  1.00  0.00    -0.106 C  
HETATM    4  C   UNL     1      -9.185   5.981  70.589  1.00  0.00    -0.161 C  
HETATM    5  CA  UNL     1     -10.638   8.996  68.104  1.00  0.00    -0.171 C  
HETATM    6  CA  UNL     1     -10.162   6.892  70.763  1.00  0.00    -0.195 C  
HETATM    7  C   UNL     1     -11.155   8.891  69.566  1.00  0.00    -0.001 C  
HETATM    8  C   UNL     1     -10.757   7.102  72.126  1.00  0.00    -0.215 C  
HETATM    9  N   UNL     1     -10.588   7.676  69.707  1.00  0.00    -0.242 N  
HETATM   10  OXT UNL     1     -10.936   6.167  72.890  1.00  0.00    -0.246 OA 
HETATM   11  O   UNL     1     -11.636   9.636  70.367  1.00  0.00    -0.258 OA 
HETATM   12  O   UNL     1     -11.114   8.350  72.465  1.00  0.00    -0.361 OA 
ENDROOT
BRANCH   4  13
HETATM   13  C   UNL     1      -8.476   5.305  71.766  1.00  0.00    -0.126 C  
BRANCH  13  14
HETATM   14  O   UNL     1      -8.306   3.888  71.566  1.00  0.00    -0.072 OA 
BRANCH  14  15
HETATM   15  C   UNL     1      -9.423   3.135  71.547  1.00  0.00    -0.145 C  
HETATM   16  O   UNL     1      -9.797   2.407  70.641  1.00  0.00    -0.063 OA 
HETATM   17  N   UNL     1     -10.136   3.332  72.681  1.00  0.00    -0.154 N  
HETATM   18  H2  UNL     1      -9.866   3.958  73.439  1.00  0.00     0.000 HD 
HETATM   19  H1  UNL     1     -10.982   2.762  72.665  1.00  0.00     0.000 HD 
ENDBRANCH  14  15
ENDBRANCH  13  14
ENDBRANCH   4  13
BRANCH   5  20
HETATM   20  N   UNL     1      -9.673  10.160  67.976  1.00  0.00    -0.142 N  
HETATM   21  H   UNL     1      -8.703   9.864  68.079  1.00  0.00     0.000 HD 
HETATM   22  C   UNL     1      -9.783  11.545  67.751  1.00  0.00    -0.174 C  
HETATM   23  O   UNL     1      -8.754  12.190  67.621  1.00  0.00    -0.157 OA 
BRANCH  22  24
HETATM   24  C   UNL     1     -11.100  12.295  67.859  1.00  0.00    -0.243 C  
BRANCH  24  25
HETATM   25  C   UNL     1     -11.471  12.930  69.118  1.00  0.00    -0.306 A  
HETATM   26  O   UNL     1     -11.304  12.304  70.325  1.00  0.00     0.025 OA 
HETATM   27  C   UNL     1     -12.259  14.059  69.313  1.00  0.00    -0.319 A  
HETATM   28  C   UNL     1     -12.075  12.966  71.233  1.00  0.00     0.327 A  
HETATM   29  C   UNL     1     -12.694  14.048  70.656  1.00  0.00    -0.373 A  
ENDBRANCH  24  25
BRANCH  24  30
HETATM   30  N   UNL     1     -12.067  12.287  66.990  1.00  0.00    -0.543 NA 
HETATM   31  H   UNL     1     -12.838  11.641  67.155  1.00  0.00     0.000 HD 
BRANCH  30  32
HETATM   32  O   UNL     1     -12.137  13.088  65.853  1.00  0.00    -0.412 OA 
HETATM   33  C   UNL     1     -12.329  12.528  64.575  1.00  0.00    -0.467 C  
ENDBRANCH  30  32
ENDBRANCH  24  30
ENDBRANCH  22  24
ENDBRANCH   5  20
TORSDOF 8
ENDMDL
MODEL      245
REMARK 921   NORMALIZED FREE ENERGY PREDICTED BY IDOCK:   -3.56 KCAL/MOL
REMARK 922        TOTAL FREE ENERGY PREDICTED BY IDOCK:   -6.62 KCAL/MOL
REMARK 923 INTER-LIGAND FREE ENERGY PREDICTED BY IDOCK:   -6.84 KCAL/MOL
REMARK 924 INTRA-LIGAND FREE ENERGY PREDICTED BY IDOCK:    0.23 KCAL/MOL
REMARK 927      BINDING AFFINITY PREDICTED BY RF-SCORE:    0.00 PKD
ROOT
HETATM    1  C   UNL     1     -10.952  15.367  66.346  1.00  0.00    -0.277 C  
HETATM    2  S   UNL     1     -11.342  15.283  64.619  1.00  0.00    -0.294 SA 
HETATM    3  C   UNL     1     -11.290  13.506  64.256  1.00  0.00    -0.375 C  
HETATM    4  C   UNL     1     -11.049  12.535  65.376  1.00  0.00    -0.337 C  
HETATM    5  CA  UNL     1      -9.747  16.095  67.110  1.00  0.00    -0.233 C  
HETATM    6  CA  UNL     1     -10.755  12.855  66.651  1.00  0.00    -0.265 C  
HETATM    7  C   UNL     1      -9.821  14.804  67.972  1.00  0.00    -0.218 C  
HETATM    8  C   UNL     1     -10.625  11.774  67.685  1.00  0.00    -0.205 C  
HETATM    9  N   UNL     1     -10.519  14.169  67.009  1.00  0.00    -0.270 N  
HETATM   10  OXT UNL     1     -11.354  10.793  67.671  1.00  0.00    -0.392 OA 
HETATM   11  O   UNL     1      -9.292  14.396  68.963  1.00  0.00    -0.145 OA 
HETATM   12  O   UNL     1      -9.699  11.935  68.643  1.00  0.00    -0.184 OA 
ENDROOT
BRANCH   4  13
HETATM   13  C   UNL     1     -11.025  11.090  64.868  1.00  0.00    -0.060 C  
BRANCH  13  14
HETATM   14  O   UNL     1      -9.687  10.564  64.765  1.00  0.00    -0.251 OA 
BRANCH  14  15
HETATM   15  C   UNL     1      -9.189  10.402  63.523  1.00  0.00    -0.282 C  
HETATM   16  O   UNL     1      -8.043  10.097  63.231  1.00  0.00    -0.150 OA 
HETATM   17  N   UNL     1     -10.140  10.679  62.600  1.00  0.00    -0.763 N  
HETATM   18  H2  UNL     1     -11.094  10.968  62.814  1.00  0.00     0.000 HD 
HETATM   19  H1  UNL     1      -9.761  10.556  61.661  1.00  0.00     0.000 HD 
ENDBRANCH  14  15
ENDBRANCH  13  14
ENDBRANCH   4  13
BRANCH   5  20
HETATM   20  N   UNL     1      -8.302  16.412  66.772  1.00  0.00    -0.221 N  
HETATM   21  H   UNL     1      -8.222  17.237  66.179  1.00  0.00     0.000 HD 
HETATM   22  C   UNL     1      -7.046  15.853  67.073  1.00  0.00    -0.172 C  
HETATM   23  O   UNL     1      -6.047  16.439  66.685  1.00  0.00    -0.306 OA 
BRANCH  22  24
HETATM   24  C   UNL     1      -6.885  14.469  67.680  1.00  0.00    -0.182 C  
BRANCH  24  25
HETATM   25  C   UNL     1      -6.132  14.303  68.917  1.00  0.00    -0.087 A  
HETATM   26  O   UNL     1      -5.706  13.075  69.350  1.00  0.00    -0.079 OA 
HETATM   27  C   UNL     1      -5.962  15.217  69.951  1.00  0.00    -0.141 A  
HETATM   28  C   UNL     1      -5.390  13.200  70.670  1.00  0.00    -0.151 A  
HETATM   29  C   UNL     1      -5.543  14.498  71.091  1.00  0.00    -0.161 A  
ENDBRANCH  24  25
BRANCH  24  30
HETATM   30  N   UNL     1      -7.188  13.338  67.115  1.00  0.00    -0.354 NA 
HETATM   31  H   UNL     1      -8.175  13.151  66.942  1.00  0.00     0.000 HD 
BRANCH  30  32
HETATM   32  O   UNL     1      -6.276  12.359  66.727  1.00  0.00    -0.178 OA 
HETATM   33  C   UNL     1      -6.582  10.989  66.836  1.00  0.00    -0.112 C  
ENDBRANCH  30  32
ENDBRANCH  24  30
ENDBRANCH  22  24
ENDBRANCH   5  20
TORSDOF 8
ENDMDL
MODEL      246
REMARK 921   NORMALIZED FREE ENERGY PREDICTED BY IDOCK:   -3.51 KCAL/MOL
REMARK 922        TOTAL FREE ENERGY PREDICTED BY IDOCK:   -6.55 KCAL/MOL
REMARK 923 INTER-LIGAND FREE ENERGY PREDICTED BY IDOCK:   -5.60 KCAL/MOL
REMARK 924 INTRA-LIGAND FREE ENERGY PREDICTED BY IDOCK:   -0.95 KCAL/MOL
REMARK 927      BINDING AFFINITY PREDICTED BY RF-SCORE:    0.00 PKD
ROOT
HETATM    1  C   UNL     1      -8.904  10.704  66.272  1.00  0.00    -0.161 C  
HETATM    2  S   UNL     1     -10.607  10.226  66.391  1.00  0.00    -0.048 SA 
HETATM    3  C   UNL     1     -11.465  11.788  66.734  1.00  0.00    -0.281 C  
HETATM    4  C   UNL     1     -10.679  13.068  66.755  1.00  0.00    -0.273 C  
HETATM    5  CA  UNL     1      -7.631  10.249  67.131  1.00  0.00    -0.092 C  
HETATM    6  CA  UNL     1      -9.341  13.175  66.645  1.00  0.00    -0.239 C  
HETATM    7  C   UNL     1      -7.270  11.751  66.958  1.00  0.00    -0.134 C  
HETATM    8  C   UNL     1      -8.699  14.533  66.597  1.00  0.00    -0.129 C  
HETATM    9  N   UNL     1      -8.544  12.047  66.629  1.00  0.00    -0.174 N  
HETATM   10  OXT UNL     1      -9.230  15.464  66.011  1.00  0.00    -0.316 OA 
HETATM   11  O   UNL     1      -6.342  12.453  67.230  1.00  0.00    -0.149 OA 
HETATM   12  O   UNL     1      -7.508  14.681  67.196  1.00  0.00    -0.167 OA 
ENDROOT
BRANCH   4  13
HETATM   13  C   UNL     1     -11.574  14.268  67.075  1.00  0.00    -0.386 C  
BRANCH  13  14
HETATM   14  O   UNL     1     -12.148  14.192  68.395  1.00  0.00    -0.344 OA 
BRANCH  14  15
HETATM   15  C   UNL     1     -11.329  14.451  69.433  1.00  0.00    -0.281 C  
HETATM   16  O   UNL     1     -10.524  15.365  69.518  1.00  0.00    -0.229 OA 
HETATM   17  N   UNL     1     -11.478  13.505  70.390  1.00  0.00    -0.502 N  
HETATM   18  H2  UNL     1     -12.117  12.712  70.333  1.00  0.00     0.000 HD 
HETATM   19  H1  UNL     1     -10.858  13.701  71.176  1.00  0.00     0.000 HD 
ENDBRANCH  14  15
ENDBRANCH  13  14
ENDBRANCH   4  13
BRANCH   5  20
HETATM   20  N   UNL     1      -7.407   9.823  68.569  1.00  0.00    -0.074 N  
HETATM   21  H   UNL     1      -7.072  10.593  69.148  1.00  0.00     0.000 HD 
HETATM   22  C   UNL     1      -7.545   8.631  69.305  1.00  0.00    -0.094 C  
HETATM   23  O   UNL     1      -7.345   8.671  70.509  1.00  0.00    -0.048 OA 
BRANCH  22  24
HETATM   24  C   UNL     1      -7.735   7.275  68.646  1.00  0.00    -0.120 C  
BRANCH  24  25
HETATM   25  C   UNL     1      -8.880   6.448  69.008  1.00  0.00    -0.129 A  
HETATM   26  O   UNL     1     -10.102   6.595  68.405  1.00  0.00    -0.144 OA 
HETATM   27  C   UNL     1      -9.035   5.631  70.122  1.00  0.00    -0.151 A  
HETATM   28  C   UNL     1     -11.021   5.977  69.201  1.00  0.00    -0.359 A  
HETATM   29  C   UNL     1     -10.415   5.379  70.278  1.00  0.00    -0.355 A  
ENDBRANCH  24  25
BRANCH  24  30
HETATM   30  N   UNL     1      -6.870   6.647  67.906  1.00  0.00    -0.074 NA 
HETATM   31  H   UNL     1      -6.054   7.171  67.594  1.00  0.00     0.000 HD 
BRANCH  30  32
HETATM   32  O   UNL     1      -6.967   5.317  67.503  1.00  0.00    -0.062 OA 
HETATM   33  C   UNL     1      -7.695   4.953  66.354  1.00  0.00    -0.092 C  
ENDBRANCH  30  32
ENDBRANCH  24  30
ENDBRANCH  22  24
ENDBRANCH   5  20
TORSDOF 8
ENDMDL
MODEL      247
REMARK 921   NORMALIZED FREE ENERGY PREDICTED BY IDOCK:   -3.50 KCAL/MOL
REMARK 922        TOTAL FREE ENERGY PREDICTED BY IDOCK:   -6.53 KCAL/MOL
REMARK 923 INTER-LIGAND FREE ENERGY PREDICTED BY IDOCK:   -5.38 KCAL/MOL
REMARK 924 INTRA-LIGAND FREE ENERGY PREDICTED BY IDOCK:   -1.15 KCAL/MOL
REMARK 927      BINDING AFFINITY PREDICTED BY RF-SCORE:    0.00 PKD
ROOT
HETATM    1  C   UNL     1      -9.179  10.029  67.181  1.00  0.00    -0.141 C  
HETATM    2  S   UNL     1     -10.715  10.791  67.631  1.00  0.00    -0.279 SA 
HETATM    3  C   UNL     1     -10.216  12.415  68.267  1.00  0.00    -0.229 C  
HETATM    4  C   UNL     1      -8.768  12.811  68.213  1.00  0.00    -0.168 C  
HETATM    5  CA  UNL     1      -8.488   8.683  67.706  1.00  0.00    -0.125 C  
HETATM    6  CA  UNL     1      -7.747  12.023  67.822  1.00  0.00    -0.139 C  
HETATM    7  C   UNL     1      -7.213   9.560  67.571  1.00  0.00    -0.090 C  
HETATM    8  C   UNL     1      -6.357  12.585  67.737  1.00  0.00    -0.121 C  
HETATM    9  N   UNL     1      -7.956  10.685  67.549  1.00  0.00    -0.109 N  
HETATM   10  OXT UNL     1      -6.157  13.727  67.351  1.00  0.00    -0.344 OA 
HETATM   11  O   UNL     1      -6.035   9.394  67.687  1.00  0.00    -0.051 OA 
HETATM   12  O   UNL     1      -5.337  11.780  68.072  1.00  0.00    -0.044 OA 
ENDROOT
BRANCH   4  13
HETATM   13  C   UNL     1      -8.546  14.205  68.807  1.00  0.00    -0.067 C  
BRANCH  13  14
HETATM   14  O   UNL     1      -9.128  15.247  67.999  1.00  0.00    -0.173 OA 
BRANCH  14  15
HETATM   15  C   UNL     1      -9.503  16.374  68.634  1.00  0.00    -0.239 C  
HETATM   16  O   UNL     1      -9.101  17.506  68.412  1.00  0.00    -0.262 OA 
HETATM   17  N   UNL     1     -10.380  16.081  69.623  1.00  0.00    -0.275 N  
HETATM   18  H2  UNL     1     -10.709  15.143  69.853  1.00  0.00     0.000 HD 
HETATM   19  H1  UNL     1     -10.665  16.935  70.103  1.00  0.00     0.000 HD 
ENDBRANCH  14  15
ENDBRANCH  13  14
ENDBRANCH   4  13
BRANCH   5  20
HETATM   20  N   UNL     1      -8.468   7.935  69.026  1.00  0.00    -0.130 N  
HETATM   21  H   UNL     1      -7.517   7.763  69.352  1.00  0.00     0.000 HD 
HETATM   22  C   UNL     1      -9.432   7.419  69.912  1.00  0.00    -0.153 C  
HETATM   23  O   UNL     1      -9.045   6.928  70.962  1.00  0.00    -0.154 OA 
BRANCH  22  24
HETATM   24  C   UNL     1     -10.897   7.268  69.538  1.00  0.00    -0.209 C  
BRANCH  24  25
HETATM   25  C   UNL     1     -11.931   7.629  70.500  1.00  0.00    -0.020 A  
HETATM   26  O   UNL     1     -13.050   6.860  70.686  1.00  0.00    -0.044 OA 
HETATM   27  C   UNL     1     -12.120   8.845  71.146  1.00  0.00    -0.326 A  
HETATM   28  C   UNL     1     -13.967   7.634  71.335  1.00  0.00    -0.343 A  
HETATM   29  C   UNL     1     -13.446   8.870  71.629  1.00  0.00    -0.427 A  
ENDBRANCH  24  25
BRANCH  24  30
HETATM   30  N   UNL     1     -11.368   6.657  68.492  1.00  0.00    -0.576 NA 
HETATM   31  H   UNL     1     -11.907   5.806  68.650  1.00  0.00     0.000 HD 
BRANCH  30  32
HETATM   32  O   UNL     1     -11.199   7.069  67.172  1.00  0.00    -0.315 OA 
HETATM   33  C   UNL     1     -10.551   6.249  66.228  1.00  0.00     0.178 C  
ENDBRANCH  30  32
ENDBRANCH  24  30
ENDBRANCH  22  24
ENDBRANCH   5  20
TORSDOF 8
ENDMDL
MODEL      248
REMARK 921   NORMALIZED FREE ENERGY PREDICTED BY IDOCK:   -3.48 KCAL/MOL
REMARK 922        TOTAL FREE ENERGY PREDICTED BY IDOCK:   -6.51 KCAL/MOL
REMARK 923 INTER-LIGAND FREE ENERGY PREDICTED BY IDOCK:   -5.14 KCAL/MOL
REMARK 924 INTRA-LIGAND FREE ENERGY PREDICTED BY IDOCK:   -1.37 KCAL/MOL
REMARK 927      BINDING AFFINITY PREDICTED BY RF-SCORE:    0.00 PKD
ROOT
HETATM    1  C   UNL     1      -9.565  10.558  69.334  1.00  0.00    -0.148 C  
HETATM    2  S   UNL     1      -9.351  11.816  68.103  1.00  0.00    -0.193 SA 
HETATM    3  C   UNL     1     -10.831  12.849  68.287  1.00  0.00    -0.242 C  
HETATM    4  C   UNL     1     -11.808  12.543  69.386  1.00  0.00    -0.368 C  
HETATM    5  CA  UNL     1      -9.675   8.967  69.192  1.00  0.00    -0.168 C  
HETATM    6  CA  UNL     1     -11.756  11.485  70.218  1.00  0.00    -0.289 C  
HETATM    7  C   UNL     1     -10.727   9.172  70.317  1.00  0.00    -0.231 C  
HETATM    8  C   UNL     1     -12.758  11.354  71.329  1.00  0.00    -0.393 C  
HETATM    9  N   UNL     1     -10.820  10.485  70.027  1.00  0.00    -0.279 N  
HETATM   10  OXT UNL     1     -13.153  12.333  71.944  1.00  0.00    -0.432 OA 
HETATM   11  O   UNL     1     -11.398   8.467  71.010  1.00  0.00    -0.257 OA 
HETATM   12  O   UNL     1     -13.183  10.121  71.644  1.00  0.00    -0.393 OA 
ENDROOT
BRANCH   4  13
HETATM   13  C   UNL     1     -12.993  13.513  69.368  1.00  0.00     1.146 C  
BRANCH  13  14
HETATM   14  O   UNL     1     -12.592  14.877  69.603  1.00  0.00    -0.192 OA 
BRANCH  14  15
HETATM   15  C   UNL     1     -12.288  15.214  70.872  1.00  0.00    -0.354 C  
HETATM   16  O   UNL     1     -11.171  15.365  71.341  1.00  0.00    -0.367 OA 
HETATM   17  N   UNL     1     -13.420  15.321  71.608  1.00  0.00    -0.442 N  
HETATM   18  H2  UNL     1     -14.364  15.169  71.253  1.00  0.00     0.000 HD 
HETATM   19  H1  UNL     1     -13.190  15.577  72.568  1.00  0.00     0.000 HD 
ENDBRANCH  14  15
ENDBRANCH  13  14
ENDBRANCH   4  13
BRANCH   5  20
HETATM   20  N   UNL     1     -10.219   8.022  68.137  1.00  0.00    -0.201 N  
HETATM   21  H   UNL     1     -11.150   8.294  67.824  1.00  0.00     0.000 HD 
HETATM   22  C   UNL     1      -9.760   6.863  67.484  1.00  0.00    -0.134 C  
HETATM   23  O   UNL     1     -10.453   6.389  66.596  1.00  0.00    -0.212 OA 
BRANCH  22  24
HETATM   24  C   UNL     1      -8.553   6.072  67.960  1.00  0.00    -0.114 C  
BRANCH  24  25
HETATM   25  C   UNL     1      -8.715   5.048  68.985  1.00  0.00    -0.088 A  
HETATM   26  O   UNL     1      -8.336   3.748  68.780  1.00  0.00    -0.072 OA 
HETATM   27  C   UNL     1      -9.477   5.106  70.147  1.00  0.00    -0.229 A  
HETATM   28  C   UNL     1      -8.952   2.992  69.733  1.00  0.00    -0.107 A  
HETATM   29  C   UNL     1      -9.677   3.782  70.592  1.00  0.00    -0.235 A  
ENDBRANCH  24  25
BRANCH  24  30
HETATM   30  N   UNL     1      -7.307   6.329  67.693  1.00  0.00    -0.082 NA 
HETATM   31  H   UNL     1      -7.019   6.288  66.716  1.00  0.00     0.000 HD 
BRANCH  30  32
HETATM   32  O   UNL     1      -6.331   6.657  68.632  1.00  0.00    -0.029 OA 
HETATM   33  C   UNL     1      -6.199   7.971  69.121  1.00  0.00    -0.039 C  
ENDBRANCH  30  32
ENDBRANCH  24  30
ENDBRANCH  22  24
ENDBRANCH   5  20
TORSDOF 8
ENDMDL
MODEL      249
REMARK 921   NORMALIZED FREE ENERGY PREDICTED BY IDOCK:   -3.48 KCAL/MOL
REMARK 922        TOTAL FREE ENERGY PREDICTED BY IDOCK:   -6.50 KCAL/MOL
REMARK 923 INTER-LIGAND FREE ENERGY PREDICTED BY IDOCK:   -5.91 KCAL/MOL
REMARK 924 INTRA-LIGAND FREE ENERGY PREDICTED BY IDOCK:   -0.59 KCAL/MOL
REMARK 927      BINDING AFFINITY PREDICTED BY RF-SCORE:    0.00 PKD
ROOT
HETATM    1  C   UNL     1     -11.669  13.986  66.189  1.00  0.00    -0.384 C  
HETATM    2  S   UNL     1     -11.984  13.176  64.643  1.00  0.00    -0.415 SA 
HETATM    3  C   UNL     1     -11.085  11.608  64.792  1.00  0.00    -0.264 C  
HETATM    4  C   UNL     1     -10.396  11.276  66.086  1.00  0.00    -0.300 C  
HETATM    5  CA  UNL     1     -10.958  15.385  66.507  1.00  0.00    -0.271 C  
HETATM    6  CA  UNL     1     -10.284  12.091  67.152  1.00  0.00    -0.202 C  
HETATM    7  C   UNL     1     -10.394  14.562  67.698  1.00  0.00    -0.237 C  
HETATM    8  C   UNL     1      -9.639  11.590  68.413  1.00  0.00    -0.195 C  
HETATM    9  N   UNL     1     -10.707  13.405  67.082  1.00  0.00    -0.263 N  
HETATM   10  OXT UNL     1      -9.805  10.442  68.796  1.00  0.00    -0.168 OA 
HETATM   11  O   UNL     1      -9.725  14.787  68.663  1.00  0.00    -0.213 OA 
HETATM   12  O   UNL     1      -8.898  12.456  69.122  1.00  0.00     0.375 OA 
ENDROOT
BRANCH   4  13
HETATM   13  C   UNL     1      -9.683   9.923  66.009  1.00  0.00    -0.247 C  
BRANCH  13  14
HETATM   14  O   UNL     1     -10.605   8.816  65.979  1.00  0.00     0.310 OA 
BRANCH  14  15
HETATM   15  C   UNL     1     -10.372   7.802  66.835  1.00  0.00    -0.326 C  
HETATM   16  O   UNL     1     -11.131   6.885  67.106  1.00  0.00    -0.370 OA 
HETATM   17  N   UNL     1      -9.162   7.959  67.422  1.00  0.00    -0.138 N  
HETATM   18  H2  UNL     1      -8.521   8.732  67.242  1.00  0.00     0.000 HD 
HETATM   19  H1  UNL     1      -8.986   7.192  68.071  1.00  0.00     0.000 HD 
ENDBRANCH  14  15
ENDBRANCH  13  14
ENDBRANCH   4  13
BRANCH   5  20
HETATM   20  N   UNL     1      -9.848  16.193  65.862  1.00  0.00    -0.340 N  
HETATM   21  H   UNL     1      -9.788  16.025  64.858  1.00  0.00     0.000 HD 
HETATM   22  C   UNL     1      -8.882  17.117  66.302  1.00  0.00    -0.231 C  
HETATM   23  O   UNL     1      -8.174  17.654  65.463  1.00  0.00    -0.293 OA 
BRANCH  22  24
HETATM   24  C   UNL     1      -8.550  17.326  67.770  1.00  0.00    -0.225 C  
BRANCH  24  25
HETATM   25  C   UNL     1      -7.453  16.582  68.378  1.00  0.00    -0.186 A  
HETATM   26  O   UNL     1      -7.117  16.733  69.698  1.00  0.00    -0.136 OA 
HETATM   27  C   UNL     1      -6.443  15.866  67.746  1.00  0.00    -0.177 A  
HETATM   28  C   UNL     1      -5.862  16.223  69.855  1.00  0.00    -0.187 A  
HETATM   29  C   UNL     1      -5.399  15.688  68.678  1.00  0.00    -0.093 A  
ENDBRANCH  24  25
BRANCH  24  30
HETATM   30  N   UNL     1      -9.268  17.973  68.640  1.00  0.00    -0.289 NA 
HETATM   31  H   UNL     1     -10.056  17.478  69.057  1.00  0.00     0.000 HD 
BRANCH  30  32
HETATM   32  O   UNL     1      -9.050  19.286  69.049  1.00  0.00    -0.345 OA 
HETATM   33  C   UNL     1      -7.959  20.032  68.562  1.00  0.00    -0.104 C  
ENDBRANCH  30  32
ENDBRANCH  24  30
ENDBRANCH  22  24
ENDBRANCH   5  20
TORSDOF 8
ENDMDL
MODEL      250
REMARK 921   NORMALIZED FREE ENERGY PREDICTED BY IDOCK:   -3.48 KCAL/MOL
REMARK 922        TOTAL FREE ENERGY PREDICTED BY IDOCK:   -6.50 KCAL/MOL
REMARK 923 INTER-LIGAND FREE ENERGY PREDICTED BY IDOCK:   -5.51 KCAL/MOL
REMARK 924 INTRA-LIGAND FREE ENERGY PREDICTED BY IDOCK:   -0.99 KCAL/MOL
REMARK 927      BINDING AFFINITY PREDICTED BY RF-SCORE:    0.00 PKD
ROOT
HETATM    1  C   UNL     1      -7.976  11.737  67.362  1.00  0.00    -0.155 C  
HETATM    2  S   UNL     1      -7.066  10.651  68.427  1.00  0.00    -0.081 SA 
HETATM    3  C   UNL     1      -6.805   9.173  67.407  1.00  0.00    -0.077 C  
HETATM    4  C   UNL     1      -7.270   9.176  65.979  1.00  0.00    -0.094 C  
HETATM    5  CA  UNL     1      -9.432  12.384  67.530  1.00  0.00    -0.187 C  
HETATM    6  CA  UNL     1      -7.975  10.153  65.379  1.00  0.00    -0.144 C  
HETATM    7  C   UNL     1      -9.483  12.091  66.005  1.00  0.00    -0.219 C  
HETATM    8  C   UNL     1      -8.297  10.057  63.915  1.00  0.00    -0.167 C  
HETATM    9  N   UNL     1      -8.456  11.224  66.110  1.00  0.00    -0.164 N  
HETATM   10  OXT UNL     1      -7.495   9.590  63.120  1.00  0.00    -0.106 OA 
HETATM   11  O   UNL     1     -10.243  12.309  65.109  1.00  0.00    -0.271 OA 
HETATM   12  O   UNL     1      -9.484  10.526  63.504  1.00  0.00    -0.259 OA 
ENDROOT
BRANCH   4  13
HETATM   13  C   UNL     1      -6.974   7.839  65.292  1.00  0.00    -0.059 C  
BRANCH  13  14
HETATM   14  O   UNL     1      -8.161   7.045  65.097  1.00  0.00    -0.120 OA 
BRANCH  14  15
HETATM   15  C   UNL     1      -8.150   6.170  64.074  1.00  0.00    -0.074 C  
HETATM   16  O   UNL     1      -7.394   6.176  63.115  1.00  0.00    -0.052 OA 
HETATM   17  N   UNL     1      -9.154   5.273  64.218  1.00  0.00    -0.357 N  
HETATM   18  H2  UNL     1      -9.821   5.262  64.990  1.00  0.00     0.000 HD 
HETATM   19  H1  UNL     1      -9.145   4.610  63.443  1.00  0.00     0.000 HD 
ENDBRANCH  14  15
ENDBRANCH  13  14
ENDBRANCH   4  13
BRANCH   5  20
HETATM   20  N   UNL     1     -10.728  11.949  68.187  1.00  0.00    -0.205 N  
HETATM   21  H   UNL     1     -11.292  12.745  68.482  1.00  0.00     0.000 HD 
HETATM   22  C   UNL     1     -11.345  10.722  68.492  1.00  0.00    -0.295 C  
HETATM   23  O   UNL     1     -12.470  10.746  68.969  1.00  0.00    -0.379 OA 
BRANCH  22  24
HETATM   24  C   UNL     1     -10.609   9.394  68.440  1.00  0.00    -0.204 C  
BRANCH  24  25
HETATM   25  C   UNL     1     -10.032   8.836  69.657  1.00  0.00    -0.191 A  
HETATM   26  O   UNL     1     -10.526   7.699  70.241  1.00  0.00    -0.214 OA 
HETATM   27  C   UNL     1      -9.147   9.438  70.545  1.00  0.00    -0.308 A  
HETATM   28  C   UNL     1     -10.048   7.661  71.518  1.00  0.00    -0.178 A  
HETATM   29  C   UNL     1      -9.204   8.718  71.757  1.00  0.00    -0.332 A  
ENDBRANCH  24  25
BRANCH  24  30
HETATM   30  N   UNL     1     -10.249   8.751  67.368  1.00  0.00    -0.232 NA 
HETATM   31  H   UNL     1     -10.059   9.304  66.533  1.00  0.00     0.000 HD 
BRANCH  30  32
HETATM   32  O   UNL     1     -10.103   7.370  67.266  1.00  0.00    -0.183 OA 
HETATM   33  C   UNL     1     -11.208   6.535  67.011  1.00  0.00    -0.207 C  
ENDBRANCH  30  32
ENDBRANCH  24  30
ENDBRANCH  22  24
ENDBRANCH   5  20
TORSDOF 8
ENDMDL
MODEL      251
REMARK 921   NORMALIZED FREE ENERGY PREDICTED BY IDOCK:   -3.46 KCAL/MOL
REMARK 922        TOTAL FREE ENERGY PREDICTED BY IDOCK:   -6.48 KCAL/MOL
REMARK 923 INTER-LIGAND FREE ENERGY PREDICTED BY IDOCK:   -5.51 KCAL/MOL
REMARK 924 INTRA-LIGAND FREE ENERGY PREDICTED BY IDOCK:   -0.97 KCAL/MOL
REMARK 927      BINDING AFFINITY PREDICTED BY RF-SCORE:    0.00 PKD
ROOT
HETATM    1  C   UNL     1      -8.181   9.575  67.061  1.00  0.00    -0.113 C  
HETATM    2  S   UNL     1      -9.127   8.940  68.419  1.00  0.00    -0.137 SA 
HETATM    3  C   UNL     1      -9.667   7.309  67.838  1.00  0.00    -0.140 C  
HETATM    4  C   UNL     1      -9.189   6.810  66.503  1.00  0.00    -0.190 C  
HETATM    5  CA  UNL     1      -8.391  10.888  66.167  1.00  0.00    -0.168 C  
HETATM    6  CA  UNL     1      -8.458   7.510  65.614  1.00  0.00    -0.132 C  
HETATM    7  C   UNL     1      -7.917   9.919  65.049  1.00  0.00    -0.137 C  
HETATM    8  C   UNL     1      -7.979   6.849  64.353  1.00  0.00    -0.093 C  
HETATM    9  N   UNL     1      -8.189   8.849  65.823  1.00  0.00    -0.110 N  
HETATM   10  OXT UNL     1      -7.614   5.683  64.348  1.00  0.00    -0.072 OA 
HETATM   11  O   UNL     1      -7.653  10.005  63.886  1.00  0.00    -0.135 OA 
HETATM   12  O   UNL     1      -7.936   7.592  63.237  1.00  0.00    -0.136 OA 
ENDROOT
BRANCH   4  13
HETATM   13  C   UNL     1      -9.763   5.427  66.185  1.00  0.00    -0.145 C  
BRANCH  13  14
HETATM   14  O   UNL     1      -9.395   4.439  67.168  1.00  0.00    -0.133 OA 
BRANCH  14  15
HETATM   15  C   UNL     1      -8.540   3.475  66.776  1.00  0.00    -0.112 C  
HETATM   16  O   UNL     1      -7.693   2.926  67.463  1.00  0.00    -0.067 OA 
HETATM   17  N   UNL     1      -8.707   3.213  65.458  1.00  0.00    -0.116 N  
HETATM   18  H2  UNL     1      -9.383   3.678  64.851  1.00  0.00     0.000 HD 
HETATM   19  H1  UNL     1      -8.060   2.483  65.162  1.00  0.00     0.000 HD 
ENDBRANCH  14  15
ENDBRANCH  13  14
ENDBRANCH   4  13
BRANCH   5  20
HETATM   20  N   UNL     1      -9.595  11.679  65.693  1.00  0.00    -0.231 N  
HETATM   21  H   UNL     1      -9.675  11.681  64.677  1.00  0.00     0.000 HD 
HETATM   22  C   UNL     1     -10.630  12.411  66.306  1.00  0.00    -0.249 C  
HETATM   23  O   UNL     1     -11.512  12.867  65.594  1.00  0.00    -0.308 OA 
BRANCH  22  24
HETATM   24  C   UNL     1     -10.595  12.821  67.768  1.00  0.00    -0.221 C  
BRANCH  24  25
HETATM   25  C   UNL     1     -11.483  12.172  68.725  1.00  0.00    -0.307 A  
HETATM   26  O   UNL     1     -12.098  12.867  69.733  1.00  0.00    -0.299 OA 
HETATM   27  C   UNL     1     -11.642  10.812  68.967  1.00  0.00    -0.370 A  
HETATM   28  C   UNL     1     -12.528  11.953  70.649  1.00  0.00    -0.257 A  
HETATM   29  C   UNL     1     -12.258  10.673  70.229  1.00  0.00    -0.417 A  
ENDBRANCH  24  25
BRANCH  24  30
HETATM   30  N   UNL     1      -9.979  13.851  68.267  1.00  0.00    -0.233 NA 
HETATM   31  H   UNL     1      -9.095  13.681  68.745  1.00  0.00     0.000 HD 
BRANCH  30  32
HETATM   32  O   UNL     1     -10.427  15.169  68.203  1.00  0.00    -0.239 OA 
HETATM   33  C   UNL     1      -9.757  16.203  68.885  1.00  0.00    -0.242 C  
ENDBRANCH  30  32
ENDBRANCH  24  30
ENDBRANCH  22  24
ENDBRANCH   5  20
TORSDOF 8
ENDMDL
MODEL      252
REMARK 921   NORMALIZED FREE ENERGY PREDICTED BY IDOCK:   -3.45 KCAL/MOL
REMARK 922        TOTAL FREE ENERGY PREDICTED BY IDOCK:   -6.45 KCAL/MOL
REMARK 923 INTER-LIGAND FREE ENERGY PREDICTED BY IDOCK:   -4.22 KCAL/MOL
REMARK 924 INTRA-LIGAND FREE ENERGY PREDICTED BY IDOCK:   -2.23 KCAL/MOL
REMARK 927      BINDING AFFINITY PREDICTED BY RF-SCORE:    0.00 PKD
ROOT
HETATM    1  C   UNL     1     -11.086   7.046  70.561  1.00  0.00    -0.280 C  
HETATM    2  S   UNL     1     -10.317   7.737  72.000  1.00  0.00    -0.228 SA 
HETATM    3  C   UNL     1      -9.380   9.147  71.348  1.00  0.00    -0.176 C  
HETATM    4  C   UNL     1      -9.492   9.491  69.890  1.00  0.00    -0.247 C  
HETATM    5  CA  UNL     1     -10.958   5.589  69.907  1.00  0.00    -0.122 C  
HETATM    6  CA  UNL     1     -10.156   8.780  68.959  1.00  0.00    -0.198 C  
HETATM    7  C   UNL     1     -11.020   6.426  68.599  1.00  0.00    -0.330 C  
HETATM    8  C   UNL     1     -10.253   9.294  67.551  1.00  0.00    -0.242 C  
HETATM    9  N   UNL     1     -10.706   7.551  69.272  1.00  0.00    -0.210 N  
HETATM   10  OXT UNL     1     -10.385  10.486  67.320  1.00  0.00    -0.203 OA 
HETATM   11  O   UNL     1     -11.068   6.194  67.427  1.00  0.00    -0.331 OA 
HETATM   12  O   UNL     1     -10.220   8.396  66.555  1.00  0.00    -0.293 OA 
ENDROOT
BRANCH   4  13
HETATM   13  C   UNL     1      -8.619  10.698  69.531  1.00  0.00     0.042 C  
BRANCH  13  14
HETATM   14  O   UNL     1      -7.307  10.312  69.078  1.00  0.00    -0.077 OA 
BRANCH  14  15
HETATM   15  C   UNL     1      -6.264  10.658  69.859  1.00  0.00    -0.098 C  
HETATM   16  O   UNL     1      -6.227  11.574  70.665  1.00  0.00    -0.322 OA 
HETATM   17  N   UNL     1      -5.201   9.862  69.593  1.00  0.00    -0.034 N  
HETATM   18  H2  UNL     1      -5.191   9.111  68.903  1.00  0.00     0.000 HD 
HETATM   19  H1  UNL     1      -4.412  10.124  70.184  1.00  0.00     0.000 HD 
ENDBRANCH  14  15
ENDBRANCH  13  14
ENDBRANCH   4  13
BRANCH   5  20
HETATM   20  N   UNL     1      -9.855   4.553  69.810  1.00  0.00    -0.219 N  
HETATM   21  H   UNL     1     -10.207   3.607  69.954  1.00  0.00     0.000 HD 
HETATM   22  C   UNL     1      -8.468   4.570  69.571  1.00  0.00    -0.076 C  
HETATM   23  O   UNL     1      -7.886   3.500  69.478  1.00  0.00    -0.051 OA 
BRANCH  22  24
HETATM   24  C   UNL     1      -7.640   5.844  69.619  1.00  0.00    -0.081 C  
BRANCH  24  25
HETATM   25  C   UNL     1      -7.153   6.343  70.900  1.00  0.00    -0.070 A  
HETATM   26  O   UNL     1      -6.307   7.417  70.986  1.00  0.00    -0.036 OA 
HETATM   27  C   UNL     1      -7.204   5.721  72.142  1.00  0.00    -0.089 A  
HETATM   28  C   UNL     1      -5.748   7.391  72.230  1.00  0.00    -0.037 A  
HETATM   29  C   UNL     1      -6.259   6.357  72.976  1.00  0.00    -0.055 A  
ENDBRANCH  24  25
BRANCH  24  30
HETATM   30  N   UNL     1      -7.458   6.684  68.645  1.00  0.00    -0.087 NA 
HETATM   31  H   UNL     1      -7.846   7.620  68.756  1.00  0.00     0.000 HD 
BRANCH  30  32
HETATM   32  O   UNL     1      -6.776   6.411  67.461  1.00  0.00    -0.064 OA 
HETATM   33  C   UNL     1      -5.417   6.044  67.468  1.00  0.00    -0.005 C  
ENDBRANCH  30  32
ENDBRANCH  24  30
ENDBRANCH  22  24
ENDBRANCH   5  20
TORSDOF 8
ENDMDL
MODEL      253
REMARK 921   NORMALIZED FREE ENERGY PREDICTED BY IDOCK:   -3.42 KCAL/MOL
REMARK 922        TOTAL FREE ENERGY PREDICTED BY IDOCK:   -6.41 KCAL/MOL
REMARK 923 INTER-LIGAND FREE ENERGY PREDICTED BY IDOCK:   -4.63 KCAL/MOL
REMARK 924 INTRA-LIGAND FREE ENERGY PREDICTED BY IDOCK:   -1.78 KCAL/MOL
REMARK 927      BINDING AFFINITY PREDICTED BY RF-SCORE:    0.00 PKD
ROOT
HETATM    1  C   UNL     1      -8.521   8.797  71.150  1.00  0.00    -0.187 C  
HETATM    2  S   UNL     1      -9.854   8.700  72.314  1.00  0.00    -0.231 SA 
HETATM    3  C   UNL     1      -9.763   6.994  72.925  1.00  0.00    -0.161 C  
HETATM    4  C   UNL     1      -8.644   6.106  72.460  1.00  0.00    -0.121 C  
HETATM    5  CA  UNL     1      -8.527   9.119  69.581  1.00  0.00    -0.133 C  
HETATM    6  CA  UNL     1      -7.725   6.417  71.525  1.00  0.00    -0.100 C  
HETATM    7  C   UNL     1      -7.427   8.022  69.588  1.00  0.00    -0.091 C  
HETATM    8  C   UNL     1      -6.609   5.458  71.223  1.00  0.00    -0.040 C  
HETATM    9  N   UNL     1      -7.828   7.590  70.801  1.00  0.00    -0.096 N  
HETATM   10  OXT UNL     1      -6.081   4.802  72.107  1.00  0.00    -0.016 OA 
HETATM   11  O   UNL     1      -6.678   7.545  68.788  1.00  0.00    -0.050 OA 
HETATM   12  O   UNL     1      -6.192   5.368  69.951  1.00  0.00    -0.023 OA 
ENDROOT
BRANCH   4  13
HETATM   13  C   UNL     1      -8.748   4.707  73.073  1.00  0.00    -0.113 C  
BRANCH  13  14
HETATM   14  O   UNL     1     -10.114   4.275  73.229  1.00  0.00    -0.134 OA 
BRANCH  14  15
HETATM   15  C   UNL     1     -10.330   2.947  73.312  1.00  0.00    -0.148 C  
HETATM   16  O   UNL     1     -11.326   2.395  73.751  1.00  0.00    -0.211 OA 
HETATM   17  N   UNL     1      -9.239   2.271  72.879  1.00  0.00    -0.076 N  
HETATM   18  H2  UNL     1      -8.381   2.704  72.538  1.00  0.00     0.000 HD 
HETATM   19  H1  UNL     1      -9.403   1.266  72.942  1.00  0.00     0.000 HD 
ENDBRANCH  14  15
ENDBRANCH  13  14
ENDBRANCH   4  13
BRANCH   5  20
HETATM   20  N   UNL     1      -9.499   8.873  68.442  1.00  0.00    -0.140 N  
HETATM   21  H   UNL     1      -9.573   9.680  67.823  1.00  0.00     0.000 HD 
HETATM   22  C   UNL     1     -10.323   7.810  68.026  1.00  0.00    -0.209 C  
HETATM   23  O   UNL     1     -10.934   7.933  66.976  1.00  0.00    -0.219 OA 
BRANCH  22  24
HETATM   24  C   UNL     1     -10.634   6.615  68.911  1.00  0.00    -0.230 C  
BRANCH  24  25
HETATM   25  C   UNL     1      -9.774   5.439  68.870  1.00  0.00    -0.151 A  
HETATM   26  O   UNL     1      -8.852   5.247  67.874  1.00  0.00    -0.106 OA 
HETATM   27  C   UNL     1      -9.899   4.255  69.588  1.00  0.00    -0.244 A  
HETATM   28  C   UNL     1      -8.500   3.930  67.899  1.00  0.00    -0.094 A  
HETATM   29  C   UNL     1      -9.128   3.273  68.929  1.00  0.00    -0.207 A  
ENDBRANCH  24  25
BRANCH  24  30
HETATM   30  N   UNL     1     -11.723   6.423  69.594  1.00  0.00    -0.587 NA 
HETATM   31  H   UNL     1     -12.349   5.682  69.279  1.00  0.00     0.000 HD 
BRANCH  30  32
HETATM   32  O   UNL     1     -12.107   7.145  70.722  1.00  0.00    -0.331 OA 
HETATM   33  C   UNL     1     -13.358   6.936  71.333  1.00  0.00    -0.181 C  
ENDBRANCH  30  32
ENDBRANCH  24  30
ENDBRANCH  22  24
ENDBRANCH   5  20
TORSDOF 8
ENDMDL
MODEL      254
REMARK 921   NORMALIZED FREE ENERGY PREDICTED BY IDOCK:   -3.37 KCAL/MOL
REMARK 922        TOTAL FREE ENERGY PREDICTED BY IDOCK:   -6.35 KCAL/MOL
REMARK 923 INTER-LIGAND FREE ENERGY PREDICTED BY IDOCK:   -5.07 KCAL/MOL
REMARK 924 INTRA-LIGAND FREE ENERGY PREDICTED BY IDOCK:   -1.28 KCAL/MOL
REMARK 927      BINDING AFFINITY PREDICTED BY RF-SCORE:    0.00 PKD
ROOT
HETATM    1  C   UNL     1     -10.601   7.061  69.569  1.00  0.00    -0.234 C  
HETATM    2  S   UNL     1     -11.868   6.644  70.736  1.00  0.00    -0.335 SA 
HETATM    3  C   UNL     1     -11.041   6.816  72.342  1.00  0.00    -0.257 C  
HETATM    4  C   UNL     1      -9.625   7.316  72.389  1.00  0.00    -0.180 C  
HETATM    5  CA  UNL     1      -9.948   6.201  68.386  1.00  0.00    -0.140 C  
HETATM    6  CA  UNL     1      -8.839   7.564  71.324  1.00  0.00    -0.133 C  
HETATM    7  C   UNL     1      -8.666   6.928  68.878  1.00  0.00    -0.130 C  
HETATM    8  C   UNL     1      -7.468   8.145  71.523  1.00  0.00    -0.081 C  
HETATM    9  N   UNL     1      -9.260   7.238  70.048  1.00  0.00    -0.148 N  
HETATM   10  OXT UNL     1      -7.254   8.982  72.387  1.00  0.00    -0.332 OA 
HETATM   11  O   UNL     1      -7.526   6.999  68.528  1.00  0.00    -0.097 OA 
HETATM   12  O   UNL     1      -6.492   7.737  70.699  1.00  0.00    -0.037 OA 
ENDROOT
BRANCH   4  13
HETATM   13  C   UNL     1      -9.101   7.377  73.826  1.00  0.00    -0.247 C  
BRANCH  13  14
HETATM   14  O   UNL     1      -8.779   6.074  74.351  1.00  0.00    -0.118 OA 
BRANCH  14  15
HETATM   15  C   UNL     1      -7.532   5.616  74.127  1.00  0.00    -0.092 C  
HETATM   16  O   UNL     1      -6.486   6.213  74.331  1.00  0.00    -0.070 OA 
HETATM   17  N   UNL     1      -7.583   4.379  73.578  1.00  0.00    -0.077 N  
HETATM   18  H2  UNL     1      -8.440   3.869  73.366  1.00  0.00     0.000 HD 
HETATM   19  H1  UNL     1      -6.638   4.033  73.409  1.00  0.00     0.000 HD 
ENDBRANCH  14  15
ENDBRANCH  13  14
ENDBRANCH   4  13
BRANCH   5  20
HETATM   20  N   UNL     1      -9.659   4.728  68.167  1.00  0.00    -0.141 N  
HETATM   21  H   UNL     1      -9.324   4.274  69.017  1.00  0.00     0.000 HD 
HETATM   22  C   UNL     1      -9.737   3.831  67.085  1.00  0.00    -0.101 C  
HETATM   23  O   UNL     1      -9.495   2.652  67.296  1.00  0.00    -0.144 OA 
BRANCH  22  24
HETATM   24  C   UNL     1      -9.915   4.288  65.647  1.00  0.00    -0.224 C  
BRANCH  24  25
HETATM   25  C   UNL     1      -8.787   4.866  64.926  1.00  0.00    -0.152 A  
HETATM   26  O   UNL     1      -7.840   4.088  64.315  1.00  0.00    -0.082 OA 
HETATM   27  C   UNL     1      -8.327   6.178  64.955  1.00  0.00    -0.092 A  
HETATM   28  C   UNL     1      -6.757   4.882  64.077  1.00  0.00    -0.043 A  
HETATM   29  C   UNL     1      -7.004   6.176  64.465  1.00  0.00    -0.051 A  
ENDBRANCH  24  25
BRANCH  24  30
HETATM   30  N   UNL     1     -11.041   4.408  65.008  1.00  0.00    -0.930 NA 
HETATM   31  H   UNL     1     -11.810   4.865  65.497  1.00  0.00     0.000 HD 
BRANCH  30  32
HETATM   32  O   UNL     1     -11.283   3.963  63.711  1.00  0.00    -0.226 OA 
HETATM   33  C   UNL     1     -11.027   2.630  63.335  1.00  0.00    -0.168 C  
ENDBRANCH  30  32
ENDBRANCH  24  30
ENDBRANCH  22  24
ENDBRANCH   5  20
TORSDOF 8
ENDMDL
MODEL      255
REMARK 921   NORMALIZED FREE ENERGY PREDICTED BY IDOCK:   -3.36 KCAL/MOL
REMARK 922        TOTAL FREE ENERGY PREDICTED BY IDOCK:   -6.33 KCAL/MOL
REMARK 923 INTER-LIGAND FREE ENERGY PREDICTED BY IDOCK:   -4.59 KCAL/MOL
REMARK 924 INTRA-LIGAND FREE ENERGY PREDICTED BY IDOCK:   -1.74 KCAL/MOL
REMARK 927      BINDING AFFINITY PREDICTED BY RF-SCORE:    0.00 PKD
ROOT
HETATM    1  C   UNL     1      -9.009   8.795  66.581  1.00  0.00    -0.139 C  
HETATM    2  S   UNL     1     -10.467   9.424  67.369  1.00  0.00    -0.265 SA 
HETATM    3  C   UNL     1     -10.015   9.470  69.126  1.00  0.00    -0.183 C  
HETATM    4  C   UNL     1      -8.617   9.101  69.534  1.00  0.00    -0.138 C  
HETATM    5  CA  UNL     1      -8.785   7.477  65.699  1.00  0.00    -0.079 C  
HETATM    6  CA  UNL     1      -7.656   8.626  68.720  1.00  0.00    -0.096 C  
HETATM    7  C   UNL     1      -7.441   7.465  66.479  1.00  0.00    -0.084 C  
HETATM    8  C   UNL     1      -6.273   8.382  69.255  1.00  0.00    -0.038 C  
HETATM    9  N   UNL     1      -7.941   8.307  67.406  1.00  0.00    -0.105 N  
HETATM   10  OXT UNL     1      -5.772   9.131  70.080  1.00  0.00    -0.031 OA 
HETATM   11  O   UNL     1      -6.439   6.814  66.462  1.00  0.00    -0.041 OA 
HETATM   12  O   UNL     1      -5.595   7.328  68.775  1.00  0.00    -0.020 OA 
ENDROOT
BRANCH   4  13
HETATM   13  C   UNL     1      -8.437   9.187  71.053  1.00  0.00    -0.165 C  
BRANCH  13  14
HETATM   14  O   UNL     1      -8.769   7.952  71.717  1.00  0.00    -0.111 OA 
BRANCH  14  15
HETATM   15  C   UNL     1      -8.545   7.892  73.044  1.00  0.00    -0.188 C  
HETATM   16  O   UNL     1      -9.379   7.720  73.920  1.00  0.00    -0.277 OA 
HETATM   17  N   UNL     1      -7.233   8.107  73.304  1.00  0.00    -0.124 N  
HETATM   18  H2  UNL     1      -6.519   8.286  72.598  1.00  0.00     0.000 HD 
HETATM   19  H1  UNL     1      -7.064   8.062  74.309  1.00  0.00     0.000 HD 
ENDBRANCH  14  15
ENDBRANCH  13  14
ENDBRANCH   4  13
BRANCH   5  20
HETATM   20  N   UNL     1      -9.389   6.085  65.683  1.00  0.00    -0.368 N  
HETATM   21  H   UNL     1      -9.868   5.888  64.805  1.00  0.00     0.000 HD 
HETATM   22  C   UNL     1      -9.452   4.999  66.576  1.00  0.00    -0.149 C  
HETATM   23  O   UNL     1      -9.969   3.963  66.186  1.00  0.00    -0.164 OA 
BRANCH  22  24
HETATM   24  C   UNL     1      -9.089   5.120  68.046  1.00  0.00    -0.112 C  
BRANCH  24  25
HETATM   25  C   UNL     1     -10.133   5.375  69.032  1.00  0.00    -0.213 A  
HETATM   26  O   UNL     1     -11.194   6.201  68.770  1.00  0.00    -0.367 OA 
HETATM   27  C   UNL     1     -10.117   5.099  70.395  1.00  0.00    -0.333 A  
HETATM   28  C   UNL     1     -11.756   6.529  69.968  1.00  0.00    -0.322 A  
HETATM   29  C   UNL     1     -11.119   5.885  71.001  1.00  0.00    -0.315 A  
ENDBRANCH  24  25
BRANCH  24  30
HETATM   30  N   UNL     1      -7.891   5.214  68.541  1.00  0.00    -0.079 NA 
HETATM   31  H   UNL     1      -7.562   6.144  68.798  1.00  0.00     0.000 HD 
BRANCH  30  32
HETATM   32  O   UNL     1      -7.018   4.148  68.749  1.00  0.00    -0.046 OA 
HETATM   33  C   UNL     1      -6.279   3.590  67.688  1.00  0.00    -0.032 C  
ENDBRANCH  30  32
ENDBRANCH  24  30
ENDBRANCH  22  24
ENDBRANCH   5  20
TORSDOF 8
ENDMDL
MODEL      256
REMARK 921   NORMALIZED FREE ENERGY PREDICTED BY IDOCK:   -3.25 KCAL/MOL
REMARK 922        TOTAL FREE ENERGY PREDICTED BY IDOCK:   -6.16 KCAL/MOL
REMARK 923 INTER-LIGAND FREE ENERGY PREDICTED BY IDOCK:   -4.39 KCAL/MOL
REMARK 924 INTRA-LIGAND FREE ENERGY PREDICTED BY IDOCK:   -1.77 KCAL/MOL
REMARK 927      BINDING AFFINITY PREDICTED BY RF-SCORE:    0.00 PKD
ROOT
HETATM    1  C   UNL     1      -8.606  15.917  65.914  1.00  0.00     0.115 C  
HETATM    2  S   UNL     1      -7.195  16.025  66.981  1.00  0.00    -0.182 SA 
HETATM    3  C   UNL     1      -7.458  14.684  68.174  1.00  0.00    -0.123 C  
HETATM    4  C   UNL     1      -8.638  13.771  68.003  1.00  0.00    -0.177 C  
HETATM    5  CA  UNL     1      -9.758  16.984  65.596  1.00  0.00     0.073 C  
HETATM    6  CA  UNL     1      -9.615  13.905  67.086  1.00  0.00    -0.247 C  
HETATM    7  C   UNL     1     -10.631  15.699  65.615  1.00  0.00    -0.378 C  
HETATM    8  C   UNL     1     -10.690  12.862  66.977  1.00  0.00    -0.257 C  
HETATM    9  N   UNL     1      -9.670  15.023  66.275  1.00  0.00    -0.273 N  
HETATM   10  OXT UNL     1     -10.440  11.676  67.132  1.00  0.00    -0.208 OA 
HETATM   11  O   UNL     1     -11.773  15.428  65.387  1.00  0.00    -0.111 OA 
HETATM   12  O   UNL     1     -11.931  13.273  66.675  1.00  0.00    -0.381 OA 
ENDROOT
BRANCH   4  13
HETATM   13  C   UNL     1      -8.695  12.718  69.113  1.00  0.00     0.715 C  
BRANCH  13  14
HETATM   14  O   UNL     1      -7.621  11.761  69.021  1.00  0.00    -0.089 OA 
BRANCH  14  15
HETATM   15  C   UNL     1      -7.944  10.462  69.176  1.00  0.00    -0.141 C  
HETATM   16  O   UNL     1      -7.257   9.498  68.875  1.00  0.00    -0.070 OA 
HETATM   17  N   UNL     1      -9.196  10.351  69.679  1.00  0.00    -0.401 N  
HETATM   18  H2  UNL     1      -9.805  11.136  69.909  1.00  0.00     0.000 HD 
HETATM   19  H1  UNL     1      -9.440   9.368  69.796  1.00  0.00     0.000 HD 
ENDBRANCH  14  15
ENDBRANCH  13  14
ENDBRANCH   4  13
BRANCH   5  20
HETATM   20  N   UNL     1     -10.440  18.089  66.380  1.00  0.00    -0.367 N  
HETATM   21  H   UNL     1     -10.826  18.808  65.769  1.00  0.00     0.000 HD 
HETATM   22  C   UNL     1     -10.673  18.369  67.740  1.00  0.00    -0.340 C  
HETATM   23  O   UNL     1     -11.355  19.344  68.018  1.00  0.00     0.210 OA 
BRANCH  22  24
HETATM   24  C   UNL     1      -9.962  17.637  68.865  1.00  0.00    -0.324 C  
BRANCH  24  25
HETATM   25  C   UNL     1     -10.703  16.700  69.702  1.00  0.00    -0.286 A  
HETATM   26  O   UNL     1     -11.403  15.649  69.172  1.00  0.00    -0.290 OA 
HETATM   27  C   UNL     1     -11.058  16.835  71.040  1.00  0.00     0.418 A  
HETATM   28  C   UNL     1     -12.268  15.215  70.133  1.00  0.00    -0.352 A  
HETATM   29  C   UNL     1     -12.102  15.923  71.299  1.00  0.00    -0.487 A  
ENDBRANCH  24  25
BRANCH  24  30
HETATM   30  N   UNL     1      -8.769  17.887  69.317  1.00  0.00     0.162 NA 
HETATM   31  H   UNL     1      -8.512  17.473  70.213  1.00  0.00     0.000 HD 
BRANCH  30  32
HETATM   32  O   UNL     1      -7.813  18.673  68.679  1.00  0.00    -0.314 OA 
HETATM   33  C   UNL     1      -6.638  19.077  69.342  1.00  0.00    -0.288 C  
ENDBRANCH  30  32
ENDBRANCH  24  30
ENDBRANCH  22  24
ENDBRANCH   5  20
TORSDOF 8
ENDMDL
MODEL      257
REMARK 921   NORMALIZED FREE ENERGY PREDICTED BY IDOCK:   -3.16 KCAL/MOL
REMARK 922        TOTAL FREE ENERGY PREDICTED BY IDOCK:   -6.03 KCAL/MOL
REMARK 923 INTER-LIGAND FREE ENERGY PREDICTED BY IDOCK:   -5.18 KCAL/MOL
REMARK 924 INTRA-LIGAND FREE ENERGY PREDICTED BY IDOCK:   -0.85 KCAL/MOL
REMARK 927      BINDING AFFINITY PREDICTED BY RF-SCORE:    0.00 PKD
ROOT
HETATM    1  C   UNL     1      -6.882   6.686  71.571  1.00  0.00    -0.066 C  
HETATM    2  S   UNL     1      -6.352   5.452  70.414  1.00  0.00    -0.031 SA 
HETATM    3  C   UNL     1      -6.972   6.064  68.822  1.00  0.00    -0.072 C  
HETATM    4  C   UNL     1      -7.659   7.399  68.767  1.00  0.00    -0.107 C  
HETATM    5  CA  UNL     1      -7.840   6.574  72.849  1.00  0.00    -0.101 C  
HETATM    6  CA  UNL     1      -7.966   8.174  69.825  1.00  0.00    -0.111 C  
HETATM    7  C   UNL     1      -8.314   7.958  72.325  1.00  0.00    -0.131 C  
HETATM    8  C   UNL     1      -8.578   9.529  69.609  1.00  0.00    -0.183 C  
HETATM    9  N   UNL     1      -7.773   7.714  71.114  1.00  0.00    -0.083 N  
HETATM   10  OXT UNL     1      -8.236  10.237  68.674  1.00  0.00    -0.104 OA 
HETATM   11  O   UNL     1      -9.060   8.814  72.698  1.00  0.00    -0.354 OA 
HETATM   12  O   UNL     1      -9.494   9.949  70.495  1.00  0.00    -0.161 OA 
ENDROOT
BRANCH   4  13
HETATM   13  C   UNL     1      -8.122   7.731  67.346  1.00  0.00    -0.123 C  
BRANCH  13  14
HETATM   14  O   UNL     1      -7.221   7.225  66.341  1.00  0.00    -0.075 OA 
BRANCH  14  15
HETATM   15  C   UNL     1      -6.920   8.049  65.319  1.00  0.00    -0.063 C  
HETATM   16  O   UNL     1      -6.444   7.731  64.240  1.00  0.00    -0.055 OA 
HETATM   17  N   UNL     1      -7.172   9.333  65.667  1.00  0.00    -0.089 N  
HETATM   18  H2  UNL     1      -7.537   9.632  66.571  1.00  0.00     0.000 HD 
HETATM   19  H1  UNL     1      -6.943   9.956  64.892  1.00  0.00     0.000 HD 
ENDBRANCH  14  15
ENDBRANCH  13  14
ENDBRANCH   4  13
BRANCH   5  20
HETATM   20  N   UNL     1      -9.038   5.720  73.217  1.00  0.00    -0.133 N  
HETATM   21  H   UNL     1      -8.794   4.987  73.883  1.00  0.00     0.000 HD 
HETATM   22  C   UNL     1     -10.402   5.686  72.870  1.00  0.00    -0.195 C  
HETATM   23  O   UNL     1     -11.122   4.882  73.443  1.00  0.00    -0.295 OA 
BRANCH  22  24
HETATM   24  C   UNL     1     -10.971   6.457  71.692  1.00  0.00    -0.257 C  
BRANCH  24  25
HETATM   25  C   UNL     1     -12.154   7.291  71.874  1.00  0.00    -0.314 A  
HETATM   26  O   UNL     1     -13.421   6.807  71.678  1.00  0.00    -0.276 OA 
HETATM   27  C   UNL     1     -12.224   8.675  71.984  1.00  0.00    -0.439 A  
HETATM   28  C   UNL     1     -14.248   7.883  71.549  1.00  0.00    -0.420 A  
HETATM   29  C   UNL     1     -13.556   9.057  71.717  1.00  0.00    -0.468 A  
ENDBRANCH  24  25
BRANCH  24  30
HETATM   30  N   UNL     1     -10.636   6.320  70.443  1.00  0.00    -0.234 NA 
HETATM   31  H   UNL     1     -10.318   7.153  69.950  1.00  0.00     0.000 HD 
BRANCH  30  32
HETATM   32  O   UNL     1     -10.676   5.128  69.724  1.00  0.00    -0.225 OA 
HETATM   33  C   UNL     1     -10.427   5.101  68.338  1.00  0.00    -0.014 C  
ENDBRANCH  30  32
ENDBRANCH  24  30
ENDBRANCH  22  24
ENDBRANCH   5  20
TORSDOF 8
ENDMDL
MODEL      258
REMARK 921   NORMALIZED FREE ENERGY PREDICTED BY IDOCK:   -3.16 KCAL/MOL
REMARK 922        TOTAL FREE ENERGY PREDICTED BY IDOCK:   -6.03 KCAL/MOL
REMARK 923 INTER-LIGAND FREE ENERGY PREDICTED BY IDOCK:   -4.81 KCAL/MOL
REMARK 924 INTRA-LIGAND FREE ENERGY PREDICTED BY IDOCK:   -1.22 KCAL/MOL
REMARK 927      BINDING AFFINITY PREDICTED BY RF-SCORE:    0.00 PKD
ROOT
HETATM    1  C   UNL     1     -10.661   7.263  69.659  1.00  0.00    -0.236 C  
HETATM    2  S   UNL     1     -12.036   6.790  70.674  1.00  0.00    -0.287 SA 
HETATM    3  C   UNL     1     -11.340   6.760  72.349  1.00  0.00    -0.268 C  
HETATM    4  C   UNL     1      -9.915   7.187  72.559  1.00  0.00    -0.196 C  
HETATM    5  CA  UNL     1      -9.946   6.498  68.448  1.00  0.00    -0.141 C  
HETATM    6  CA  UNL     1      -9.034   7.504  71.591  1.00  0.00    -0.123 C  
HETATM    7  C   UNL     1      -8.682   7.111  69.113  1.00  0.00    -0.133 C  
HETATM    8  C   UNL     1      -7.663   7.998  71.957  1.00  0.00    -0.103 C  
HETATM    9  N   UNL     1      -9.359   7.329  70.259  1.00  0.00    -0.159 N  
HETATM   10  OXT UNL     1      -7.490   8.732  72.918  1.00  0.00    -0.357 OA 
HETATM   11  O   UNL     1      -7.515   7.164  68.864  1.00  0.00    -0.093 OA 
HETATM   12  O   UNL     1      -6.638   7.630  71.175  1.00  0.00    -0.038 OA 
ENDROOT
BRANCH   4  13
HETATM   13  C   UNL     1      -9.510   7.078  74.032  1.00  0.00    -0.253 C  
BRANCH  13  14
HETATM   14  O   UNL     1      -9.607   5.729  74.531  1.00  0.00    -0.155 OA 
BRANCH  14  15
HETATM   15  C   UNL     1      -8.688   4.847  74.092  1.00  0.00    -0.114 C  
HETATM   16  O   UNL     1      -8.901   3.821  73.466  1.00  0.00    -0.092 OA 
HETATM   17  N   UNL     1      -7.451   5.228  74.490  1.00  0.00    -0.085 N  
HETATM   18  H2  UNL     1      -7.245   6.061  75.041  1.00  0.00     0.000 HD 
HETATM   19  H1  UNL     1      -6.755   4.560  74.157  1.00  0.00     0.000 HD 
ENDBRANCH  14  15
ENDBRANCH  13  14
ENDBRANCH   4  13
BRANCH   5  20
HETATM   20  N   UNL     1      -9.696   5.043  68.100  1.00  0.00    -0.142 N  
HETATM   21  H   UNL     1      -9.550   4.471  68.932  1.00  0.00     0.000 HD 
HETATM   22  C   UNL     1      -9.614   4.284  66.917  1.00  0.00    -0.203 C  
HETATM   23  O   UNL     1      -9.475   3.075  67.017  1.00  0.00    -0.163 OA 
BRANCH  22  24
HETATM   24  C   UNL     1      -9.494   4.917  65.541  1.00  0.00    -0.145 C  
BRANCH  24  25
HETATM   25  C   UNL     1      -9.752   4.115  64.350  1.00  0.00    -0.155 A  
HETATM   26  O   UNL     1     -10.975   3.546  64.108  1.00  0.00    -0.252 OA 
HETATM   27  C   UNL     1      -8.831   3.574  63.460  1.00  0.00    -0.095 A  
HETATM   28  C   UNL     1     -10.790   2.580  63.163  1.00  0.00    -0.238 A  
HETATM   29  C   UNL     1      -9.483   2.550  62.741  1.00  0.00    -0.089 A  
ENDBRANCH  24  25
BRANCH  24  30
HETATM   30  N   UNL     1      -8.989   6.082  65.267  1.00  0.00    -0.367 NA 
HETATM   31  H   UNL     1      -9.555   6.718  64.706  1.00  0.00     0.000 HD 
BRANCH  30  32
HETATM   32  O   UNL     1      -7.737   6.535  65.676  1.00  0.00    -0.085 OA 
HETATM   33  C   UNL     1      -6.620   6.468  64.821  1.00  0.00    -0.038 C  
ENDBRANCH  30  32
ENDBRANCH  24  30
ENDBRANCH  22  24
ENDBRANCH   5  20
TORSDOF 8
ENDMDL
MODEL      259
REMARK 921   NORMALIZED FREE ENERGY PREDICTED BY IDOCK:   -3.14 KCAL/MOL
REMARK 922        TOTAL FREE ENERGY PREDICTED BY IDOCK:   -6.01 KCAL/MOL
REMARK 923 INTER-LIGAND FREE ENERGY PREDICTED BY IDOCK:   -5.46 KCAL/MOL
REMARK 924 INTRA-LIGAND FREE ENERGY PREDICTED BY IDOCK:   -0.55 KCAL/MOL
REMARK 927      BINDING AFFINITY PREDICTED BY RF-SCORE:    0.00 PKD
ROOT
HETATM    1  C   UNL     1     -10.533   9.368  68.399  1.00  0.00    -0.218 C  
HETATM    2  S   UNL     1     -11.510  10.553  69.285  1.00  0.00    -0.237 SA 
HETATM    3  C   UNL     1     -11.485  12.015  68.211  1.00  0.00    -0.303 C  
HETATM    4  C   UNL     1     -10.802  11.933  66.876  1.00  0.00    -0.305 C  
HETATM    5  CA  UNL     1      -9.180   8.616  68.808  1.00  0.00    -0.142 C  
HETATM    6  CA  UNL     1     -10.092  10.887  66.414  1.00  0.00    -0.231 C  
HETATM    7  C   UNL     1      -8.864   8.859  67.306  1.00  0.00    -0.128 C  
HETATM    8  C   UNL     1      -9.536  10.915  65.019  1.00  0.00    -0.251 C  
HETATM    9  N   UNL     1      -9.822   9.805  67.231  1.00  0.00    -0.172 N  
HETATM   10  OXT UNL     1     -10.162  11.417  64.098  1.00  0.00    -0.267 OA 
HETATM   11  O   UNL     1      -7.992   8.555  66.548  1.00  0.00    -0.097 OA 
HETATM   12  O   UNL     1      -8.341  10.342  64.812  1.00  0.00    -0.166 OA 
ENDROOT
BRANCH   4  13
HETATM   13  C   UNL     1     -10.876  13.268  66.128  1.00  0.00    -0.280 C  
BRANCH  13  14
HETATM   14  O   UNL     1     -12.233  13.708  65.921  1.00  0.00    -0.408 OA 
BRANCH  14  15
HETATM   15  C   UNL     1     -12.690  13.707  64.653  1.00  0.00    -0.149 C  
HETATM   16  O   UNL     1     -12.637  14.630  63.856  1.00  0.00    -0.834 OA 
HETATM   17  N   UNL     1     -13.285  12.522  64.375  1.00  0.00    -0.597 N  
HETATM   18  H2  UNL     1     -13.373  11.745  65.030  1.00  0.00     0.000 HD 
HETATM   19  H1  UNL     1     -13.630  12.522  63.415  1.00  0.00     0.000 HD 
ENDBRANCH  14  15
ENDBRANCH  13  14
ENDBRANCH   4  13
BRANCH   5  20
HETATM   20  N   UNL     1      -7.974   8.969  69.657  1.00  0.00    -0.089 N  
HETATM   21  H   UNL     1      -7.913   9.971  69.835  1.00  0.00     0.000 HD 
HETATM   22  C   UNL     1      -6.917   8.260  70.260  1.00  0.00    -0.036 C  
HETATM   23  O   UNL     1      -6.137   8.880  70.966  1.00  0.00    -0.038 OA 
BRANCH  22  24
HETATM   24  C   UNL     1      -6.594   6.816  69.916  1.00  0.00    -0.048 C  
BRANCH  24  25
HETATM   25  C   UNL     1      -7.264   6.170  68.794  1.00  0.00    -0.084 A  
HETATM   26  O   UNL     1      -8.438   5.481  68.949  1.00  0.00    -0.101 OA 
HETATM   27  C   UNL     1      -6.756   5.896  67.529  1.00  0.00    -0.058 A  
HETATM   28  C   UNL     1      -8.595   4.698  67.843  1.00  0.00    -0.103 A  
HETATM   29  C   UNL     1      -7.578   4.908  66.945  1.00  0.00    -0.088 A  
ENDBRANCH  24  25
BRANCH  24  30
HETATM   30  N   UNL     1      -5.902   5.986  70.640  1.00  0.00    -0.021 NA 
HETATM   31  H   UNL     1      -5.895   6.138  71.648  1.00  0.00     0.000 HD 
BRANCH  30  32
HETATM   32  O   UNL     1      -5.168   4.908  70.151  1.00  0.00     0.000 OA 
HETATM   33  C   UNL     1      -5.387   3.600  70.626  1.00  0.00    -0.008 C  
ENDBRANCH  30  32
ENDBRANCH  24  30
ENDBRANCH  22  24
ENDBRANCH   5  20
TORSDOF 8
ENDMDL
MODEL      260
REMARK 921   NORMALIZED FREE ENERGY PREDICTED BY IDOCK:   -3.12 KCAL/MOL
REMARK 922        TOTAL FREE ENERGY PREDICTED BY IDOCK:   -5.97 KCAL/MOL
REMARK 923 INTER-LIGAND FREE ENERGY PREDICTED BY IDOCK:   -6.55 KCAL/MOL
REMARK 924 INTRA-LIGAND FREE ENERGY PREDICTED BY IDOCK:    0.57 KCAL/MOL
REMARK 927      BINDING AFFINITY PREDICTED BY RF-SCORE:    0.00 PKD
ROOT
HETATM    1  C   UNL     1     -11.774  12.762  65.020  1.00  0.00    -0.354 C  
HETATM    2  S   UNL     1     -11.257  12.117  63.452  1.00  0.00    -0.368 SA 
HETATM    3  C   UNL     1     -10.005  10.880  63.892  1.00  0.00    -0.343 C  
HETATM    4  C   UNL     1      -9.735  10.592  65.342  1.00  0.00    -0.315 C  
HETATM    5  CA  UNL     1     -11.713  14.251  65.607  1.00  0.00    -0.358 C  
HETATM    6  CA  UNL     1     -10.268  11.248  66.390  1.00  0.00    -0.230 C  
HETATM    7  C   UNL     1     -11.357  13.476  66.906  1.00  0.00    -0.326 C  
HETATM    8  C   UNL     1      -9.971  10.791  67.790  1.00  0.00    -0.171 C  
HETATM    9  N   UNL     1     -11.044  12.374  66.194  1.00  0.00    -0.289 N  
HETATM   10  OXT UNL     1      -9.875   9.604  68.062  1.00  0.00    -0.144 OA 
HETATM   11  O   UNL     1     -11.173  13.753  68.054  1.00  0.00    -0.248 OA 
HETATM   12  O   UNL     1      -9.843  11.730  68.739  1.00  0.00    -0.178 OA 
ENDROOT
BRANCH   4  13
HETATM   13  C   UNL     1      -8.640   9.534  65.507  1.00  0.00    -0.146 C  
BRANCH  13  14
HETATM   14  O   UNL     1      -9.144   8.192  65.361  1.00  0.00    -0.052 OA 
BRANCH  14  15
HETATM   15  C   UNL     1      -8.495   7.218  66.029  1.00  0.00    -0.145 C  
HETATM   16  O   UNL     1      -8.553   6.018  65.810  1.00  0.00    -0.147 OA 
HETATM   17  N   UNL     1      -7.780   7.751  67.048  1.00  0.00    -0.102 N  
HETATM   18  H2  UNL     1      -7.739   8.745  67.276  1.00  0.00     0.000 HD 
HETATM   19  H1  UNL     1      -7.289   7.014  67.554  1.00  0.00     0.000 HD 
ENDBRANCH  14  15
ENDBRANCH  13  14
ENDBRANCH   4  13
BRANCH   5  20
HETATM   20  N   UNL     1     -10.776  15.432  65.434  1.00  0.00    -0.373 N  
HETATM   21  H   UNL     1     -10.679  15.702  64.455  1.00  0.00     0.000 HD 
HETATM   22  C   UNL     1     -10.009  16.249  66.286  1.00  0.00    -0.317 C  
HETATM   23  O   UNL     1      -9.414  17.195  65.794  1.00  0.00    -0.525 OA 
BRANCH  22  24
HETATM   24  C   UNL     1      -9.733  15.894  67.737  1.00  0.00    -0.220 C  
BRANCH  24  25
HETATM   25  C   UNL     1      -8.528  15.149  68.085  1.00  0.00    -0.152 A  
HETATM   26  O   UNL     1      -7.815  14.445  67.151  1.00  0.00    -0.186 OA 
HETATM   27  C   UNL     1      -8.070  14.793  69.348  1.00  0.00    -0.039 A  
HETATM   28  C   UNL     1      -7.009  13.578  67.828  1.00  0.00    -0.159 A  
HETATM   29  C   UNL     1      -7.140  13.744  69.185  1.00  0.00    -0.053 A  
ENDBRANCH  24  25
BRANCH  24  30
HETATM   30  N   UNL     1     -10.560  16.013  68.733  1.00  0.00    -0.247 NA 
HETATM   31  H   UNL     1     -11.026  15.166  69.057  1.00  0.00     0.000 HD 
BRANCH  30  32
HETATM   32  O   UNL     1     -10.863  17.201  69.393  1.00  0.00    -0.215 OA 
HETATM   33  C   UNL     1     -10.118  18.374  69.166  1.00  0.00    -0.143 C  
ENDBRANCH  30  32
ENDBRANCH  24  30
ENDBRANCH  22  24
ENDBRANCH   5  20
TORSDOF 8
ENDMDL
MODEL      261
REMARK 921   NORMALIZED FREE ENERGY PREDICTED BY IDOCK:   -3.10 KCAL/MOL
REMARK 922        TOTAL FREE ENERGY PREDICTED BY IDOCK:   -5.94 KCAL/MOL
REMARK 923 INTER-LIGAND FREE ENERGY PREDICTED BY IDOCK:   -4.38 KCAL/MOL
REMARK 924 INTRA-LIGAND FREE ENERGY PREDICTED BY IDOCK:   -1.57 KCAL/MOL
REMARK 927      BINDING AFFINITY PREDICTED BY RF-SCORE:    0.00 PKD
ROOT
HETATM    1  C   UNL     1      -7.513   5.148  69.055  1.00  0.00    -0.069 C  
HETATM    2  S   UNL     1      -7.180   6.727  69.789  1.00  0.00    -0.079 SA 
HETATM    3  C   UNL     1      -7.666   6.503  71.522  1.00  0.00    -0.099 C  
HETATM    4  C   UNL     1      -8.117   5.148  71.988  1.00  0.00    -0.113 C  
HETATM    5  CA  UNL     1      -8.495   4.740  67.857  1.00  0.00    -0.103 C  
HETATM    6  CA  UNL     1      -8.305   4.066  71.209  1.00  0.00    -0.080 C  
HETATM    7  C   UNL     1      -8.721   3.506  68.774  1.00  0.00    -0.099 C  
HETATM    8  C   UNL     1      -8.678   2.750  71.829  1.00  0.00    -0.073 C  
HETATM    9  N   UNL     1      -8.212   4.166  69.833  1.00  0.00    -0.057 N  
HETATM   10  OXT UNL     1      -8.208   2.400  72.901  1.00  0.00    -0.057 OA 
HETATM   11  O   UNL     1      -9.319   2.474  68.699  1.00  0.00    -0.169 OA 
HETATM   12  O   UNL     1      -9.523   1.958  71.152  1.00  0.00    -0.116 OA 
ENDROOT
BRANCH   4  13
HETATM   13  C   UNL     1      -8.497   5.165  73.472  1.00  0.00    -0.112 C  
BRANCH  13  14
HETATM   14  O   UNL     1      -9.732   5.866  73.716  1.00  0.00    -0.151 OA 
BRANCH  14  15
HETATM   15  C   UNL     1     -10.874   5.172  73.540  1.00  0.00    -0.303 C  
HETATM   16  O   UNL     1     -11.095   4.026  73.900  1.00  0.00    -0.229 OA 
HETATM   17  N   UNL     1     -11.765   5.914  72.841  1.00  0.00    -0.520 N  
HETATM   18  H2  UNL     1     -11.597   6.860  72.499  1.00  0.00     0.000 HD 
HETATM   19  H1  UNL     1     -12.629   5.388  72.708  1.00  0.00     0.000 HD 
ENDBRANCH  14  15
ENDBRANCH  13  14
ENDBRANCH   4  13
BRANCH   5  20
HETATM   20  N   UNL     1      -9.825   5.256  67.341  1.00  0.00    -0.149 N  
HETATM   21  H   UNL     1     -10.507   4.506  67.228  1.00  0.00     0.000 HD 
HETATM   22  C   UNL     1     -10.353   6.509  66.979  1.00  0.00    -0.253 C  
HETATM   23  O   UNL     1     -11.533   6.570  66.672  1.00  0.00    -0.046 OA 
BRANCH  22  24
HETATM   24  C   UNL     1      -9.484   7.738  66.765  1.00  0.00    -0.197 C  
BRANCH  24  25
HETATM   25  C   UNL     1      -9.561   8.852  67.704  1.00  0.00    -0.148 A  
HETATM   26  O   UNL     1     -10.711   9.147  68.388  1.00  0.00    -0.194 OA 
HETATM   27  C   UNL     1      -8.672   9.908  67.861  1.00  0.00    -0.129 A  
HETATM   28  C   UNL     1     -10.583  10.419  68.862  1.00  0.00    -0.216 A  
HETATM   29  C   UNL     1      -9.348  10.936  68.552  1.00  0.00    -0.181 A  
ENDBRANCH  24  25
BRANCH  24  30
HETATM   30  N   UNL     1      -8.787   8.016  65.705  1.00  0.00    -0.304 NA 
HETATM   31  H   UNL     1      -9.101   8.797  65.129  1.00  0.00     0.000 HD 
BRANCH  30  32
HETATM   32  O   UNL     1      -7.645   7.336  65.289  1.00  0.00    -0.089 OA 
HETATM   33  C   UNL     1      -6.379   7.630  65.833  1.00  0.00    -0.042 C  
ENDBRANCH  30  32
ENDBRANCH  24  30
ENDBRANCH  22  24
ENDBRANCH   5  20
TORSDOF 8
ENDMDL
MODEL      262
REMARK 921   NORMALIZED FREE ENERGY PREDICTED BY IDOCK:   -3.07 KCAL/MOL
REMARK 922        TOTAL FREE ENERGY PREDICTED BY IDOCK:   -5.90 KCAL/MOL
REMARK 923 INTER-LIGAND FREE ENERGY PREDICTED BY IDOCK:   -5.20 KCAL/MOL
REMARK 924 INTRA-LIGAND FREE ENERGY PREDICTED BY IDOCK:   -0.70 KCAL/MOL
REMARK 927      BINDING AFFINITY PREDICTED BY RF-SCORE:    0.00 PKD
ROOT
HETATM    1  C   UNL     1      -8.551  15.163  66.443  1.00  0.00    -0.104 C  
HETATM    2  S   UNL     1      -7.976  15.149  68.120  1.00  0.00    -0.132 SA 
HETATM    3  C   UNL     1      -8.908  13.790  68.879  1.00  0.00     0.148 C  
HETATM    4  C   UNL     1      -9.820  12.958  68.023  1.00  0.00    -0.223 C  
HETATM    5  CA  UNL     1      -9.290  16.310  65.603  1.00  0.00    -0.010 C  
HETATM    6  CA  UNL     1     -10.110  13.182  66.728  1.00  0.00    -0.253 C  
HETATM    7  C   UNL     1     -10.067  15.082  65.053  1.00  0.00    -0.253 C  
HETATM    8  C   UNL     1     -10.975  12.212  65.974  1.00  0.00    -0.293 C  
HETATM    9  N   UNL     1      -9.664  14.327  66.094  1.00  0.00    -0.308 N  
HETATM   10  OXT UNL     1     -10.895  11.008  66.169  1.00  0.00    -0.234 OA 
HETATM   11  O   UNL     1     -10.894  14.890  64.212  1.00  0.00    -0.081 OA 
HETATM   12  O   UNL     1     -11.819  12.710  65.058  1.00  0.00    -0.353 OA 
ENDROOT
BRANCH   4  13
HETATM   13  C   UNL     1     -10.525  11.876  68.846  1.00  0.00    -0.136 C  
BRANCH  13  14
HETATM   14  O   UNL     1      -9.838  10.610  68.796  1.00  0.00    -0.175 OA 
BRANCH  14  15
HETATM   15  C   UNL     1      -9.276  10.174  69.941  1.00  0.00    -0.080 C  
HETATM   16  O   UNL     1      -9.833   9.573  70.845  1.00  0.00    -0.275 OA 
HETATM   17  N   UNL     1      -7.974  10.545  69.990  1.00  0.00    -0.322 N  
HETATM   18  H2  UNL     1      -7.490  11.076  69.266  1.00  0.00     0.000 HD 
HETATM   19  H1  UNL     1      -7.549  10.215  70.856  1.00  0.00     0.000 HD 
ENDBRANCH  14  15
ENDBRANCH  13  14
ENDBRANCH   4  13
BRANCH   5  20
HETATM   20  N   UNL     1     -10.256  17.429  65.940  1.00  0.00    -0.300 N  
HETATM   21  H   UNL     1     -11.124  17.357  65.409  1.00  0.00     0.000 HD 
HETATM   22  C   UNL     1     -10.255  18.543  66.801  1.00  0.00    -0.393 C  
HETATM   23  O   UNL     1     -11.274  19.211  66.879  1.00  0.00    -0.179 OA 
BRANCH  22  24
HETATM   24  C   UNL     1      -8.996  19.058  67.478  1.00  0.00    -0.292 C  
BRANCH  24  25
HETATM   25  C   UNL     1      -7.793  19.293  66.689  1.00  0.00    -0.271 A  
HETATM   26  O   UNL     1      -7.674  20.368  65.848  1.00  0.00    -0.184 OA 
HETATM   27  C   UNL     1      -6.748  18.413  66.430  1.00  0.00    -0.246 A  
HETATM   28  C   UNL     1      -6.640  20.102  64.998  1.00  0.00    -0.285 A  
HETATM   29  C   UNL     1      -6.046  18.904  65.309  1.00  0.00    -0.305 A  
ENDBRANCH  24  25
BRANCH  24  30
HETATM   30  N   UNL     1      -8.788  19.145  68.758  1.00  0.00    -0.355 NA 
HETATM   31  H   UNL     1      -7.836  18.997  69.089  1.00  0.00     0.000 HD 
BRANCH  30  32
HETATM   32  O   UNL     1      -9.760  19.424  69.717  1.00  0.00    -0.033 OA 
HETATM   33  C   UNL     1     -10.350  20.699  69.810  1.00  0.00     0.726 C  
ENDBRANCH  30  32
ENDBRANCH  24  30
ENDBRANCH  22  24
ENDBRANCH   5  20
TORSDOF 8
ENDMDL
MODEL      263
REMARK 921   NORMALIZED FREE ENERGY PREDICTED BY IDOCK:   -3.00 KCAL/MOL
REMARK 922        TOTAL FREE ENERGY PREDICTED BY IDOCK:   -5.80 KCAL/MOL
REMARK 923 INTER-LIGAND FREE ENERGY PREDICTED BY IDOCK:   -4.26 KCAL/MOL
REMARK 924 INTRA-LIGAND FREE ENERGY PREDICTED BY IDOCK:   -1.54 KCAL/MOL
REMARK 927      BINDING AFFINITY PREDICTED BY RF-SCORE:    0.00 PKD
ROOT
HETATM    1  C   UNL     1      -6.028   7.410  69.324  1.00  0.00    -0.030 C  
HETATM    2  S   UNL     1      -6.068   6.562  67.768  1.00  0.00    -0.032 SA 
HETATM    3  C   UNL     1      -7.525   7.258  66.940  1.00  0.00    -0.097 C  
HETATM    4  C   UNL     1      -8.288   8.367  67.607  1.00  0.00    -0.130 C  
HETATM    5  CA  UNL     1      -6.112   6.847  70.821  1.00  0.00    -0.032 C  
HETATM    6  CA  UNL     1      -8.061   8.850  68.843  1.00  0.00    -0.112 C  
HETATM    7  C   UNL     1      -6.960   8.135  71.010  1.00  0.00    -0.047 C  
HETATM    8  C   UNL     1      -8.851  10.024  69.346  1.00  0.00    -0.190 C  
HETATM    9  N   UNL     1      -7.142   8.243  69.678  1.00  0.00    -0.055 N  
HETATM   10  OXT UNL     1      -9.164  10.942  68.604  1.00  0.00    -0.173 OA 
HETATM   11  O   UNL     1      -7.480   8.700  71.926  1.00  0.00    -0.163 OA 
HETATM   12  O   UNL     1      -9.178  10.045  70.647  1.00  0.00     0.053 OA 
ENDROOT
BRANCH   4  13
HETATM   13  C   UNL     1      -9.487   8.807  66.762  1.00  0.00    -0.191 C  
BRANCH  13  14
HETATM   14  O   UNL     1      -9.092   9.363  65.493  1.00  0.00    -0.187 OA 
BRANCH  14  15
HETATM   15  C   UNL     1      -8.740  10.664  65.479  1.00  0.00    -0.188 C  
HETATM   16  O   UNL     1      -9.485  11.621  65.337  1.00  0.00    -0.224 OA 
HETATM   17  N   UNL     1      -7.396  10.783  65.594  1.00  0.00    -0.327 N  
HETATM   18  H2  UNL     1      -6.746  10.001  65.680  1.00  0.00     0.000 HD 
HETATM   19  H1  UNL     1      -7.130  11.767  65.583  1.00  0.00     0.000 HD 
ENDBRANCH  14  15
ENDBRANCH  13  14
ENDBRANCH   4  13
BRANCH   5  20
HETATM   20  N   UNL     1      -6.800   5.670  71.485  1.00  0.00    -0.064 N  
HETATM   21  H   UNL     1      -6.134   4.960  71.789  1.00  0.00     0.000 HD 
HETATM   22  C   UNL     1      -8.128   5.312  71.786  1.00  0.00    -0.117 C  
HETATM   23  O   UNL     1      -8.318   4.288  72.424  1.00  0.00    -0.100 OA 
BRANCH  22  24
HETATM   24  C   UNL     1      -9.329   6.028  71.191  1.00  0.00    -0.160 C  
BRANCH  24  25
HETATM   25  C   UNL     1      -9.854   5.609  69.896  1.00  0.00    -0.189 A  
HETATM   26  O   UNL     1      -9.216   4.678  69.120  1.00  0.00    -0.109 OA 
HETATM   27  C   UNL     1     -10.843   6.217  69.131  1.00  0.00    -0.418 A  
HETATM   28  C   UNL     1      -9.721   4.790  67.858  1.00  0.00    -0.149 A  
HETATM   29  C   UNL     1     -10.718   5.734  67.811  1.00  0.00    -0.306 A  
ENDBRANCH  24  25
BRANCH  24  30
HETATM   30  N   UNL     1      -9.858   7.135  71.619  1.00  0.00    -0.163 NA 
HETATM   31  H   UNL     1      -9.741   7.965  71.038  1.00  0.00     0.000 HD 
BRANCH  30  32
HETATM   32  O   UNL     1     -10.573   7.282  72.805  1.00  0.00    -0.232 OA 
HETATM   33  C   UNL     1     -11.712   8.107  72.875  1.00  0.00    -0.128 C  
ENDBRANCH  30  32
ENDBRANCH  24  30
ENDBRANCH  22  24
ENDBRANCH   5  20
TORSDOF 8
ENDMDL
MODEL      264
REMARK 921   NORMALIZED FREE ENERGY PREDICTED BY IDOCK:   -2.98 KCAL/MOL
REMARK 922        TOTAL FREE ENERGY PREDICTED BY IDOCK:   -5.77 KCAL/MOL
REMARK 923 INTER-LIGAND FREE ENERGY PREDICTED BY IDOCK:   -3.79 KCAL/MOL
REMARK 924 INTRA-LIGAND FREE ENERGY PREDICTED BY IDOCK:   -1.98 KCAL/MOL
REMARK 927      BINDING AFFINITY PREDICTED BY RF-SCORE:    0.00 PKD
ROOT
HETATM    1  C   UNL     1      -6.846   7.454  66.750  1.00  0.00    -0.066 C  
HETATM    2  S   UNL     1      -6.891   9.204  67.030  1.00  0.00    -0.081 SA 
HETATM    3  C   UNL     1      -6.642   9.356  68.821  1.00  0.00    -0.052 C  
HETATM    4  C   UNL     1      -6.377   8.120  69.632  1.00  0.00    -0.033 C  
HETATM    5  CA  UNL     1      -7.952   6.466  66.145  1.00  0.00    -0.112 C  
HETATM    6  CA  UNL     1      -6.406   6.853  69.175  1.00  0.00    -0.028 C  
HETATM    7  C   UNL     1      -7.384   5.531  67.249  1.00  0.00    -0.080 C  
HETATM    8  C   UNL     1      -6.034   5.719  70.087  1.00  0.00    -0.025 C  
HETATM    9  N   UNL     1      -6.827   6.579  67.887  1.00  0.00    -0.071 N  
HETATM   10  OXT UNL     1      -5.135   5.833  70.906  1.00  0.00    -0.008 OA 
HETATM   11  O   UNL     1      -7.547   4.396  67.587  1.00  0.00    -0.076 OA 
HETATM   12  O   UNL     1      -6.703   4.564  69.951  1.00  0.00    -0.032 OA 
ENDROOT
BRANCH   4  13
HETATM   13  C   UNL     1      -6.210   8.452  71.118  1.00  0.00    -0.038 C  
BRANCH  13  14
HETATM   14  O   UNL     1      -7.323   7.998  71.912  1.00  0.00    -0.069 OA 
BRANCH  14  15
HETATM   15  C   UNL     1      -7.131   7.914  73.243  1.00  0.00    -0.098 C  
HETATM   16  O   UNL     1      -7.311   8.800  74.065  1.00  0.00    -0.392 OA 
HETATM   17  N   UNL     1      -6.645   6.693  73.566  1.00  0.00    -0.065 N  
HETATM   18  H2  UNL     1      -6.453   5.945  72.900  1.00  0.00     0.000 HD 
HETATM   19  H1  UNL     1      -6.499   6.630  74.574  1.00  0.00     0.000 HD 
ENDBRANCH  14  15
ENDBRANCH  13  14
ENDBRANCH   4  13
BRANCH   5  20
HETATM   20  N   UNL     1      -9.468   6.421  66.156  1.00  0.00    -0.343 N  
HETATM   21  H   UNL     1      -9.857   6.434  65.213  1.00  0.00     0.000 HD 
HETATM   22  C   UNL     1     -10.472   6.366  67.140  1.00  0.00    -0.277 C  
HETATM   23  O   UNL     1     -11.632   6.255  66.774  1.00  0.00     0.081 OA 
BRANCH  22  24
HETATM   24  C   UNL     1     -10.199   6.634  68.611  1.00  0.00    -0.171 C  
BRANCH  24  25
HETATM   25  C   UNL     1     -10.394   7.973  69.153  1.00  0.00    -0.220 A  
HETATM   26  O   UNL     1     -10.173   9.099  68.404  1.00  0.00    -0.187 OA 
HETATM   27  C   UNL     1     -10.545   8.351  70.482  1.00  0.00    -0.236 A  
HETATM   28  C   UNL     1     -10.067  10.146  69.272  1.00  0.00    -0.222 A  
HETATM   29  C   UNL     1     -10.276   9.734  70.565  1.00  0.00    -0.321 A  
ENDBRANCH  24  25
BRANCH  24  30
HETATM   30  N   UNL     1      -9.609   5.831  69.446  1.00  0.00    -0.136 NA 
HETATM   31  H   UNL     1      -8.593   5.888  69.511  1.00  0.00     0.000 HD 
BRANCH  30  32
HETATM   32  O   UNL     1     -10.249   4.898  70.258  1.00  0.00    -0.252 OA 
HETATM   33  C   UNL     1      -9.876   4.722  71.604  1.00  0.00    -0.184 C  
ENDBRANCH  30  32
ENDBRANCH  24  30
ENDBRANCH  22  24
ENDBRANCH   5  20
TORSDOF 8
ENDMDL
MODEL      265
REMARK 921   NORMALIZED FREE ENERGY PREDICTED BY IDOCK:   -2.92 KCAL/MOL
REMARK 922        TOTAL FREE ENERGY PREDICTED BY IDOCK:   -5.68 KCAL/MOL
REMARK 923 INTER-LIGAND FREE ENERGY PREDICTED BY IDOCK:   -4.68 KCAL/MOL
REMARK 924 INTRA-LIGAND FREE ENERGY PREDICTED BY IDOCK:   -0.99 KCAL/MOL
REMARK 927      BINDING AFFINITY PREDICTED BY RF-SCORE:    0.00 PKD
ROOT
HETATM    1  C   UNL     1      -9.530   9.091  69.580  1.00  0.00    -0.164 C  
HETATM    2  S   UNL     1     -10.535   8.033  68.574  1.00  0.00    -0.118 SA 
HETATM    3  C   UNL     1     -10.006   6.364  69.049  1.00  0.00    -0.149 C  
HETATM    4  C   UNL     1      -8.997   6.200  70.150  1.00  0.00    -0.149 C  
HETATM    5  CA  UNL     1      -8.465  10.216  69.171  1.00  0.00    -0.156 C  
HETATM    6  CA  UNL     1      -8.343   7.195  70.778  1.00  0.00    -0.128 C  
HETATM    7  C   UNL     1      -7.713   9.618  70.392  1.00  0.00    -0.160 C  
HETATM    8  C   UNL     1      -7.423   6.883  71.924  1.00  0.00    -0.088 C  
HETATM    9  N   UNL     1      -8.467   8.502  70.344  1.00  0.00    -0.129 N  
HETATM   10  OXT UNL     1      -7.690   6.003  72.728  1.00  0.00    -0.101 OA 
HETATM   11  O   UNL     1      -6.717   9.873  71.001  1.00  0.00    -0.300 OA 
HETATM   12  O   UNL     1      -6.311   7.623  72.050  1.00  0.00    -0.042 OA 
ENDROOT
BRANCH   4  13
HETATM   13  C   UNL     1      -8.670   4.723  70.393  1.00  0.00    -0.098 C  
BRANCH  13  14
HETATM   14  O   UNL     1      -8.396   4.012  69.170  1.00  0.00    -0.071 OA 
BRANCH  14  15
HETATM   15  C   UNL     1      -8.294   2.671  69.252  1.00  0.00    -0.059 C  
HETATM   16  O   UNL     1      -7.600   2.037  70.031  1.00  0.00    -0.042 OA 
HETATM   17  N   UNL     1      -9.048   2.088  68.290  1.00  0.00    -0.145 N  
HETATM   18  H2  UNL     1      -9.611   2.591  67.604  1.00  0.00     0.000 HD 
HETATM   19  H1  UNL     1      -8.971   1.073  68.352  1.00  0.00     0.000 HD 
ENDBRANCH  14  15
ENDBRANCH  13  14
ENDBRANCH   4  13
BRANCH   5  20
HETATM   20  N   UNL     1      -7.505  10.410  68.013  1.00  0.00    -0.089 N  
HETATM   21  H   UNL     1      -6.532  10.408  68.319  1.00  0.00     0.000 HD 
HETATM   22  C   UNL     1      -7.620  10.593  66.622  1.00  0.00    -0.129 C  
HETATM   23  O   UNL     1      -6.594  10.636  65.960  1.00  0.00    -0.118 OA 
BRANCH  22  24
HETATM   24  C   UNL     1      -8.936  10.933  65.942  1.00  0.00    -0.192 C  
BRANCH  24  25
HETATM   25  C   UNL     1      -9.856  11.871  66.573  1.00  0.00    -0.206 A  
HETATM   26  O   UNL     1     -11.033  11.463  67.144  1.00  0.00    -0.255 OA 
HETATM   27  C   UNL     1      -9.873  13.258  66.476  1.00  0.00    -0.281 A  
HETATM   28  C   UNL     1     -11.817  12.569  67.289  1.00  0.00    -0.311 A  
HETATM   29  C   UNL     1     -11.151  13.699  66.880  1.00  0.00    -0.314 A  
ENDBRANCH  24  25
BRANCH  24  30
HETATM   30  N   UNL     1      -9.454  10.326  64.916  1.00  0.00    -0.253 NA 
HETATM   31  H   UNL     1      -9.885   9.417  65.078  1.00  0.00     0.000 HD 
BRANCH  30  32
HETATM   32  O   UNL     1      -9.469  10.816  63.612  1.00  0.00    -0.236 OA 
HETATM   33  C   UNL     1      -8.442  10.502  62.701  1.00  0.00    -0.198 C  
ENDBRANCH  30  32
ENDBRANCH  24  30
ENDBRANCH  22  24
ENDBRANCH   5  20
TORSDOF 8
ENDMDL
MODEL      266
REMARK 921   NORMALIZED FREE ENERGY PREDICTED BY IDOCK:   -2.92 KCAL/MOL
REMARK 922        TOTAL FREE ENERGY PREDICTED BY IDOCK:   -5.68 KCAL/MOL
REMARK 923 INTER-LIGAND FREE ENERGY PREDICTED BY IDOCK:   -4.39 KCAL/MOL
REMARK 924 INTRA-LIGAND FREE ENERGY PREDICTED BY IDOCK:   -1.29 KCAL/MOL
REMARK 927      BINDING AFFINITY PREDICTED BY RF-SCORE:    0.00 PKD
ROOT
HETATM    1  C   UNL     1      -7.468   4.400  69.018  1.00  0.00    -0.056 C  
HETATM    2  S   UNL     1      -7.173   6.144  69.121  1.00  0.00    -0.085 SA 
HETATM    3  C   UNL     1      -8.021   6.632  70.649  1.00  0.00    -0.111 C  
HETATM    4  C   UNL     1      -8.663   5.574  71.501  1.00  0.00    -0.138 C  
HETATM    5  CA  UNL     1      -8.210   3.531  67.896  1.00  0.00    -0.083 C  
HETATM    6  CA  UNL     1      -8.769   4.268  71.193  1.00  0.00    -0.101 C  
HETATM    7  C   UNL     1      -8.716   2.768  69.152  1.00  0.00    -0.084 C  
HETATM    8  C   UNL     1      -9.363   3.309  72.185  1.00  0.00    -0.119 C  
HETATM    9  N   UNL     1      -8.387   3.805  69.947  1.00  0.00    -0.055 N  
HETATM   10  OXT UNL     1      -9.153   3.426  73.383  1.00  0.00    -0.092 OA 
HETATM   11  O   UNL     1      -9.364   1.786  69.362  1.00  0.00    -0.112 OA 
HETATM   12  O   UNL     1     -10.109   2.300  71.709  1.00  0.00    -0.164 OA 
ENDROOT
BRANCH   4  13
HETATM   13  C   UNL     1      -9.338   6.183  72.734  1.00  0.00    -0.148 C  
BRANCH  13  14
HETATM   14  O   UNL     1     -10.102   7.363  72.417  1.00  0.00    -0.175 OA 
BRANCH  14  15
HETATM   15  C   UNL     1     -11.443   7.236  72.398  1.00  0.00    -0.287 C  
HETATM   16  O   UNL     1     -12.251   8.073  72.025  1.00  0.00    -0.303 OA 
HETATM   17  N   UNL     1     -11.804   6.037  72.912  1.00  0.00    -0.509 N  
HETATM   18  H2  UNL     1     -11.155   5.332  73.262  1.00  0.00     0.000 HD 
HETATM   19  H1  UNL     1     -12.819   5.941  72.898  1.00  0.00     0.000 HD 
ENDBRANCH  14  15
ENDBRANCH  13  14
ENDBRANCH   4  13
BRANCH   5  20
HETATM   20  N   UNL     1      -9.361   3.778  66.939  1.00  0.00    -0.181 N  
HETATM   21  H   UNL     1      -9.890   2.927  66.750  1.00  0.00     0.000 HD 
HETATM   22  C   UNL     1      -9.881   4.887  66.246  1.00  0.00    -0.209 C  
HETATM   23  O   UNL     1     -10.907   4.734  65.602  1.00  0.00    -0.274 OA 
BRANCH  22  24
HETATM   24  C   UNL     1      -9.126   6.199  66.107  1.00  0.00    -0.145 C  
BRANCH  24  25
HETATM   25  C   UNL     1      -7.919   6.257  65.291  1.00  0.00    -0.117 A  
HETATM   26  O   UNL     1      -7.107   5.167  65.117  1.00  0.00    -0.060 OA 
HETATM   27  C   UNL     1      -7.254   7.381  64.816  1.00  0.00    -0.072 A  
HETATM   28  C   UNL     1      -5.911   5.626  64.650  1.00  0.00    -0.021 A  
HETATM   29  C   UNL     1      -5.947   6.986  64.461  1.00  0.00    -0.037 A  
ENDBRANCH  24  25
BRANCH  24  30
HETATM   30  N   UNL     1      -9.322   7.281  66.800  1.00  0.00    -0.156 NA 
HETATM   31  H   UNL     1      -8.739   7.420  67.624  1.00  0.00     0.000 HD 
BRANCH  30  32
HETATM   32  O   UNL     1     -10.264   8.265  66.511  1.00  0.00    -0.288 OA 
HETATM   33  C   UNL     1      -9.925   9.398  65.745  1.00  0.00    -0.208 C  
ENDBRANCH  30  32
ENDBRANCH  24  30
ENDBRANCH  22  24
ENDBRANCH   5  20
TORSDOF 8
ENDMDL
MODEL      267
REMARK 921   NORMALIZED FREE ENERGY PREDICTED BY IDOCK:   -2.85 KCAL/MOL
REMARK 922        TOTAL FREE ENERGY PREDICTED BY IDOCK:   -5.58 KCAL/MOL
REMARK 923 INTER-LIGAND FREE ENERGY PREDICTED BY IDOCK:   -4.71 KCAL/MOL
REMARK 924 INTRA-LIGAND FREE ENERGY PREDICTED BY IDOCK:   -0.87 KCAL/MOL
REMARK 927      BINDING AFFINITY PREDICTED BY RF-SCORE:    0.00 PKD
ROOT
HETATM    1  C   UNL     1      -8.098  12.006  67.532  1.00  0.00    -0.159 C  
HETATM    2  S   UNL     1      -6.620  11.254  68.157  1.00  0.00    -0.059 SA 
HETATM    3  C   UNL     1      -6.397   9.802  67.090  1.00  0.00    -0.068 C  
HETATM    4  C   UNL     1      -7.342   9.582  65.944  1.00  0.00    -0.097 C  
HETATM    5  CA  UNL     1      -9.500  12.305  68.247  1.00  0.00    -0.209 C  
HETATM    6  CA  UNL     1      -8.438  10.315  65.671  1.00  0.00    -0.160 C  
HETATM    7  C   UNL     1     -10.037  11.886  66.850  1.00  0.00    -0.207 C  
HETATM    8  C   UNL     1      -9.243  10.029  64.435  1.00  0.00    -0.266 C  
HETATM    9  N   UNL     1      -8.863  11.297  66.546  1.00  0.00    -0.174 N  
HETATM   10  OXT UNL     1      -8.703   9.703  63.389  1.00  0.00    -0.197 OA 
HETATM   11  O   UNL     1     -11.103  11.848  66.311  1.00  0.00    -0.290 OA 
HETATM   12  O   UNL     1     -10.575  10.172  64.512  1.00  0.00     0.147 OA 
ENDROOT
BRANCH   4  13
HETATM   13  C   UNL     1      -7.000   8.302  65.175  1.00  0.00    -0.074 C  
BRANCH  13  14
HETATM   14  O   UNL     1      -7.618   7.134  65.748  1.00  0.00    -0.087 OA 
BRANCH  14  15
HETATM   15  C   UNL     1      -7.593   6.005  65.013  1.00  0.00    -0.090 C  
HETATM   16  O   UNL     1      -8.494   5.190  64.893  1.00  0.00    -0.139 OA 
HETATM   17  N   UNL     1      -6.376   5.852  64.438  1.00  0.00    -0.029 N  
HETATM   18  H2  UNL     1      -5.593   6.498  64.547  1.00  0.00     0.000 HD 
HETATM   19  H1  UNL     1      -6.357   4.998  63.882  1.00  0.00     0.000 HD 
ENDBRANCH  14  15
ENDBRANCH  13  14
ENDBRANCH   4  13
BRANCH   5  20
HETATM   20  N   UNL     1     -10.309  11.630  69.339  1.00  0.00    -0.426 N  
HETATM   21  H   UNL     1     -10.894  12.294  69.845  1.00  0.00     0.000 HD 
HETATM   22  C   UNL     1     -10.455  10.318  69.827  1.00  0.00    -0.259 C  
HETATM   23  O   UNL     1     -11.288  10.116  70.696  1.00  0.00    -0.307 OA 
BRANCH  22  24
HETATM   24  C   UNL     1      -9.498   9.194  69.465  1.00  0.00    -0.168 C  
BRANCH  24  25
HETATM   25  C   UNL     1      -9.984   8.044  68.712  1.00  0.00    -0.189 A  
HETATM   26  O   UNL     1     -10.129   8.076  67.350  1.00  0.00    -0.185 OA 
HETATM   27  C   UNL     1     -10.611   6.901  69.195  1.00  0.00    -0.245 A  
HETATM   28  C   UNL     1     -10.937   7.032  67.006  1.00  0.00    -0.287 A  
HETATM   29  C   UNL     1     -11.271   6.286  68.110  1.00  0.00    -0.239 A  
ENDBRANCH  24  25
BRANCH  24  30
HETATM   30  N   UNL     1      -8.292   9.030  69.920  1.00  0.00    -0.124 NA 
HETATM   31  H   UNL     1      -7.849   9.830  70.371  1.00  0.00     0.000 HD 
BRANCH  30  32
HETATM   32  O   UNL     1      -7.554   7.852  69.843  1.00  0.00    -0.085 OA 
HETATM   33  C   UNL     1      -6.329   7.800  69.148  1.00  0.00    -0.036 C  
ENDBRANCH  30  32
ENDBRANCH  24  30
ENDBRANCH  22  24
ENDBRANCH   5  20
TORSDOF 8
ENDMDL
MODEL      268
REMARK 921   NORMALIZED FREE ENERGY PREDICTED BY IDOCK:   -2.79 KCAL/MOL
REMARK 922        TOTAL FREE ENERGY PREDICTED BY IDOCK:   -5.50 KCAL/MOL
REMARK 923 INTER-LIGAND FREE ENERGY PREDICTED BY IDOCK:   -3.55 KCAL/MOL
REMARK 924 INTRA-LIGAND FREE ENERGY PREDICTED BY IDOCK:   -1.95 KCAL/MOL
REMARK 927      BINDING AFFINITY PREDICTED BY RF-SCORE:    0.00 PKD
ROOT
HETATM    1  C   UNL     1      -7.081   6.760  65.357  1.00  0.00    -0.064 C  
HETATM    2  S   UNL     1      -7.809   8.253  65.977  1.00  0.00    -0.099 SA 
HETATM    3  C   UNL     1      -7.745   8.042  67.778  1.00  0.00    -0.110 C  
HETATM    4  C   UNL     1      -7.076   6.825  68.351  1.00  0.00    -0.083 C  
HETATM    5  CA  UNL     1      -7.686   5.620  64.408  1.00  0.00    -0.097 C  
HETATM    6  CA  UNL     1      -6.591   5.785  67.648  1.00  0.00    -0.053 C  
HETATM    7  C   UNL     1      -6.871   4.712  65.370  1.00  0.00    -0.061 C  
HETATM    8  C   UNL     1      -5.868   4.674  68.354  1.00  0.00    -0.025 C  
HETATM    9  N   UNL     1      -6.797   5.701  66.283  1.00  0.00    -0.057 N  
HETATM   10  OXT UNL     1      -5.132   4.899  69.303  1.00  0.00     0.000 OA 
HETATM   11  O   UNL     1      -6.607   3.549  65.443  1.00  0.00    -0.035 OA 
HETATM   12  O   UNL     1      -6.035   3.426  67.889  1.00  0.00    -0.026 OA 
ENDROOT
BRANCH   4  13
HETATM   13  C   UNL     1      -7.138   6.823  69.882  1.00  0.00    -0.071 C  
BRANCH  13  14
HETATM   14  O   UNL     1      -7.569   8.089  70.418  1.00  0.00    -0.077 OA 
BRANCH  14  15
HETATM   15  C   UNL     1      -7.179   8.387  71.672  1.00  0.00    -0.091 C  
HETATM   16  O   UNL     1      -7.857   8.905  72.545  1.00  0.00    -0.369 OA 
HETATM   17  N   UNL     1      -5.872   8.075  71.839  1.00  0.00    -0.036 N  
HETATM   18  H2  UNL     1      -5.271   7.672  71.119  1.00  0.00     0.000 HD 
HETATM   19  H1  UNL     1      -5.576   8.301  72.788  1.00  0.00     0.000 HD 
ENDBRANCH  14  15
ENDBRANCH  13  14
ENDBRANCH   4  13
BRANCH   5  20
HETATM   20  N   UNL     1      -9.068   5.034  64.186  1.00  0.00    -0.349 N  
HETATM   21  H   UNL     1      -9.382   5.152  63.223  1.00  0.00     0.000 HD 
HETATM   22  C   UNL     1     -10.024   4.370  64.976  1.00  0.00    -0.150 C  
HETATM   23  O   UNL     1     -11.032   3.950  64.429  1.00  0.00    -0.281 OA 
BRANCH  22  24
HETATM   24  C   UNL     1      -9.952   4.325  66.493  1.00  0.00    -0.192 C  
BRANCH  24  25
HETATM   25  C   UNL     1     -10.610   5.361  67.281  1.00  0.00    -0.176 A  
HETATM   26  O   UNL     1     -11.073   6.520  66.715  1.00  0.00    -0.362 OA 
HETATM   27  C   UNL     1     -10.637   5.505  68.664  1.00  0.00    -0.215 A  
HETATM   28  C   UNL     1     -11.271   7.412  67.728  1.00  0.00     0.273 A  
HETATM   29  C   UNL     1     -11.004   6.838  68.947  1.00  0.00    -0.272 A  
ENDBRANCH  24  25
BRANCH  24  30
HETATM   30  N   UNL     1      -9.189   3.553  67.208  1.00  0.00    -0.179 NA 
HETATM   31  H   UNL     1      -8.311   3.945  67.547  1.00  0.00     0.000 HD 
BRANCH  30  32
HETATM   32  O   UNL     1      -9.471   2.232  67.549  1.00  0.00    -0.144 OA 
HETATM   33  C   UNL     1      -9.247   1.750  68.854  1.00  0.00    -0.145 C  
ENDBRANCH  30  32
ENDBRANCH  24  30
ENDBRANCH  22  24
ENDBRANCH   5  20
TORSDOF 8
ENDMDL
MODEL      269
REMARK 921   NORMALIZED FREE ENERGY PREDICTED BY IDOCK:   -2.60 KCAL/MOL
REMARK 922        TOTAL FREE ENERGY PREDICTED BY IDOCK:   -5.21 KCAL/MOL
REMARK 923 INTER-LIGAND FREE ENERGY PREDICTED BY IDOCK:   -5.83 KCAL/MOL
REMARK 924 INTRA-LIGAND FREE ENERGY PREDICTED BY IDOCK:    0.63 KCAL/MOL
REMARK 927      BINDING AFFINITY PREDICTED BY RF-SCORE:    0.00 PKD
ROOT
HETATM    1  C   UNL     1      -9.197  14.012  66.759  1.00  0.00    -0.265 C  
HETATM    2  S   UNL     1      -7.723  13.166  67.264  1.00  0.00    -0.038 SA 
HETATM    3  C   UNL     1      -7.806  11.591  66.366  1.00  0.00    -0.020 C  
HETATM    4  C   UNL     1      -8.929  11.358  65.396  1.00  0.00    -0.055 C  
HETATM    5  CA  UNL     1     -10.439  14.546  67.617  1.00  0.00    -0.246 C  
HETATM    6  CA  UNL     1      -9.976  12.178  65.187  1.00  0.00    -0.228 C  
HETATM    7  C   UNL     1     -11.218  14.043  66.370  1.00  0.00    -0.319 C  
HETATM    8  C   UNL     1     -10.982  11.854  64.119  1.00  0.00    -0.369 C  
HETATM    9  N   UNL     1     -10.167  13.292  65.983  1.00  0.00    -0.286 N  
HETATM   10  OXT UNL     1     -10.639  11.356  63.057  1.00  0.00    -0.255 OA 
HETATM   11  O   UNL     1     -12.352  14.069  65.991  1.00  0.00    -0.445 OA 
HETATM   12  O   UNL     1     -12.266  12.157  64.359  1.00  0.00    -0.385 OA 
ENDROOT
BRANCH   4  13
HETATM   13  C   UNL     1      -8.833   9.971  64.753  1.00  0.00    -0.195 C  
BRANCH  13  14
HETATM   14  O   UNL     1      -9.484   8.954  65.540  1.00  0.00    -0.202 OA 
BRANCH  14  15
HETATM   15  C   UNL     1      -8.719   7.932  65.971  1.00  0.00    -0.158 C  
HETATM   16  O   UNL     1      -7.567   7.999  66.371  1.00  0.00    -0.088 OA 
HETATM   17  N   UNL     1      -9.394   6.764  65.853  1.00  0.00    -0.389 N  
HETATM   18  H2  UNL     1     -10.343   6.672  65.492  1.00  0.00     0.000 HD 
HETATM   19  H1  UNL     1      -8.814   5.990  66.179  1.00  0.00     0.000 HD 
ENDBRANCH  14  15
ENDBRANCH  13  14
ENDBRANCH   4  13
BRANCH   5  20
HETATM   20  N   UNL     1     -11.139  14.092  68.884  1.00  0.00    -0.254 N  
HETATM   21  H   UNL     1     -11.701  14.836  69.297  1.00  0.00     0.000 HD 
HETATM   22  C   UNL     1     -11.206  12.902  69.633  1.00  0.00    -0.002 C  
HETATM   23  O   UNL     1     -11.961  12.868  70.592  1.00  0.00    -0.299 OA 
BRANCH  22  24
HETATM   24  C   UNL     1     -10.248  11.741  69.421  1.00  0.00     0.321 C  
BRANCH  24  25
HETATM   25  C   UNL     1     -10.691  10.379  69.691  1.00  0.00    -0.265 A  
HETATM   26  O   UNL     1     -10.742   9.870  70.962  1.00  0.00    -0.309 OA 
HETATM   27  C   UNL     1     -10.853   9.331  68.791  1.00  0.00    -0.123 A  
HETATM   28  C   UNL     1     -10.814   8.513  70.851  1.00  0.00    -0.232 A  
HETATM   29  C   UNL     1     -10.873   8.131  69.533  1.00  0.00    -0.128 A  
ENDBRANCH  24  25
BRANCH  24  30
HETATM   30  N   UNL     1      -8.971  11.825  69.198  1.00  0.00    -0.300 NA 
HETATM   31  H   UNL     1      -8.589  12.750  69.005  1.00  0.00     0.000 HD 
BRANCH  30  32
HETATM   32  O   UNL     1      -8.080  10.754  69.201  1.00  0.00    -0.152 OA 
HETATM   33  C   UNL     1      -6.882  10.802  69.940  1.00  0.00    -0.146 C  
ENDBRANCH  30  32
ENDBRANCH  24  30
ENDBRANCH  22  24
ENDBRANCH   5  20
TORSDOF 8
ENDMDL
MODEL      270
REMARK 921   NORMALIZED FREE ENERGY PREDICTED BY IDOCK:   -2.47 KCAL/MOL
REMARK 922        TOTAL FREE ENERGY PREDICTED BY IDOCK:   -5.03 KCAL/MOL
REMARK 923 INTER-LIGAND FREE ENERGY PREDICTED BY IDOCK:   -5.25 KCAL/MOL
REMARK 924 INTRA-LIGAND FREE ENERGY PREDICTED BY IDOCK:    0.22 KCAL/MOL
REMARK 927      BINDING AFFINITY PREDICTED BY RF-SCORE:    0.00 PKD
ROOT
HETATM    1  C   UNL     1      -6.795   6.150  71.248  1.00  0.00    -0.067 C  
HETATM    2  S   UNL     1      -6.178   4.637  70.559  1.00  0.00    -0.023 SA 
HETATM    3  C   UNL     1      -6.503   4.813  68.783  1.00  0.00    -0.037 C  
HETATM    4  C   UNL     1      -7.080   6.100  68.266  1.00  0.00    -0.082 C  
HETATM    5  CA  UNL     1      -7.944   6.411  72.332  1.00  0.00    -0.102 C  
HETATM    6  CA  UNL     1      -7.493   7.139  69.017  1.00  0.00    -0.094 C  
HETATM    7  C   UNL     1      -8.236   7.613  71.392  1.00  0.00    -0.099 C  
HETATM    8  C   UNL     1      -7.970   8.400  68.355  1.00  0.00    -0.118 C  
HETATM    9  N   UNL     1      -7.533   7.039  70.395  1.00  0.00    -0.084 N  
HETATM   10  OXT UNL     1      -7.440   8.821  67.338  1.00  0.00    -0.087 OA 
HETATM   11  O   UNL     1      -8.971   8.556  71.399  1.00  0.00    -0.166 OA 
HETATM   12  O   UNL     1      -8.980   9.066  68.936  1.00  0.00    -0.138 OA 
ENDROOT
BRANCH   4  13
HETATM   13  C   UNL     1      -7.294   6.048  66.751  1.00  0.00    -0.079 C  
BRANCH  13  14
HETATM   14  O   UNL     1      -8.506   5.358  66.389  1.00  0.00    -0.112 OA 
BRANCH  14  15
HETATM   15  C   UNL     1      -8.375   4.120  65.874  1.00  0.00    -0.109 C  
HETATM   16  O   UNL     1      -7.651   3.788  64.948  1.00  0.00    -0.075 OA 
HETATM   17  N   UNL     1      -9.215   3.264  66.500  1.00  0.00    -0.200 N  
HETATM   18  H2  UNL     1      -9.855   3.519  67.253  1.00  0.00     0.000 HD 
HETATM   19  H1  UNL     1      -9.116   2.327  66.110  1.00  0.00     0.000 HD 
ENDBRANCH  14  15
ENDBRANCH  13  14
ENDBRANCH   4  13
BRANCH   5  20
HETATM   20  N   UNL     1      -9.240   5.717  72.706  1.00  0.00    -0.133 N  
HETATM   21  H   UNL     1      -9.088   4.953  73.364  1.00  0.00     0.000 HD 
HETATM   22  C   UNL     1     -10.600   5.864  72.372  1.00  0.00    -0.217 C  
HETATM   23  O   UNL     1     -11.413   5.156  72.946  1.00  0.00    -0.299 OA 
BRANCH  22  24
HETATM   24  C   UNL     1     -11.074   6.713  71.204  1.00  0.00    -0.279 C  
BRANCH  24  25
HETATM   25  C   UNL     1     -12.208   7.613  71.376  1.00  0.00    -0.326 A  
HETATM   26  O   UNL     1     -12.054   8.898  71.824  1.00  0.00    -0.315 OA 
HETATM   27  C   UNL     1     -13.562   7.297  71.402  1.00  0.00    -0.399 A  
HETATM   28  C   UNL     1     -13.280   9.332  72.234  1.00  0.00    -0.460 A  
HETATM   29  C   UNL     1     -14.240   8.377  72.007  1.00  0.00    -0.528 A  
ENDBRANCH  24  25
BRANCH  24  30
HETATM   30  N   UNL     1     -10.700   6.599  69.964  1.00  0.00    -0.222 NA 
HETATM   31  H   UNL     1      -9.698   6.574  69.779  1.00  0.00     0.000 HD 
BRANCH  30  32
HETATM   32  O   UNL     1     -11.555   6.509  68.869  1.00  0.00    -0.195 OA 
HETATM   33  C   UNL     1     -11.086   6.096  67.607  1.00  0.00    -0.205 C  
ENDBRANCH  30  32
ENDBRANCH  24  30
ENDBRANCH  22  24
ENDBRANCH   5  20
TORSDOF 8
ENDMDL
MODEL      271
REMARK 921   NORMALIZED FREE ENERGY PREDICTED BY IDOCK:   -2.47 KCAL/MOL
REMARK 922        TOTAL FREE ENERGY PREDICTED BY IDOCK:   -5.02 KCAL/MOL
REMARK 923 INTER-LIGAND FREE ENERGY PREDICTED BY IDOCK:   -4.01 KCAL/MOL
REMARK 924 INTRA-LIGAND FREE ENERGY PREDICTED BY IDOCK:   -1.01 KCAL/MOL
REMARK 927      BINDING AFFINITY PREDICTED BY RF-SCORE:    0.00 PKD
ROOT
HETATM    1  C   UNL     1      -6.737   5.639  72.351  1.00  0.00    -0.071 C  
HETATM    2  S   UNL     1      -6.519   4.394  71.108  1.00  0.00    -0.027 SA 
HETATM    3  C   UNL     1      -7.173   5.174  69.605  1.00  0.00    -0.056 C  
HETATM    4  C   UNL     1      -7.637   6.602  69.662  1.00  0.00    -0.098 C  
HETATM    5  CA  UNL     1      -7.582   5.617  73.712  1.00  0.00    -0.097 C  
HETATM    6  CA  UNL     1      -7.718   7.363  70.770  1.00  0.00    -0.088 C  
HETATM    7  C   UNL     1      -7.871   7.083  73.282  1.00  0.00    -0.096 C  
HETATM    8  C   UNL     1      -8.120   8.806  70.660  1.00  0.00    -0.133 C  
HETATM    9  N   UNL     1      -7.487   6.816  72.018  1.00  0.00    -0.092 N  
HETATM   10  OXT UNL     1      -7.753   9.496  69.721  1.00  0.00    -0.093 OA 
HETATM   11  O   UNL     1      -8.432   8.026  73.755  1.00  0.00    -0.219 OA 
HETATM   12  O   UNL     1      -8.872   9.321  71.644  1.00  0.00    -0.312 OA 
ENDROOT
BRANCH   4  13
HETATM   13  C   UNL     1      -8.165   7.072  68.303  1.00  0.00    -0.124 C  
BRANCH  13  14
HETATM   14  O   UNL     1      -9.605   7.058  68.238  1.00  0.00    -0.134 OA 
BRANCH  14  15
HETATM   15  C   UNL     1     -10.160   6.993  67.012  1.00  0.00    -0.229 C  
HETATM   16  O   UNL     1     -11.254   7.424  66.682  1.00  0.00     0.180 OA 
HETATM   17  N   UNL     1      -9.345   6.319  66.167  1.00  0.00    -0.291 N  
HETATM   18  H2  UNL     1      -8.442   5.919  66.422  1.00  0.00     0.000 HD 
HETATM   19  H1  UNL     1      -9.766   6.270  65.239  1.00  0.00     0.000 HD 
ENDBRANCH  14  15
ENDBRANCH  13  14
ENDBRANCH   4  13
BRANCH   5  20
HETATM   20  N   UNL     1      -8.865   4.946  74.165  1.00  0.00    -0.113 N  
HETATM   21  H   UNL     1      -8.725   4.381  75.002  1.00  0.00     0.000 HD 
HETATM   22  C   UNL     1     -10.199   4.908  73.719  1.00  0.00    -0.205 C  
HETATM   23  O   UNL     1     -11.017   4.307  74.399  1.00  0.00    -0.241 OA 
BRANCH  22  24
HETATM   24  C   UNL     1     -10.623   5.406  72.347  1.00  0.00    -0.224 C  
BRANCH  24  25
HETATM   25  C   UNL     1     -11.739   6.337  72.228  1.00  0.00    -0.298 A  
HETATM   26  O   UNL     1     -13.033   5.907  72.094  1.00  0.00     0.187 OA 
HETATM   27  C   UNL     1     -11.699   7.700  71.957  1.00  0.00    -0.340 A  
HETATM   28  C   UNL     1     -13.763   6.961  71.630  1.00  0.00    -0.160 A  
HETATM   29  C   UNL     1     -12.983   8.086  71.517  1.00  0.00    -0.326 A  
ENDBRANCH  24  25
BRANCH  24  30
HETATM   30  N   UNL     1     -10.222   4.946  71.200  1.00  0.00    -0.210 NA 
HETATM   31  H   UNL     1      -9.925   5.626  70.501  1.00  0.00     0.000 HD 
BRANCH  30  32
HETATM   32  O   UNL     1     -10.164   3.600  70.846  1.00  0.00     0.050 OA 
HETATM   33  C   UNL     1      -9.694   2.626  71.748  1.00  0.00    -0.154 C  
ENDBRANCH  30  32
ENDBRANCH  24  30
ENDBRANCH  22  24
ENDBRANCH   5  20
TORSDOF 8
ENDMDL
MODEL      272
REMARK 921   NORMALIZED FREE ENERGY PREDICTED BY IDOCK:   -2.37 KCAL/MOL
REMARK 922        TOTAL FREE ENERGY PREDICTED BY IDOCK:   -4.87 KCAL/MOL
REMARK 923 INTER-LIGAND FREE ENERGY PREDICTED BY IDOCK:   -4.69 KCAL/MOL
REMARK 924 INTRA-LIGAND FREE ENERGY PREDICTED BY IDOCK:   -0.18 KCAL/MOL
REMARK 927      BINDING AFFINITY PREDICTED BY RF-SCORE:    0.00 PKD
ROOT
HETATM    1  C   UNL     1      -9.471  17.847  67.109  1.00  0.00    -0.263 C  
HETATM    2  S   UNL     1     -10.516  18.827  68.152  1.00  0.00    -0.248 SA 
HETATM    3  C   UNL     1     -10.873  17.729  69.551  1.00  0.00     0.793 C  
HETATM    4  C   UNL     1     -10.215  16.380  69.611  1.00  0.00    -0.198 C  
HETATM    5  CA  UNL     1      -9.669  17.358  65.597  1.00  0.00     0.205 C  
HETATM    6  CA  UNL     1      -9.440  15.835  68.655  1.00  0.00    -0.208 C  
HETATM    7  C   UNL     1      -9.006  16.075  66.170  1.00  0.00    -0.345 C  
HETATM    8  C   UNL     1      -8.777  14.508  68.892  1.00  0.00    -0.105 C  
HETATM    9  N   UNL     1      -9.289  16.460  67.431  1.00  0.00    -0.220 N  
HETATM   10  OXT UNL     1      -8.335  14.208  69.990  1.00  0.00     0.921 OA 
HETATM   11  O   UNL     1      -8.620  15.032  65.731  1.00  0.00     0.452 OA 
HETATM   12  O   UNL     1      -8.660  13.674  67.848  1.00  0.00    -0.158 OA 
ENDROOT
BRANCH   4  13
HETATM   13  C   UNL     1     -10.653  15.599  70.854  1.00  0.00     0.085 C  
BRANCH  13  14
HETATM   14  O   UNL     1     -11.591  16.335  71.664  1.00  0.00    -0.458 OA 
BRANCH  14  15
HETATM   15  C   UNL     1     -12.634  15.647  72.170  1.00  0.00    -0.426 C  
HETATM   16  O   UNL     1     -12.635  14.961  73.180  1.00  0.00    -0.412 OA 
HETATM   17  N   UNL     1     -13.711  15.774  71.359  1.00  0.00    -0.477 N  
HETATM   18  H2  UNL     1     -13.730  16.312  70.493  1.00  0.00     0.000 HD 
HETATM   19  H1  UNL     1     -14.500  15.252  71.742  1.00  0.00     0.000 HD 
ENDBRANCH  14  15
ENDBRANCH  13  14
ENDBRANCH   4  13
BRANCH   5  20
HETATM   20  N   UNL     1     -10.864  16.987  64.739  1.00  0.00    -0.014 N  
HETATM   21  H   UNL     1     -11.218  17.785  64.213  1.00  0.00     0.000 HD 
HETATM   22  C   UNL     1     -11.606  15.818  64.489  1.00  0.00    -0.247 C  
HETATM   23  O   UNL     1     -12.489  15.865  63.646  1.00  0.00    -0.612 OA 
BRANCH  22  24
HETATM   24  C   UNL     1     -11.492  14.570  65.349  1.00  0.00    -0.348 C  
BRANCH  24  25
HETATM   25  C   UNL     1     -11.228  13.280  64.723  1.00  0.00    -0.331 A  
HETATM   26  O   UNL     1     -10.123  13.064  63.942  1.00  0.00    -0.365 OA 
HETATM   27  C   UNL     1     -12.097  12.207  64.562  1.00  0.00    -0.416 A  
HETATM   28  C   UNL     1     -10.357  11.933  63.216  1.00  0.00    -0.391 A  
HETATM   29  C   UNL     1     -11.565  11.375  63.554  1.00  0.00    -0.127 A  
ENDBRANCH  24  25
BRANCH  24  30
HETATM   30  N   UNL     1     -11.797  14.469  66.609  1.00  0.00    -0.389 NA 
HETATM   31  H   UNL     1     -12.177  15.297  67.066  1.00  0.00     0.000 HD 
BRANCH  30  32
HETATM   32  O   UNL     1     -11.646  13.323  67.386  1.00  0.00    -0.312 OA 
HETATM   33  C   UNL     1     -12.192  13.242  68.682  1.00  0.00    -0.080 C  
ENDBRANCH  30  32
ENDBRANCH  24  30
ENDBRANCH  22  24
ENDBRANCH   5  20
TORSDOF 8
ENDMDL
MODEL      273
REMARK 921   NORMALIZED FREE ENERGY PREDICTED BY IDOCK:   -1.38 KCAL/MOL
REMARK 922        TOTAL FREE ENERGY PREDICTED BY IDOCK:   -3.42 KCAL/MOL
REMARK 923 INTER-LIGAND FREE ENERGY PREDICTED BY IDOCK:   -3.84 KCAL/MOL
REMARK 924 INTRA-LIGAND FREE ENERGY PREDICTED BY IDOCK:    0.41 KCAL/MOL
REMARK 927      BINDING AFFINITY PREDICTED BY RF-SCORE:    0.00 PKD
ROOT
HETATM    1  C   UNL     1      -8.343  19.241  69.304  1.00  0.00    -0.016 C  
HETATM    2  S   UNL     1     -10.054  18.883  69.007  1.00  0.00    -0.098 SA 
HETATM    3  C   UNL     1     -10.125  17.070  69.055  1.00  0.00    -0.290 C  
HETATM    4  C   UNL     1      -8.883  16.296  69.395  1.00  0.00    -0.056 C  
HETATM    5  CA  UNL     1      -7.265  20.007  68.401  1.00  0.00    -0.262 C  
HETATM    6  CA  UNL     1      -7.653  16.814  69.575  1.00  0.00     0.178 C  
HETATM    7  C   UNL     1      -6.341  18.895  68.972  1.00  0.00    -0.267 C  
HETATM    8  C   UNL     1      -6.519  15.924  69.997  1.00  0.00    -0.055 C  
HETATM    9  N   UNL     1      -7.409  18.151  69.323  1.00  0.00    -0.106 N  
HETATM   10  OXT UNL     1      -6.693  15.009  70.787  1.00  0.00     0.132 OA 
HETATM   11  O   UNL     1      -5.177  18.632  68.924  1.00  0.00    -0.185 OA 
HETATM   12  O   UNL     1      -5.302  16.186  69.499  1.00  0.00    -0.110 OA 
ENDROOT
BRANCH   4  13
HETATM   13  C   UNL     1      -9.141  14.787  69.369  1.00  0.00     0.046 C  
BRANCH  13  14
HETATM   14  O   UNL     1     -10.519  14.459  69.638  1.00  0.00    -0.093 OA 
BRANCH  14  15
HETATM   15  C   UNL     1     -11.035  13.402  68.982  1.00  0.00    -0.224 C  
HETATM   16  O   UNL     1     -12.084  13.371  68.357  1.00  0.00    -0.343 OA 
HETATM   17  N   UNL     1     -10.241  12.318  69.148  1.00  0.00    -0.418 N  
HETATM   18  H2  UNL     1      -9.378  12.304  69.691  1.00  0.00     0.000 HD 
HETATM   19  H1  UNL     1     -10.633  11.518  68.651  1.00  0.00     0.000 HD 
ENDBRANCH  14  15
ENDBRANCH  13  14
ENDBRANCH   4  13
BRANCH   5  20
HETATM   20  N   UNL     1      -7.034  20.160  66.910  1.00  0.00    -0.222 N  
HETATM   21  H   UNL     1      -7.014  21.139  66.625  1.00  0.00     0.000 HD 
HETATM   22  C   UNL     1      -6.840  19.290  65.821  1.00  0.00    -0.278 C  
HETATM   23  O   UNL     1      -6.593  19.779  64.729  1.00  0.00    -0.329 OA 
BRANCH  22  24
HETATM   24  C   UNL     1      -7.116  17.797  65.900  1.00  0.00    -0.243 C  
BRANCH  24  25
HETATM   25  C   UNL     1      -8.491  17.317  65.973  1.00  0.00    -0.101 A  
HETATM   26  O   UNL     1      -8.798  15.983  65.915  1.00  0.00    -0.311 OA 
HETATM   27  C   UNL     1      -9.666  18.047  65.832  1.00  0.00     0.004 A  
HETATM   28  C   UNL     1     -10.127  15.888  65.623  1.00  0.00    -0.358 A  
HETATM   29  C   UNL     1     -10.704  17.133  65.549  1.00  0.00    -0.124 A  
ENDBRANCH  24  25
BRANCH  24  30
HETATM   30  N   UNL     1      -6.240  16.860  66.109  1.00  0.00    -0.120 NA 
HETATM   31  H   UNL     1      -5.282  17.040  65.810  1.00  0.00     0.000 HD 
BRANCH  30  32
HETATM   32  O   UNL     1      -6.501  15.629  66.706  1.00  0.00    -0.176 OA 
HETATM   33  C   UNL     1      -5.462  14.831  67.221  1.00  0.00     0.589 C  
ENDBRANCH  30  32
ENDBRANCH  24  30
ENDBRANCH  22  24
ENDBRANCH   5  20
TORSDOF 8
ENDMDL
MODEL      274
REMARK 921   NORMALIZED FREE ENERGY PREDICTED BY IDOCK:   -0.56 KCAL/MOL
REMARK 922        TOTAL FREE ENERGY PREDICTED BY IDOCK:   -2.21 KCAL/MOL
REMARK 923 INTER-LIGAND FREE ENERGY PREDICTED BY IDOCK:   -5.16 KCAL/MOL
REMARK 924 INTRA-LIGAND FREE ENERGY PREDICTED BY IDOCK:    2.94 KCAL/MOL
REMARK 927      BINDING AFFINITY PREDICTED BY RF-SCORE:    0.00 PKD
ROOT
HETATM    1  C   UNL     1     -10.626  11.663  69.415  1.00  0.00     0.039 C  
HETATM    2  S   UNL     1     -11.466  10.117  69.633  1.00  0.00    -0.158 SA 
HETATM    3  C   UNL     1     -10.499   8.960  68.623  1.00  0.00    -0.193 C  
HETATM    4  C   UNL     1      -9.251   9.447  67.943  1.00  0.00    -0.139 C  
HETATM    5  CA  UNL     1     -11.144  13.056  68.818  1.00  0.00    -0.270 C  
HETATM    6  CA  UNL     1      -8.810  10.719  67.916  1.00  0.00    -0.132 C  
HETATM    7  C   UNL     1      -9.708  13.067  68.223  1.00  0.00    -0.221 C  
HETATM    8  C   UNL     1      -7.494  11.043  67.267  1.00  0.00    -0.107 C  
HETATM    9  N   UNL     1      -9.581  11.742  68.435  1.00  0.00    -0.195 N  
HETATM   10  OXT UNL     1      -6.540  10.285  67.357  1.00  0.00    -0.066 OA 
HETATM   11  O   UNL     1      -9.039  13.834  67.596  1.00  0.00    -0.179 OA 
HETATM   12  O   UNL     1      -7.393  12.208  66.610  1.00  0.00     0.015 OA 
ENDROOT
BRANCH   4  13
HETATM   13  C   UNL     1      -8.587   8.331  67.130  1.00  0.00    -0.123 C  
BRANCH  13  14
HETATM   14  O   UNL     1      -8.353   7.144  67.913  1.00  0.00    -0.118 OA 
BRANCH  14  15
HETATM   15  C   UNL     1      -8.659   7.206  69.223  1.00  0.00    -0.137 C  
HETATM   16  O   UNL     1      -8.153   7.938  70.059  1.00  0.00    -0.113 OA 
HETATM   17  N   UNL     1      -9.602   6.281  69.524  1.00  0.00    -0.146 N  
HETATM   18  H2  UNL     1     -10.019   5.633  68.856  1.00  0.00     0.000 HD 
HETATM   19  H1  UNL     1      -9.833   6.328  70.517  1.00  0.00     0.000 HD 
ENDBRANCH  14  15
ENDBRANCH  13  14
ENDBRANCH   4  13
BRANCH   5  20
HETATM   20  N   UNL     1     -12.150  13.458  67.756  1.00  0.00    -0.312 N  
HETATM   21  H   UNL     1     -13.062  13.031  67.914  1.00  0.00     0.000 HD 
HETATM   22  C   UNL     1     -12.139  14.271  66.607  1.00  0.00    -0.420 C  
HETATM   23  O   UNL     1     -13.191  14.438  66.010  1.00  0.00     0.004 OA 
BRANCH  22  24
HETATM   24  C   UNL     1     -10.856  14.782  65.972  1.00  0.00    -0.318 C  
BRANCH  24  25
HETATM   25  C   UNL     1     -10.464  16.175  66.152  1.00  0.00    -0.325 A  
HETATM   26  O   UNL     1     -10.352  16.744  67.393  1.00  0.00    -0.290 OA 
HETATM   27  C   UNL     1     -10.414  17.185  65.199  1.00  0.00     0.119 A  
HETATM   28  C   UNL     1     -10.354  18.096  67.219  1.00  0.00    -0.386 A  
HETATM   29  C   UNL     1     -10.404  18.419  65.885  1.00  0.00    -0.322 A  
ENDBRANCH  24  25
BRANCH  24  30
HETATM   30  N   UNL     1     -10.125  14.158  65.096  1.00  0.00    -0.536 NA 
HETATM   31  H   UNL     1      -9.294  14.639  64.754  1.00  0.00     0.000 HD 
BRANCH  30  32
HETATM   32  O   UNL     1     -10.385  12.888  64.587  1.00  0.00    -0.333 OA 
HETATM   33  C   UNL     1      -9.356  11.939  64.431  1.00  0.00     0.209 C  
ENDBRANCH  30  32
ENDBRANCH  24  30
ENDBRANCH  22  24
ENDBRANCH   5  20
TORSDOF 8
ENDMDL
MODEL      275
REMARK 921   NORMALIZED FREE ENERGY PREDICTED BY IDOCK:   -0.50 KCAL/MOL
REMARK 922        TOTAL FREE ENERGY PREDICTED BY IDOCK:   -2.12 KCAL/MOL
REMARK 923 INTER-LIGAND FREE ENERGY PREDICTED BY IDOCK:   -3.94 KCAL/MOL
REMARK 924 INTRA-LIGAND FREE ENERGY PREDICTED BY IDOCK:    1.82 KCAL/MOL
REMARK 927      BINDING AFFINITY PREDICTED BY RF-SCORE:    0.00 PKD
ROOT
HETATM    1  C   UNL     1     -10.586  11.716  69.440  1.00  0.00     0.039 C  
HETATM    2  S   UNL     1     -11.630  10.302  69.215  1.00  0.00    -0.057 SA 
HETATM    3  C   UNL     1     -10.689   9.255  68.070  1.00  0.00    -0.174 C  
HETATM    4  C   UNL     1      -9.313   9.683  67.646  1.00  0.00    -0.144 C  
HETATM    5  CA  UNL     1     -10.846  13.265  69.127  1.00  0.00    -0.104 C  
HETATM    6  CA  UNL     1      -8.720  10.851  67.954  1.00  0.00    -0.131 C  
HETATM    7  C   UNL     1      -9.355  13.189  68.696  1.00  0.00     0.012 C  
HETATM    8  C   UNL     1      -7.301  11.107  67.530  1.00  0.00    -0.102 C  
HETATM    9  N   UNL     1      -9.420  11.845  68.612  1.00  0.00    -0.134 N  
HETATM   10  OXT UNL     1      -6.467  10.214  67.539  1.00  0.00    -0.065 OA 
HETATM   11  O   UNL     1      -8.521  13.963  68.330  1.00  0.00    -0.159 OA 
HETATM   12  O   UNL     1      -6.973  12.356  67.168  1.00  0.00    -0.143 OA 
ENDROOT
BRANCH   4  13
HETATM   13  C   UNL     1      -8.691   8.679  66.671  1.00  0.00    -0.123 C  
BRANCH  13  14
HETATM   14  O   UNL     1      -8.787   9.112  65.300  1.00  0.00    -0.179 OA 
BRANCH  14  15
HETATM   15  C   UNL     1      -9.369  10.306  65.075  1.00  0.00    -0.237 C  
HETATM   16  O   UNL     1     -10.516  10.623  65.348  1.00  0.00    -0.258 OA 
HETATM   17  N   UNL     1      -8.506  11.131  64.435  1.00  0.00    -0.349 N  
HETATM   18  H2  UNL     1      -7.554  10.884  64.164  1.00  0.00     0.000 HD 
HETATM   19  H1  UNL     1      -8.947  12.035  64.265  1.00  0.00     0.000 HD 
ENDBRANCH  14  15
ENDBRANCH  13  14
ENDBRANCH   4  13
BRANCH   5  20
HETATM   20  N   UNL     1     -11.648  14.028  68.090  1.00  0.00    -0.314 N  
HETATM   21  H   UNL     1     -12.614  13.705  68.041  1.00  0.00     0.000 HD 
HETATM   22  C   UNL     1     -11.393  15.069  67.178  1.00  0.00    -0.320 C  
HETATM   23  O   UNL     1     -12.330  15.508  66.528  1.00  0.00     0.719 OA 
BRANCH  22  24
HETATM   24  C   UNL     1      -9.988  15.530  66.827  1.00  0.00    -0.249 C  
BRANCH  24  25
HETATM   25  C   UNL     1      -9.465  16.762  67.405  1.00  0.00    -0.236 A  
HETATM   26  O   UNL     1      -9.450  16.980  68.758  1.00  0.00    -0.260 OA 
HETATM   27  C   UNL     1      -9.176  17.961  66.763  1.00  0.00    -0.278 A  
HETATM   28  C   UNL     1      -9.273  18.319  68.948  1.00  0.00    -0.165 A  
HETATM   29  C   UNL     1      -9.113  18.969  67.749  1.00  0.00    -0.331 A  
ENDBRANCH  24  25
BRANCH  24  30
HETATM   30  N   UNL     1      -9.227  15.046  65.891  1.00  0.00    -0.489 NA 
HETATM   31  H   UNL     1      -8.301  15.457  65.782  1.00  0.00     0.000 HD 
BRANCH  30  32
HETATM   32  O   UNL     1      -9.572  14.011  65.025  1.00  0.00     0.009 OA 
HETATM   33  C   UNL     1     -10.702  14.102  64.190  1.00  0.00     0.286 C  
ENDBRANCH  30  32
ENDBRANCH  24  30
ENDBRANCH  22  24
ENDBRANCH   5  20
TORSDOF 8
ENDMDL
MODEL      276
REMARK 921   NORMALIZED FREE ENERGY PREDICTED BY IDOCK:    0.32 KCAL/MOL
REMARK 922        TOTAL FREE ENERGY PREDICTED BY IDOCK:   -0.93 KCAL/MOL
REMARK 923 INTER-LIGAND FREE ENERGY PREDICTED BY IDOCK:   -1.39 KCAL/MOL
REMARK 924 INTRA-LIGAND FREE ENERGY PREDICTED BY IDOCK:    0.46 KCAL/MOL
REMARK 927      BINDING AFFINITY PREDICTED BY RF-SCORE:    0.00 PKD
ROOT
HETATM    1  C   UNL     1      -9.282  16.167  67.242  1.00  0.00    -0.208 C  
HETATM    2  S   UNL     1      -7.874  15.094  67.142  1.00  0.00    -0.164 SA 
HETATM    3  C   UNL     1      -8.468  13.705  66.137  1.00  0.00     0.981 C  
HETATM    4  C   UNL     1      -9.853  13.757  65.558  1.00  0.00    -0.189 C  
HETATM    5  CA  UNL     1     -10.109  16.687  68.512  1.00  0.00    -0.266 C  
HETATM    6  CA  UNL     1     -10.774  14.710  65.796  1.00  0.00    -0.315 C  
HETATM    7  C   UNL     1     -11.296  16.482  67.530  1.00  0.00     0.143 C  
HETATM    8  C   UNL     1     -12.092  14.676  65.077  1.00  0.00    -0.349 C  
HETATM    9  N   UNL     1     -10.540  15.694  66.739  1.00  0.00    -0.306 N  
HETATM   10  OXT UNL     1     -12.167  14.323  63.910  1.00  0.00    -0.577 OA 
HETATM   11  O   UNL     1     -12.472  16.693  67.541  1.00  0.00     1.779 OA 
HETATM   12  O   UNL     1     -13.181  15.075  65.751  1.00  0.00     0.596 OA 
ENDROOT
BRANCH   4  13
HETATM   13  C   UNL     1     -10.172  12.491  64.757  1.00  0.00    -0.280 C  
BRANCH  13  14
HETATM   14  O   UNL     1     -10.124  11.300  65.567  1.00  0.00    -0.234 OA 
BRANCH  14  15
HETATM   15  C   UNL     1      -9.333  10.298  65.134  1.00  0.00    -0.226 C  
HETATM   16  O   UNL     1      -9.333   9.144  65.531  1.00  0.00    -0.236 OA 
HETATM   17  N   UNL     1      -8.466  10.760  64.202  1.00  0.00    -0.362 N  
HETATM   18  H2  UNL     1      -8.419  11.725  63.875  1.00  0.00     0.000 HD 
HETATM   19  H1  UNL     1      -7.868  10.001  63.875  1.00  0.00     0.000 HD 
ENDBRANCH  14  15
ENDBRANCH  13  14
ENDBRANCH   4  13
BRANCH   5  20
HETATM   20  N   UNL     1     -10.455  16.113  69.872  1.00  0.00    -0.284 N  
HETATM   21  H   UNL     1     -10.461  16.829  70.598  1.00  0.00     0.000 HD 
HETATM   22  C   UNL     1     -10.769  14.840  70.383  1.00  0.00     0.078 C  
HETATM   23  O   UNL     1     -11.085  14.753  71.560  1.00  0.00    -0.093 OA 
BRANCH  22  24
HETATM   24  C   UNL     1     -10.543  13.558  69.598  1.00  0.00     0.425 C  
BRANCH  24  25
HETATM   25  C   UNL     1     -11.580  12.533  69.571  1.00  0.00    -0.281 A  
HETATM   26  O   UNL     1     -12.209  12.106  70.711  1.00  0.00    -0.377 OA 
HETATM   27  C   UNL     1     -11.901  11.660  68.538  1.00  0.00    -0.357 A  
HETATM   28  C   UNL     1     -12.814  10.920  70.417  1.00  0.00    -0.184 A  
HETATM   29  C   UNL     1     -12.643  10.596  69.093  1.00  0.00     0.532 A  
ENDBRANCH  24  25
BRANCH  24  30
HETATM   30  N   UNL     1      -9.422  13.160  69.075  1.00  0.00    -0.307 NA 
HETATM   31  H   UNL     1      -8.591  13.718  69.269  1.00  0.00     0.000 HD 
BRANCH  30  32
HETATM   32  O   UNL     1      -9.261  12.033  68.273  1.00  0.00    -0.189 OA 
HETATM   33  C   UNL     1      -8.142  11.189  68.412  1.00  0.00    -0.141 C  
ENDBRANCH  30  32
ENDBRANCH  24  30
ENDBRANCH  22  24
ENDBRANCH   5  20
TORSDOF 8
ENDMDL
MODEL      277
REMARK 921   NORMALIZED FREE ENERGY PREDICTED BY IDOCK:    0.55 KCAL/MOL
REMARK 922        TOTAL FREE ENERGY PREDICTED BY IDOCK:   -0.59 KCAL/MOL
REMARK 923 INTER-LIGAND FREE ENERGY PREDICTED BY IDOCK:    0.49 KCAL/MOL
REMARK 924 INTRA-LIGAND FREE ENERGY PREDICTED BY IDOCK:   -1.08 KCAL/MOL
REMARK 927      BINDING AFFINITY PREDICTED BY RF-SCORE:    0.00 PKD
ROOT
HETATM    1  C   UNL     1      -6.752  17.801  66.048  1.00  0.00    -0.281 C  
HETATM    2  S   UNL     1      -5.577  16.949  67.065  1.00  0.00    -0.151 SA 
HETATM    3  C   UNL     1      -6.385  15.362  67.412  1.00  0.00    -0.035 C  
HETATM    4  C   UNL     1      -7.708  15.056  66.769  1.00  0.00     0.174 C  
HETATM    5  CA  UNL     1      -7.515  19.191  66.276  1.00  0.00    -0.269 C  
HETATM    6  CA  UNL     1      -8.435  15.903  66.016  1.00  0.00     0.023 C  
HETATM    7  C   UNL     1      -8.676  18.393  65.620  1.00  0.00     0.737 C  
HETATM    8  C   UNL     1      -9.703  15.428  65.365  1.00  0.00    -0.215 C  
HETATM    9  N   UNL     1      -8.055  17.225  65.878  1.00  0.00    -0.135 N  
HETATM   10  OXT UNL     1      -9.796  14.299  64.909  1.00  0.00    -0.213 OA 
HETATM   11  O   UNL     1      -9.788  18.632  65.253  1.00  0.00     0.196 OA 
HETATM   12  O   UNL     1     -10.721  16.297  65.275  1.00  0.00    -0.459 OA 
ENDROOT
BRANCH   4  13
HETATM   13  C   UNL     1      -8.233  13.682  67.196  1.00  0.00    -0.107 C  
BRANCH  13  14
HETATM   14  O   UNL     1      -7.424  13.079  68.225  1.00  0.00    -0.109 OA 
BRANCH  14  15
HETATM   15  C   UNL     1      -7.693  11.798  68.542  1.00  0.00    -0.137 C  
HETATM   16  O   UNL     1      -6.898  10.961  68.939  1.00  0.00    -0.063 OA 
HETATM   17  N   UNL     1      -8.999  11.525  68.309  1.00  0.00    -0.172 N  
HETATM   18  H2  UNL     1      -9.679  12.193  67.946  1.00  0.00     0.000 HD 
HETATM   19  H1  UNL     1      -9.202  10.555  68.548  1.00  0.00     0.000 HD 
ENDBRANCH  14  15
ENDBRANCH  13  14
ENDBRANCH   4  13
BRANCH   5  20
HETATM   20  N   UNL     1      -8.023  19.946  67.489  1.00  0.00    -0.287 N  
HETATM   21  H   UNL     1      -7.962  20.956  67.363  1.00  0.00     0.000 HD 
HETATM   22  C   UNL     1      -8.558  19.602  68.745  1.00  0.00    -0.236 C  
HETATM   23  O   UNL     1      -8.952  20.502  69.470  1.00  0.00     0.872 OA 
BRANCH  22  24
HETATM   24  C   UNL     1      -8.485  18.194  69.312  1.00  0.00     0.284 C  
BRANCH  24  25
HETATM   25  C   UNL     1      -9.661  17.333  69.266  1.00  0.00    -0.030 A  
HETATM   26  O   UNL     1     -10.353  17.109  68.105  1.00  0.00    -0.312 OA 
HETATM   27  C   UNL     1     -10.417  16.849  70.329  1.00  0.00     0.416 A  
HETATM   28  C   UNL     1     -11.571  16.603  68.452  1.00  0.00     0.121 A  
HETATM   29  C   UNL     1     -11.664  16.437  69.812  1.00  0.00     0.094 A  
ENDBRANCH  24  25
BRANCH  24  30
HETATM   30  N   UNL     1      -7.523  17.700  70.033  1.00  0.00     1.113 NA 
HETATM   31  H   UNL     1      -7.764  16.959  70.690  1.00  0.00     0.000 HD 
BRANCH  30  32
HETATM   32  O   UNL     1      -6.190  18.100  69.983  1.00  0.00    -0.179 OA 
HETATM   33  C   UNL     1      -5.373  18.067  71.129  1.00  0.00    -0.150 C  
ENDBRANCH  30  32
ENDBRANCH  24  30
ENDBRANCH  22  24
ENDBRANCH   5  20
TORSDOF 8
ENDMDL
MODEL      278
REMARK 921   NORMALIZED FREE ENERGY PREDICTED BY IDOCK:    0.61 KCAL/MOL
REMARK 922        TOTAL FREE ENERGY PREDICTED BY IDOCK:   -0.49 KCAL/MOL
REMARK 923 INTER-LIGAND FREE ENERGY PREDICTED BY IDOCK:   -1.10 KCAL/MOL
REMARK 924 INTRA-LIGAND FREE ENERGY PREDICTED BY IDOCK:    0.61 KCAL/MOL
REMARK 927      BINDING AFFINITY PREDICTED BY RF-SCORE:    0.00 PKD
ROOT
HETATM    1  C   UNL     1     -11.185  15.143  66.384  1.00  0.00    -0.277 C  
HETATM    2  S   UNL     1     -10.632  14.148  65.025  1.00  0.00    -0.437 SA 
HETATM    3  C   UNL     1      -9.060  13.459  65.613  1.00  0.00     0.637 C  
HETATM    4  C   UNL     1      -8.613  13.746  67.018  1.00  0.00    -0.182 C  
HETATM    5  CA  UNL     1     -11.489  16.713  66.472  1.00  0.00     0.866 C  
HETATM    6  CA  UNL     1      -9.223  14.573  67.888  1.00  0.00    -0.196 C  
HETATM    7  C   UNL     1     -10.838  16.524  67.871  1.00  0.00    -0.326 C  
HETATM    8  C   UNL     1      -8.707  14.695  69.294  1.00  0.00     0.037 C  
HETATM    9  N   UNL     1     -10.291  15.353  67.487  1.00  0.00    -0.259 N  
HETATM   10  OXT UNL     1      -8.270  13.726  69.895  1.00  0.00     1.083 OA 
HETATM   11  O   UNL     1     -10.649  17.206  68.834  1.00  0.00    -0.337 OA 
HETATM   12  O   UNL     1      -8.770  15.901  69.879  1.00  0.00     0.046 OA 
ENDROOT
BRANCH   4  13
HETATM   13  C   UNL     1      -7.261  13.092  67.319  1.00  0.00    -0.032 C  
BRANCH  13  14
HETATM   14  O   UNL     1      -7.279  11.667  67.103  1.00  0.00    -0.127 OA 
BRANCH  14  15
HETATM   15  C   UNL     1      -6.808  10.892  68.099  1.00  0.00    -0.067 C  
HETATM   16  O   UNL     1      -6.882   9.676  68.176  1.00  0.00    -0.068 OA 
HETATM   17  N   UNL     1      -6.263  11.663  69.070  1.00  0.00    -0.060 N  
HETATM   18  H2  UNL     1      -6.216  12.682  69.050  1.00  0.00     0.000 HD 
HETATM   19  H1  UNL     1      -5.907  11.076  69.824  1.00  0.00     0.000 HD 
ENDBRANCH  14  15
ENDBRANCH  13  14
ENDBRANCH   4  13
BRANCH   5  20
HETATM   20  N   UNL     1     -10.927  17.951  65.800  1.00  0.00     0.042 N  
HETATM   21  H   UNL     1     -11.313  18.087  64.866  1.00  0.00     0.000 HD 
HETATM   22  C   UNL     1     -10.007  18.960  66.142  1.00  0.00    -0.356 C  
HETATM   23  O   UNL     1      -9.849  19.885  65.361  1.00  0.00    -0.251 OA 
BRANCH  22  24
HETATM   24  C   UNL     1      -9.070  18.849  67.333  1.00  0.00    -0.279 C  
BRANCH  24  25
HETATM   25  C   UNL     1      -7.761  18.226  67.170  1.00  0.00    -0.221 A  
HETATM   26  O   UNL     1      -6.717  18.497  68.015  1.00  0.00    -0.210 OA 
HETATM   27  C   UNL     1      -7.269  17.532  66.070  1.00  0.00    -0.298 A  
HETATM   28  C   UNL     1      -5.577  18.083  67.392  1.00  0.00    -0.135 A  
HETATM   29  C   UNL     1      -5.863  17.493  66.185  1.00  0.00    -0.225 A  
ENDBRANCH  24  25
BRANCH  24  30
HETATM   30  N   UNL     1      -9.369  19.081  68.577  1.00  0.00    -0.358 NA 
HETATM   31  H   UNL     1      -8.902  18.514  69.284  1.00  0.00     0.000 HD 
BRANCH  30  32
HETATM   32  O   UNL     1     -10.276  20.040  69.023  1.00  0.00    -0.401 OA 
HETATM   33  C   UNL     1     -10.298  20.455  70.369  1.00  0.00     1.285 C  
ENDBRANCH  30  32
ENDBRANCH  24  30
ENDBRANCH  22  24
ENDBRANCH   5  20
TORSDOF 8
ENDMDL
MODEL      279
REMARK 921   NORMALIZED FREE ENERGY PREDICTED BY IDOCK:    2.09 KCAL/MOL
REMARK 922        TOTAL FREE ENERGY PREDICTED BY IDOCK:    1.67 KCAL/MOL
REMARK 923 INTER-LIGAND FREE ENERGY PREDICTED BY IDOCK:    0.97 KCAL/MOL
REMARK 924 INTRA-LIGAND FREE ENERGY PREDICTED BY IDOCK:    0.70 KCAL/MOL
REMARK 927      BINDING AFFINITY PREDICTED BY RF-SCORE:    0.00 PKD
ROOT
HETATM    1  C   UNL     1      -8.971  13.578  68.245  1.00  0.00    -0.180 C  
HETATM    2  S   UNL     1      -9.758  14.101  69.744  1.00  0.00     1.084 SA 
HETATM    3  C   UNL     1     -11.083  12.883  69.977  1.00  0.00     0.466 C  
HETATM    4  C   UNL     1     -11.197  11.730  69.020  1.00  0.00    -0.324 C  
HETATM    5  CA  UNL     1      -8.776  14.337  66.848  1.00  0.00    -0.179 C  
HETATM    6  CA  UNL     1     -10.459  11.551  67.908  1.00  0.00    -0.184 C  
HETATM    7  C   UNL     1      -9.052  12.910  66.299  1.00  0.00    -0.007 C  
HETATM    8  C   UNL     1     -10.626  10.301  67.091  1.00  0.00    -0.260 C  
HETATM    9  N   UNL     1      -9.584  12.531  67.478  1.00  0.00    -0.183 N  
HETATM   10  OXT UNL     1     -10.829   9.220  67.622  1.00  0.00    -0.250 OA 
HETATM   11  O   UNL     1      -9.053  12.383  65.226  1.00  0.00     0.250 OA 
HETATM   12  O   UNL     1     -10.517  10.408  65.758  1.00  0.00    -0.210 OA 
ENDROOT
BRANCH   4  13
HETATM   13  C   UNL     1     -12.381  10.825  69.374  1.00  0.00    -0.062 C  
BRANCH  13  14
HETATM   14  O   UNL     1     -12.052   9.863  70.395  1.00  0.00    -0.238 OA 
BRANCH  14  15
HETATM   15  C   UNL     1     -11.179  10.252  71.343  1.00  0.00     0.249 C  
HETATM   16  O   UNL     1     -11.318  11.174  72.132  1.00  0.00     2.992 OA 
HETATM   17  N   UNL     1     -10.057   9.496  71.281  1.00  0.00    -0.244 N  
HETATM   18  H2  UNL     1      -9.897   8.742  70.613  1.00  0.00     0.000 HD 
HETATM   19  H1  UNL     1      -9.396   9.791  71.999  1.00  0.00     0.000 HD 
ENDBRANCH  14  15
ENDBRANCH  13  14
ENDBRANCH   4  13
BRANCH   5  20
HETATM   20  N   UNL     1      -9.578  15.360  66.065  1.00  0.00    -0.323 N  
HETATM   21  H   UNL     1     -10.187  14.920  65.375  1.00  0.00     0.000 HD 
HETATM   22  C   UNL     1      -9.691  16.762  66.052  1.00  0.00    -0.259 C  
HETATM   23  O   UNL     1     -10.528  17.266  65.318  1.00  0.00    -0.661 OA 
BRANCH  22  24
HETATM   24  C   UNL     1      -8.699  17.675  66.753  1.00  0.00    -0.258 C  
BRANCH  24  25
HETATM   25  C   UNL     1      -7.601  18.268  65.998  1.00  0.00    -0.194 A  
HETATM   26  O   UNL     1      -7.799  19.291  65.109  1.00  0.00    -0.012 OA 
HETATM   27  C   UNL     1      -6.312  17.775  65.822  1.00  0.00    -0.214 A  
HETATM   28  C   UNL     1      -6.694  19.353  64.313  1.00  0.00     0.850 A  
HETATM   29  C   UNL     1      -5.754  18.430  64.704  1.00  0.00    -0.073 A  
ENDBRANCH  24  25
BRANCH  24  30
HETATM   30  N   UNL     1      -8.589  17.857  68.035  1.00  0.00    -0.249 NA 
HETATM   31  H   UNL     1      -8.182  17.099  68.582  1.00  0.00     0.000 HD 
BRANCH  30  32
HETATM   32  O   UNL     1      -8.982  19.002  68.724  1.00  0.00    -0.347 OA 
HETATM   33  C   UNL     1      -8.869  20.280  68.143  1.00  0.00    -0.009 C  
ENDBRANCH  30  32
ENDBRANCH  24  30
ENDBRANCH  22  24
ENDBRANCH   5  20
TORSDOF 8
ENDMDL
MODEL      280
REMARK 921   NORMALIZED FREE ENERGY PREDICTED BY IDOCK:    2.70 KCAL/MOL
REMARK 922        TOTAL FREE ENERGY PREDICTED BY IDOCK:    2.57 KCAL/MOL
REMARK 923 INTER-LIGAND FREE ENERGY PREDICTED BY IDOCK:    2.58 KCAL/MOL
REMARK 924 INTRA-LIGAND FREE ENERGY PREDICTED BY IDOCK:   -0.01 KCAL/MOL
REMARK 927      BINDING AFFINITY PREDICTED BY RF-SCORE:    0.00 PKD
ROOT
HETATM    1  C   UNL     1      -9.792  14.031  69.284  1.00  0.00     0.246 C  
HETATM    2  S   UNL     1      -9.964  15.789  69.144  1.00  0.00    -0.258 SA 
HETATM    3  C   UNL     1     -10.877  16.006  67.592  1.00  0.00    -0.311 C  
HETATM    4  C   UNL     1     -11.352  14.793  66.844  1.00  0.00    -0.358 C  
HETATM    5  CA  UNL     1      -8.481  13.113  69.356  1.00  0.00     1.096 C  
HETATM    6  CA  UNL     1     -11.075  13.513  67.158  1.00  0.00    -0.293 C  
HETATM    7  C   UNL     1      -9.364  12.187  68.474  1.00  0.00    -0.106 C  
HETATM    8  C   UNL     1     -11.692  12.397  66.365  1.00  0.00    -0.391 C  
HETATM    9  N   UNL     1     -10.184  13.214  68.171  1.00  0.00    -0.234 N  
HETATM   10  OXT UNL     1     -12.839  12.473  65.949  1.00  0.00    -0.197 OA 
HETATM   11  O   UNL     1      -9.271  11.089  68.012  1.00  0.00    -0.150 OA 
HETATM   12  O   UNL     1     -10.952  11.298  66.152  1.00  0.00    -0.266 OA 
ENDROOT
BRANCH   4  13
HETATM   13  C   UNL     1     -12.086  15.181  65.557  1.00  0.00     0.194 C  
BRANCH  13  14
HETATM   14  O   UNL     1     -11.786  14.294  64.462  1.00  0.00    -0.408 OA 
BRANCH  14  15
HETATM   15  C   UNL     1     -10.575  14.420  63.887  1.00  0.00     1.465 C  
HETATM   16  O   UNL     1      -9.952  15.457  63.715  1.00  0.00     2.498 OA 
HETATM   17  N   UNL     1     -10.135  13.214  63.458  1.00  0.00    -0.037 N  
HETATM   18  H2  UNL     1     -10.647  12.337  63.556  1.00  0.00     0.000 HD 
HETATM   19  H1  UNL     1      -9.218  13.310  63.021  1.00  0.00     0.000 HD 
ENDBRANCH  14  15
ENDBRANCH  13  14
ENDBRANCH   4  13
BRANCH   5  20
HETATM   20  N   UNL     1      -7.081  13.199  68.779  1.00  0.00    -0.103 N  
HETATM   21  H   UNL     1      -6.691  12.278  68.583  1.00  0.00     0.000 HD 
HETATM   22  C   UNL     1      -6.185  14.233  68.448  1.00  0.00    -0.103 C  
HETATM   23  O   UNL     1      -5.133  13.931  67.907  1.00  0.00    -0.156 OA 
BRANCH  22  24
HETATM   24  C   UNL     1      -6.380  15.669  68.905  1.00  0.00    -0.114 C  
BRANCH  24  25
HETATM   25  C   UNL     1      -6.757  16.693  67.937  1.00  0.00    -0.142 A  
HETATM   26  O   UNL     1      -7.383  17.852  68.313  1.00  0.00    -0.231 OA 
HETATM   27  C   UNL     1      -6.821  16.587  66.552  1.00  0.00    -0.042 A  
HETATM   28  C   UNL     1      -7.931  18.397  67.189  1.00  0.00    -0.231 A  
HETATM   29  C   UNL     1      -7.624  17.647  66.080  1.00  0.00    -0.256 A  
ENDBRANCH  24  25
BRANCH  24  30
HETATM   30  N   UNL     1      -6.058  16.161  70.064  1.00  0.00    -0.176 NA 
HETATM   31  H   UNL     1      -5.885  17.165  70.114  1.00  0.00     0.000 HD 
BRANCH  30  32
HETATM   32  O   UNL     1      -5.929  15.431  71.243  1.00  0.00     0.230 OA 
HETATM   33  C   UNL     1      -5.697  16.070  72.477  1.00  0.00     1.411 C  
ENDBRANCH  30  32
ENDBRANCH  24  30
ENDBRANCH  22  24
ENDBRANCH   5  20
TORSDOF 8
ENDMDL
MODEL      281
REMARK 921   NORMALIZED FREE ENERGY PREDICTED BY IDOCK:    7.55 KCAL/MOL
REMARK 922        TOTAL FREE ENERGY PREDICTED BY IDOCK:    9.69 KCAL/MOL
REMARK 923 INTER-LIGAND FREE ENERGY PREDICTED BY IDOCK:    2.14 KCAL/MOL
REMARK 924 INTRA-LIGAND FREE ENERGY PREDICTED BY IDOCK:    7.54 KCAL/MOL
REMARK 927      BINDING AFFINITY PREDICTED BY RF-SCORE:    0.00 PKD
ROOT
HETATM    1  C   UNL     1     -12.942  12.800  67.403  1.00  0.00     2.807 C  
HETATM    2  S   UNL     1     -12.872  13.844  68.834  1.00  0.00     1.555 SA 
HETATM    3  C   UNL     1     -12.119  15.372  68.211  1.00  0.00     0.065 C  
HETATM    4  C   UNL     1     -11.816  15.497  66.745  1.00  0.00     0.377 C  
HETATM    5  CA  UNL     1     -12.278  11.371  67.120  1.00  0.00     1.222 C  
HETATM    6  CA  UNL     1     -11.954  14.524  65.824  1.00  0.00    -0.306 C  
HETATM    7  C   UNL     1     -12.091  11.997  65.710  1.00  0.00     0.070 C  
HETATM    8  C   UNL     1     -11.693  14.820  64.375  1.00  0.00    -0.336 C  
HETATM    9  N   UNL     1     -12.282  13.236  66.205  1.00  0.00    -0.401 N  
HETATM   10  OXT UNL     1     -12.009  15.892  63.881  1.00  0.00    -0.730 OA 
HETATM   11  O   UNL     1     -11.694  11.624  64.646  1.00  0.00    -0.213 OA 
HETATM   12  O   UNL     1     -11.129  13.856  63.632  1.00  0.00     0.263 OA 
ENDROOT
BRANCH   4  13
HETATM   13  C   UNL     1     -11.172  16.848  66.419  1.00  0.00     0.551 C  
BRANCH  13  14
HETATM   14  O   UNL     1      -9.739  16.826  66.572  1.00  0.00    -0.255 OA 
BRANCH  14  15
HETATM   15  C   UNL     1      -9.247  16.142  67.623  1.00  0.00    -0.205 C  
HETATM   16  O   UNL     1      -9.619  16.218  68.784  1.00  0.00    -0.222 OA 
HETATM   17  N   UNL     1      -8.211  15.364  67.227  1.00  0.00    -0.179 N  
HETATM   18  H2  UNL     1      -7.856  15.305  66.273  1.00  0.00     0.000 HD 
HETATM   19  H1  UNL     1      -7.838  14.847  68.023  1.00  0.00     0.000 HD 
ENDBRANCH  14  15
ENDBRANCH  13  14
ENDBRANCH   4  13
BRANCH   5  20
HETATM   20  N   UNL     1     -11.000  10.680  67.556  1.00  0.00    -0.300 N  
HETATM   21  H   UNL     1     -10.351  10.553  66.779  1.00  0.00     0.000 HD 
HETATM   22  C   UNL     1     -10.486  10.170  68.762  1.00  0.00    -0.204 C  
HETATM   23  O   UNL     1      -9.344   9.737  68.765  1.00  0.00    -0.143 OA 
BRANCH  22  24
HETATM   24  C   UNL     1     -11.344   9.956  69.998  1.00  0.00    -0.249 C  
BRANCH  24  25
HETATM   25  C   UNL     1     -11.687  11.091  70.848  1.00  0.00    -0.082 A  
HETATM   26  O   UNL     1     -12.488  10.957  71.951  1.00  0.00    -0.233 OA 
HETATM   27  C   UNL     1     -11.533  12.446  70.578  1.00  0.00     0.489 A  
HETATM   28  C   UNL     1     -12.922  12.204  72.289  1.00  0.00     0.014 A  
HETATM   29  C   UNL     1     -12.371  13.155  71.464  1.00  0.00    -0.049 A  
ENDBRANCH  24  25
BRANCH  24  30
HETATM   30  N   UNL     1     -11.673   8.813  70.522  1.00  0.00    -0.453 NA 
HETATM   31  H   UNL     1     -11.373   7.971  70.033  1.00  0.00     0.000 HD 
BRANCH  30  32
HETATM   32  O   UNL     1     -12.402   8.644  71.697  1.00  0.00    -0.303 OA 
HETATM   33  C   UNL     1     -13.568   9.393  71.948  1.00  0.00    -0.410 C  
ENDBRANCH  30  32
ENDBRANCH  24  30
ENDBRANCH  22  24
ENDBRANCH   5  20
TORSDOF 8
ENDMDL
MODEL      282
REMARK 921   NORMALIZED FREE ENERGY PREDICTED BY IDOCK:   32.15 KCAL/MOL
REMARK 922        TOTAL FREE ENERGY PREDICTED BY IDOCK:   45.79 KCAL/MOL
REMARK 923 INTER-LIGAND FREE ENERGY PREDICTED BY IDOCK:   45.76 KCAL/MOL
REMARK 924 INTRA-LIGAND FREE ENERGY PREDICTED BY IDOCK:    0.03 KCAL/MOL
REMARK 927      BINDING AFFINITY PREDICTED BY RF-SCORE:    0.00 PKD
ROOT
HETATM    1  C   UNL     1      -6.157  18.355  67.194  1.00  0.00    -0.164 C  
HETATM    2  S   UNL     1      -6.158  18.106  68.949  1.00  0.00    -0.217 SA 
HETATM    3  C   UNL     1      -6.879  16.453  69.145  1.00  0.00    -0.210 C  
HETATM    4  C   UNL     1      -7.216  15.649  67.921  1.00  0.00    -0.152 C  
HETATM    5  CA  UNL     1      -6.873  19.473  66.298  1.00  0.00    -0.220 C  
HETATM    6  CA  UNL     1      -7.132  16.077  66.647  1.00  0.00     0.088 C  
HETATM    7  C   UNL     1      -7.077  18.255  65.355  1.00  0.00     0.129 C  
HETATM    8  C   UNL     1      -7.421  15.130  65.517  1.00  0.00     6.098 C  
HETATM    9  N   UNL     1      -6.835  17.398  66.367  1.00  0.00    -0.249 N  
HETATM   10  OXT UNL     1      -7.086  13.957  65.573  1.00  0.00     6.095 OA 
HETATM   11  O   UNL     1      -7.513  18.078  64.256  1.00  0.00     3.989 OA 
HETATM   12  O   UNL     1      -8.035  15.623  64.431  1.00  0.00     7.545 OA 
ENDROOT
BRANCH   4  13
HETATM   13  C   UNL     1      -7.825  14.294  68.292  1.00  0.00    -0.141 C  
BRANCH  13  14
HETATM   14  O   UNL     1      -8.003  14.142  69.714  1.00  0.00     0.398 OA 
BRANCH  14  15
HETATM   15  C   UNL     1      -7.708  12.938  70.242  1.00  0.00     2.999 C  
HETATM   16  O   UNL     1      -7.079  12.723  71.267  1.00  0.00     2.950 OA 
HETATM   17  N   UNL     1      -8.168  11.952  69.436  1.00  0.00    -0.044 N  
HETATM   18  H2  UNL     1      -8.666  12.099  68.558  1.00  0.00     0.000 HD 
HETATM   19  H1  UNL     1      -7.944  11.040  69.835  1.00  0.00     0.000 HD 
ENDBRANCH  14  15
ENDBRANCH  13  14
ENDBRANCH   4  13
BRANCH   5  20
HETATM   20  N   UNL     1      -8.160  20.269  66.406  1.00  0.00    -0.507 N  
HETATM   21  H   UNL     1      -8.311  20.863  65.591  1.00  0.00     0.000 HD 
HETATM   22  C   UNL     1      -9.198  20.392  67.349  1.00  0.00    -0.383 C  
HETATM   23  O   UNL     1     -10.157  21.091  67.061  1.00  0.00    -0.116 OA 
BRANCH  22  24
HETATM   24  C   UNL     1      -9.088  19.859  68.768  1.00  0.00    -0.072 C  
BRANCH  24  25
HETATM   25  C   UNL     1     -10.222  19.169  69.372  1.00  0.00     0.167 A  
HETATM   26  O   UNL     1     -10.056  18.170  70.295  1.00  0.00     0.931 OA 
HETATM   27  C   UNL     1     -11.551  19.176  68.965  1.00  0.00     3.711 A  
HETATM   28  C   UNL     1     -11.235  17.489  70.370  1.00  0.00     1.785 A  
HETATM   29  C   UNL     1     -12.185  18.063  69.559  1.00  0.00     7.521 A  
ENDBRANCH  24  25
BRANCH  24  30
HETATM   30  N   UNL     1      -8.138  20.114  69.618  1.00  0.00     0.482 NA 
HETATM   31  H   UNL     1      -7.941  19.407  70.325  1.00  0.00     0.000 HD 
BRANCH  30  32
HETATM   32  O   UNL     1      -7.366  21.273  69.641  1.00  0.00     2.197 OA 
HETATM   33  C   UNL     1      -5.991  21.230  69.945  1.00  0.00     1.149 C  
ENDBRANCH  30  32
ENDBRANCH  24  30
ENDBRANCH  22  24
ENDBRANCH   5  20
TORSDOF 8
ENDMDL
MODEL      283
REMARK 921   NORMALIZED FREE ENERGY PREDICTED BY IDOCK:   41.45 KCAL/MOL
REMARK 922        TOTAL FREE ENERGY PREDICTED BY IDOCK:   59.44 KCAL/MOL
REMARK 923 INTER-LIGAND FREE ENERGY PREDICTED BY IDOCK:   56.37 KCAL/MOL
REMARK 924 INTRA-LIGAND FREE ENERGY PREDICTED BY IDOCK:    3.07 KCAL/MOL
REMARK 927      BINDING AFFINITY PREDICTED BY RF-SCORE:    0.00 PKD
ROOT
HETATM    1  C   UNL     1      -5.298  18.327  66.384  1.00  0.00    -0.149 C  
HETATM    2  S   UNL     1      -5.299  18.078  68.139  1.00  0.00    -0.157 SA 
HETATM    3  C   UNL     1      -6.021  16.425  68.335  1.00  0.00    -0.119 C  
HETATM    4  C   UNL     1      -6.357  15.621  67.111  1.00  0.00     0.079 C  
HETATM    5  CA  UNL     1      -6.014  19.445  65.488  1.00  0.00    -0.198 C  
HETATM    6  CA  UNL     1      -6.273  16.049  65.837  1.00  0.00     3.395 C  
HETATM    7  C   UNL     1      -6.218  18.227  64.545  1.00  0.00     0.797 C  
HETATM    8  C   UNL     1      -6.562  15.102  64.707  1.00  0.00    16.167 C  
HETATM    9  N   UNL     1      -5.976  17.370  65.557  1.00  0.00     0.298 N  
HETATM   10  OXT UNL     1      -6.227  13.929  64.763  1.00  0.00    14.444 OA 
HETATM   11  O   UNL     1      -6.654  18.050  63.447  1.00  0.00     4.307 OA 
HETATM   12  O   UNL     1      -7.176  15.595  63.621  1.00  0.00    16.538 OA 
ENDROOT
BRANCH   4  13
HETATM   13  C   UNL     1      -6.967  14.266  67.483  1.00  0.00    -0.155 C  
BRANCH  13  14
HETATM   14  O   UNL     1      -7.803  13.734  66.437  1.00  0.00     0.820 OA 
BRANCH  14  15
HETATM   15  C   UNL     1      -9.066  14.197  66.369  1.00  0.00    -0.114 C  
HETATM   16  O   UNL     1     -10.013  13.843  67.054  1.00  0.00    -0.248 OA 
HETATM   17  N   UNL     1      -9.175  15.106  65.371  1.00  0.00    -0.207 N  
HETATM   18  H2  UNL     1      -8.411  15.398  64.760  1.00  0.00     0.000 HD 
HETATM   19  H1  UNL     1     -10.131  15.457  65.319  1.00  0.00     0.000 HD 
ENDBRANCH  14  15
ENDBRANCH  13  14
ENDBRANCH   4  13
BRANCH   5  20
HETATM   20  N   UNL     1      -7.301  20.241  65.596  1.00  0.00    -0.496 N  
HETATM   21  H   UNL     1      -7.452  20.835  64.781  1.00  0.00     0.000 HD 
HETATM   22  C   UNL     1      -8.339  20.364  66.539  1.00  0.00    -0.118 C  
HETATM   23  O   UNL     1      -9.299  21.063  66.252  1.00  0.00     0.424 OA 
BRANCH  22  24
HETATM   24  C   UNL     1      -8.230  19.831  67.958  1.00  0.00    -0.300 C  
BRANCH  24  25
HETATM   25  C   UNL     1      -9.363  19.141  68.563  1.00  0.00    -0.374 A  
HETATM   26  O   UNL     1     -10.085  19.690  69.589  1.00  0.00    -0.258 OA 
HETATM   27  C   UNL     1      -9.723  17.804  68.437  1.00  0.00    -0.333 A  
HETATM   28  C   UNL     1     -10.794  18.680  70.169  1.00  0.00     2.374 A  
HETATM   29  C   UNL     1     -10.594  17.495  69.504  1.00  0.00     0.204 A  
ENDBRANCH  24  25
BRANCH  24  30
HETATM   30  N   UNL     1      -7.279  20.086  68.808  1.00  0.00    -0.260 NA 
HETATM   31  H   UNL     1      -7.083  19.379  69.515  1.00  0.00     0.000 HD 
BRANCH  30  32
HETATM   32  O   UNL     1      -6.507  21.245  68.831  1.00  0.00     0.262 OA 
HETATM   33  C   UNL     1      -5.133  21.202  69.135  1.00  0.00    -0.249 C  
ENDBRANCH  30  32
ENDBRANCH  24  30
ENDBRANCH  22  24
ENDBRANCH   5  20
TORSDOF 8
ENDMDL
