MODEL        1
REMARK 921   NORMALIZED FREE ENERGY PREDICTED BY IDOCK:   -8.55 KCAL/MOL
REMARK 922        TOTAL FREE ENERGY PREDICTED BY IDOCK:  -10.72 KCAL/MOL
REMARK 923 INTER-LIGAND FREE ENERGY PREDICTED BY IDOCK:  -10.05 KCAL/MOL
REMARK 924 INTRA-LIGAND FREE ENERGY PREDICTED BY IDOCK:   -0.67 KCAL/MOL
REMARK 927      BINDING AFFINITY PREDICTED BY RF-SCORE:    0.00 PKD
ROOT
HETATM    1  C   UNL     1     -13.337  13.817  72.344  1.00  0.00    -0.635 C  
HETATM    2  C   UNL     1     -12.503  14.471  71.283  1.00  0.00    -0.416 A  
HETATM    3  C   UNL     1     -11.753  15.613  71.569  1.00  0.00    -0.504 A  
HETATM    4  C   UNL     1     -11.135  16.331  70.541  1.00  0.00    -0.293 A  
HETATM    5  C   UNL     1     -11.247  15.922  69.205  1.00  0.00    -0.335 A  
HETATM    6  C   UNL     1     -12.535  14.000  69.967  1.00  0.00    -0.339 A  
HETATM    7  C   UNL     1     -11.873  14.694  68.948  1.00  0.00    -0.344 A  
ENDROOT
BRANCH   5   8
HETATM    8  C   UNL     1     -10.749  16.799  68.129  1.00  0.00    -0.361 A  
HETATM    9  C   UNL     1     -10.653  18.182  68.140  1.00  0.00    -0.320 A  
HETATM   10  C   UNL     1     -10.071  18.564  66.912  1.00  0.00    -0.370 A  
HETATM   11  N   UNL     1      -9.749  17.478  66.190  1.00  0.00    -0.465 NA 
HETATM   12  C   UNL     1      -9.813  19.969  66.437  1.00  0.00    -0.459 C  
HETATM   13  F   UNL     1     -10.208  20.890  67.362  1.00  0.00    -0.512 F  
HETATM   14  F   UNL     1      -8.499  20.209  66.193  1.00  0.00    -0.339 F  
HETATM   15  N   UNL     1     -10.308  16.425  66.851  1.00  0.00    -0.297 NA 
HETATM   16  F   UNL     1     -10.493  20.260  65.297  1.00  0.00    -0.491 F  
BRANCH  15  17
HETATM   17  C   UNL     1     -10.372  15.167  66.175  1.00  0.00    -0.301 A  
HETATM   18  C   UNL     1     -11.328  14.983  65.160  1.00  0.00    -0.372 A  
HETATM   19  C   UNL     1     -11.339  13.803  64.408  1.00  0.00    -0.375 A  
HETATM   20  C   UNL     1     -10.403  12.804  64.682  1.00  0.00    -0.338 A  
HETATM   21  C   UNL     1      -9.511  12.938  65.748  1.00  0.00    -0.002 A  
HETATM   22  C   UNL     1      -9.510  14.113  66.503  1.00  0.00    -0.303 A  
BRANCH  20  23
HETATM   23  S   UNL     1     -10.352  11.337  63.686  1.00  0.00    -0.429 S  
HETATM   24  O   UNL     1     -10.261  10.198  64.566  1.00  0.00    -0.256 OA 
HETATM   25  O   UNL     1      -9.434  11.558  62.590  1.00  0.00    -0.327 OA 
HETATM   26  N   UNL     1     -11.892  11.343  63.030  1.00  0.00    -0.867 N  
HETATM   27  H1  UNL     1     -11.862  10.499  62.458  1.00  0.00     0.000 HD 
HETATM   28  H2  UNL     1     -12.652  12.009  63.165  1.00  0.00     0.000 HD 
ENDBRANCH  20  23
ENDBRANCH  15  17
ENDBRANCH   5   8
TORSDOF 3
ENDMDL
MODEL        2
REMARK 921   NORMALIZED FREE ENERGY PREDICTED BY IDOCK:   -8.55 KCAL/MOL
REMARK 922        TOTAL FREE ENERGY PREDICTED BY IDOCK:  -10.72 KCAL/MOL
REMARK 923 INTER-LIGAND FREE ENERGY PREDICTED BY IDOCK:   -9.84 KCAL/MOL
REMARK 924 INTRA-LIGAND FREE ENERGY PREDICTED BY IDOCK:   -0.88 KCAL/MOL
REMARK 927      BINDING AFFINITY PREDICTED BY RF-SCORE:    0.00 PKD
ROOT
HETATM    1  C   UNL     1     -12.535  15.487  74.447  1.00  0.00    -0.768 C  
HETATM    2  C   UNL     1     -12.493  15.201  72.975  1.00  0.00    -0.528 A  
HETATM    3  C   UNL     1     -13.577  14.596  72.336  1.00  0.00    -0.555 A  
HETATM    4  C   UNL     1     -13.463  14.154  71.015  1.00  0.00    -0.232 A  
HETATM    5  C   UNL     1     -12.268  14.312  70.300  1.00  0.00    -0.407 A  
HETATM    6  C   UNL     1     -11.333  15.454  72.238  1.00  0.00    -0.421 A  
HETATM    7  C   UNL     1     -11.241  15.055  70.900  1.00  0.00    -0.268 A  
ENDROOT
BRANCH   5   8
HETATM    8  C   UNL     1     -12.115  13.669  68.981  1.00  0.00    -0.309 A  
HETATM    9  C   UNL     1     -12.276  14.251  67.733  1.00  0.00    -0.199 A  
HETATM   10  C   UNL     1     -11.974  13.259  66.775  1.00  0.00    -0.382 A  
HETATM   11  N   UNL     1     -11.572  12.131  67.382  1.00  0.00    -0.428 NA 
HETATM   12  C   UNL     1     -12.059  13.398  65.279  1.00  0.00    -0.413 C  
HETATM   13  F   UNL     1     -12.470  14.647  64.914  1.00  0.00    -0.412 F  
HETATM   14  F   UNL     1     -10.866  13.191  64.662  1.00  0.00    -0.298 F  
HETATM   15  N   UNL     1     -11.816  12.326  68.708  1.00  0.00    -0.317 NA 
HETATM   16  F   UNL     1     -12.950  12.531  64.730  1.00  0.00    -0.557 F  
BRANCH  15  17
HETATM   17  C   UNL     1     -11.749  11.193  69.577  1.00  0.00    -0.335 A  
HETATM   18  C   UNL     1     -12.865  10.873  70.371  1.00  0.00    -0.257 A  
HETATM   19  C   UNL     1     -12.868   9.708  71.145  1.00  0.00    -0.400 A  
HETATM   20  C   UNL     1     -11.750   8.872  71.134  1.00  0.00    -0.298 A  
HETATM   21  C   UNL     1     -10.602   9.229  70.424  1.00  0.00    -0.298 A  
HETATM   22  C   UNL     1     -10.599  10.398  69.660  1.00  0.00    -0.289 A  
BRANCH  20  23
HETATM   23  S   UNL     1     -11.768   7.350  72.047  1.00  0.00    -0.298 S  
HETATM   24  O   UNL     1     -11.148   7.586  73.328  1.00  0.00    -0.378 OA 
HETATM   25  O   UNL     1     -11.361   6.280  71.163  1.00  0.00    -0.294 OA 
HETATM   26  N   UNL     1     -13.409   7.157  72.311  1.00  0.00    -0.500 N  
HETATM   27  H1  UNL     1     -13.419   6.282  72.836  1.00  0.00     0.000 HD 
HETATM   28  H2  UNL     1     -14.187   7.751  72.025  1.00  0.00     0.000 HD 
ENDBRANCH  20  23
ENDBRANCH  15  17
ENDBRANCH   5   8
TORSDOF 3
ENDMDL
MODEL        3
REMARK 921   NORMALIZED FREE ENERGY PREDICTED BY IDOCK:   -8.47 KCAL/MOL
REMARK 922        TOTAL FREE ENERGY PREDICTED BY IDOCK:  -10.62 KCAL/MOL
REMARK 923 INTER-LIGAND FREE ENERGY PREDICTED BY IDOCK:   -9.58 KCAL/MOL
REMARK 924 INTRA-LIGAND FREE ENERGY PREDICTED BY IDOCK:   -1.04 KCAL/MOL
REMARK 927      BINDING AFFINITY PREDICTED BY RF-SCORE:    0.00 PKD
ROOT
HETATM    1  C   UNL     1     -10.854  11.752  64.409  1.00  0.00    -0.389 C  
HETATM    2  C   UNL     1     -11.228  12.271  65.766  1.00  0.00    -0.378 A  
HETATM    3  C   UNL     1     -12.059  13.385  65.897  1.00  0.00    -0.486 A  
HETATM    4  C   UNL     1     -12.249  13.984  67.146  1.00  0.00    -0.356 A  
HETATM    5  C   UNL     1     -11.617  13.481  68.292  1.00  0.00    -0.381 A  
HETATM    6  C   UNL     1     -10.677  11.703  66.918  1.00  0.00    -0.295 A  
HETATM    7  C   UNL     1     -10.911  12.276  68.173  1.00  0.00    -0.258 A  
ENDROOT
BRANCH   5   8
HETATM    8  C   UNL     1     -11.681  14.241  69.555  1.00  0.00    -0.316 A  
HETATM    9  C   UNL     1     -12.430  13.944  70.683  1.00  0.00    -0.436 A  
HETATM   10  C   UNL     1     -12.124  14.927  71.650  1.00  0.00    -0.351 A  
HETATM   11  N   UNL     1     -11.178  15.760  71.185  1.00  0.00    -0.353 NA 
HETATM   12  C   UNL     1     -12.729  15.059  73.022  1.00  0.00    -0.456 C  
HETATM   13  F   UNL     1     -13.646  14.078  73.261  1.00  0.00    -0.429 F  
HETATM   14  F   UNL     1     -11.806  14.972  74.015  1.00  0.00    -0.578 F  
HETATM   15  N   UNL     1     -11.034  15.445  69.867  1.00  0.00    -0.271 NA 
HETATM   16  F   UNL     1     -13.384  16.239  73.185  1.00  0.00    -0.563 F  
BRANCH  15  17
HETATM   17  C   UNL     1     -10.298  16.348  69.038  1.00  0.00    -0.278 A  
HETATM   18  C   UNL     1     -10.993  17.320  68.299  1.00  0.00    -0.188 A  
HETATM   19  C   UNL     1     -10.292  18.286  67.568  1.00  0.00    -0.415 A  
HETATM   20  C   UNL     1      -8.896  18.268  67.568  1.00  0.00    -0.253 A  
HETATM   21  C   UNL     1      -8.198  17.251  68.223  1.00  0.00    -0.237 A  
HETATM   22  C   UNL     1      -8.902  16.283  68.942  1.00  0.00    -0.253 A  
BRANCH  20  23
HETATM   23  S   UNL     1      -7.990  19.532  66.713  1.00  0.00    -0.303 S  
HETATM   24  O   UNL     1      -7.472  18.966  65.491  1.00  0.00    -0.484 OA 
HETATM   25  O   UNL     1      -7.160  20.229  67.670  1.00  0.00    -0.263 OA 
HETATM   26  N   UNL     1      -9.226  20.582  66.296  1.00  0.00    -0.611 N  
HETATM   27  H1  UNL     1      -8.705  21.308  65.805  1.00  0.00     0.000 HD 
HETATM   28  H2  UNL     1     -10.226  20.513  66.483  1.00  0.00     0.000 HD 
ENDBRANCH  20  23
ENDBRANCH  15  17
ENDBRANCH   5   8
TORSDOF 3
ENDMDL
MODEL        4
REMARK 921   NORMALIZED FREE ENERGY PREDICTED BY IDOCK:   -8.40 KCAL/MOL
REMARK 922        TOTAL FREE ENERGY PREDICTED BY IDOCK:  -10.54 KCAL/MOL
REMARK 923 INTER-LIGAND FREE ENERGY PREDICTED BY IDOCK:   -9.56 KCAL/MOL
REMARK 924 INTRA-LIGAND FREE ENERGY PREDICTED BY IDOCK:   -0.97 KCAL/MOL
REMARK 927      BINDING AFFINITY PREDICTED BY RF-SCORE:    0.00 PKD
ROOT
HETATM    1  C   UNL     1      -6.032  18.746  68.119  1.00  0.00    -0.214 C  
HETATM    2  C   UNL     1      -7.264  17.941  68.408  1.00  0.00    -0.256 A  
HETATM    3  C   UNL     1      -8.527  18.533  68.361  1.00  0.00    -0.352 A  
HETATM    4  C   UNL     1      -9.652  17.839  68.818  1.00  0.00    -0.290 A  
HETATM    5  C   UNL     1      -9.541  16.537  69.326  1.00  0.00    -0.176 A  
HETATM    6  C   UNL     1      -7.160  16.609  68.817  1.00  0.00    -0.194 A  
HETATM    7  C   UNL     1      -8.295  15.901  69.226  1.00  0.00    -0.238 A  
ENDROOT
BRANCH   5   8
HETATM    8  C   UNL     1     -10.705  15.904  69.974  1.00  0.00    -0.339 A  
HETATM    9  C   UNL     1     -11.082  15.990  71.305  1.00  0.00    -0.126 A  
HETATM   10  C   UNL     1     -12.286  15.264  71.440  1.00  0.00    -0.352 A  
HETATM   11  N   UNL     1     -12.688  14.802  70.244  1.00  0.00    -0.312 NA 
HETATM   12  C   UNL     1     -13.054  15.023  72.711  1.00  0.00    -0.453 C  
HETATM   13  F   UNL     1     -12.450  15.615  73.781  1.00  0.00    -0.476 F  
HETATM   14  F   UNL     1     -14.319  15.517  72.663  1.00  0.00    -0.575 F  
HETATM   15  N   UNL     1     -11.652  15.047  69.394  1.00  0.00    -0.296 NA 
HETATM   16  F   UNL     1     -13.151  13.701  73.013  1.00  0.00    -0.550 F  
BRANCH  15  17
HETATM   17  C   UNL     1     -11.673  14.418  68.110  1.00  0.00    -0.342 A  
HETATM   18  C   UNL     1     -11.723  13.014  68.037  1.00  0.00    -0.397 A  
HETATM   19  C   UNL     1     -11.857  12.377  66.799  1.00  0.00    -0.385 A  
HETATM   20  C   UNL     1     -11.928  13.145  65.635  1.00  0.00    -0.415 A  
HETATM   21  C   UNL     1     -11.786  14.533  65.688  1.00  0.00    -0.335 A  
HETATM   22  C   UNL     1     -11.641  15.164  66.926  1.00  0.00    -0.160 A  
BRANCH  20  23
HETATM   23  S   UNL     1     -12.179  12.357  64.065  1.00  0.00    -0.502 S  
HETATM   24  O   UNL     1     -13.512  11.806  64.045  1.00  0.00    -0.493 OA 
HETATM   25  O   UNL     1     -11.002  11.579  63.749  1.00  0.00    -0.375 OA 
HETATM   26  N   UNL     1     -12.168  13.681  63.040  1.00  0.00    -0.963 N  
HETATM   27  H1  UNL     1     -12.312  13.228  62.137  1.00  0.00     0.000 HD 
HETATM   28  H2  UNL     1     -12.049  14.670  63.258  1.00  0.00     0.000 HD 
ENDBRANCH  20  23
ENDBRANCH  15  17
ENDBRANCH   5   8
TORSDOF 3
ENDMDL
MODEL        5
REMARK 921   NORMALIZED FREE ENERGY PREDICTED BY IDOCK:   -8.33 KCAL/MOL
REMARK 922        TOTAL FREE ENERGY PREDICTED BY IDOCK:  -10.45 KCAL/MOL
REMARK 923 INTER-LIGAND FREE ENERGY PREDICTED BY IDOCK:   -9.41 KCAL/MOL
REMARK 924 INTRA-LIGAND FREE ENERGY PREDICTED BY IDOCK:   -1.04 KCAL/MOL
REMARK 927      BINDING AFFINITY PREDICTED BY RF-SCORE:    0.00 PKD
ROOT
HETATM    1  C   UNL     1     -10.258  10.381  65.006  1.00  0.00    -0.334 C  
HETATM    2  C   UNL     1     -10.463  11.443  66.045  1.00  0.00    -0.305 A  
HETATM    3  C   UNL     1      -9.567  11.583  67.106  1.00  0.00    -0.189 A  
HETATM    4  C   UNL     1      -9.861  12.437  68.174  1.00  0.00    -0.213 A  
HETATM    5  C   UNL     1     -11.054  13.173  68.203  1.00  0.00    -0.284 A  
HETATM    6  C   UNL     1     -11.605  12.249  66.018  1.00  0.00    -0.451 A  
HETATM    7  C   UNL     1     -11.870  13.139  67.064  1.00  0.00    -0.435 A  
ENDROOT
BRANCH   5   8
HETATM    8  C   UNL     1     -11.425  13.914  69.423  1.00  0.00    -0.280 A  
HETATM    9  C   UNL     1     -12.282  13.505  70.433  1.00  0.00    -0.426 A  
HETATM   10  C   UNL     1     -12.281  14.524  71.411  1.00  0.00    -0.358 A  
HETATM   11  N   UNL     1     -11.415  15.493  71.074  1.00  0.00    -0.348 NA 
HETATM   12  C   UNL     1     -13.101  14.561  72.672  1.00  0.00    -0.467 C  
HETATM   13  F   UNL     1     -13.883  13.450  72.795  1.00  0.00    -0.615 F  
HETATM   14  F   UNL     1     -12.337  14.618  73.795  1.00  0.00    -0.531 F  
HETATM   15  N   UNL     1     -11.025  15.205  69.800  1.00  0.00    -0.266 NA 
HETATM   16  F   UNL     1     -13.946  15.625  72.707  1.00  0.00    -0.568 F  
BRANCH  15  17
HETATM   17  C   UNL     1     -10.318  16.210  69.070  1.00  0.00    -0.258 A  
HETATM   18  C   UNL     1     -11.034  17.065  68.214  1.00  0.00    -0.269 A  
HETATM   19  C   UNL     1     -10.386  18.127  67.574  1.00  0.00    -0.405 A  
HETATM   20  C   UNL     1      -9.020  18.324  67.783  1.00  0.00    -0.267 A  
HETATM   21  C   UNL     1      -8.281  17.427  68.557  1.00  0.00    -0.268 A  
HETATM   22  C   UNL     1      -8.930  16.361  69.185  1.00  0.00    -0.197 A  
BRANCH  20  23
HETATM   23  S   UNL     1      -8.198  19.713  67.044  1.00  0.00    -0.302 S  
HETATM   24  O   UNL     1      -7.669  19.296  65.769  1.00  0.00    -0.427 OA 
HETATM   25  O   UNL     1      -7.393  20.361  68.056  1.00  0.00    -0.283 OA 
HETATM   26  N   UNL     1      -9.496  20.726  66.742  1.00  0.00    -0.665 N  
HETATM   27  H1  UNL     1      -9.024  21.524  66.317  1.00  0.00     0.000 HD 
HETATM   28  H2  UNL     1     -10.488  20.584  66.931  1.00  0.00     0.000 HD 
ENDBRANCH  20  23
ENDBRANCH  15  17
ENDBRANCH   5   8
TORSDOF 3
ENDMDL
MODEL        6
REMARK 921   NORMALIZED FREE ENERGY PREDICTED BY IDOCK:   -8.26 KCAL/MOL
REMARK 922        TOTAL FREE ENERGY PREDICTED BY IDOCK:  -10.37 KCAL/MOL
REMARK 923 INTER-LIGAND FREE ENERGY PREDICTED BY IDOCK:   -9.45 KCAL/MOL
REMARK 924 INTRA-LIGAND FREE ENERGY PREDICTED BY IDOCK:   -0.92 KCAL/MOL
REMARK 927      BINDING AFFINITY PREDICTED BY RF-SCORE:    0.00 PKD
ROOT
HETATM    1  C   UNL     1     -13.136  14.546  72.509  1.00  0.00    -0.518 C  
HETATM    2  C   UNL     1     -12.542  14.439  71.137  1.00  0.00    -0.422 A  
HETATM    3  C   UNL     1     -12.377  15.574  70.341  1.00  0.00    -0.451 A  
HETATM    4  C   UNL     1     -12.008  15.450  68.998  1.00  0.00    -0.313 A  
HETATM    5  C   UNL     1     -11.789  14.191  68.422  1.00  0.00    -0.388 A  
HETATM    6  C   UNL     1     -12.227  13.188  70.598  1.00  0.00    -0.402 A  
HETATM    7  C   UNL     1     -11.809  13.073  69.268  1.00  0.00    -0.370 A  
ENDROOT
BRANCH   5   8
HETATM    8  C   UNL     1     -11.589  14.080  66.965  1.00  0.00    -0.371 A  
HETATM    9  C   UNL     1     -12.060  13.087  66.120  1.00  0.00    -0.473 A  
HETATM   10  C   UNL     1     -11.661  13.437  64.811  1.00  0.00    -0.361 A  
HETATM   11  N   UNL     1     -11.033  14.624  64.817  1.00  0.00    -0.397 NA 
HETATM   12  C   UNL     1     -11.893  12.639  63.556  1.00  0.00    -0.541 C  
HETATM   13  F   UNL     1     -12.572  11.485  63.815  1.00  0.00    -0.441 F  
HETATM   14  F   UNL     1     -12.622  13.315  62.630  1.00  0.00    -0.254 F  
HETATM   15  N   UNL     1     -10.845  14.929  66.132  1.00  0.00    -0.321 NA 
HETATM   16  F   UNL     1     -10.729  12.269  62.959  1.00  0.00    -0.433 F  
BRANCH  15  17
HETATM   17  C   UNL     1      -9.955  16.001  66.452  1.00  0.00    -0.295 A  
HETATM   18  C   UNL     1     -10.399  17.327  66.306  1.00  0.00    -0.323 A  
HETATM   19  C   UNL     1      -9.590  18.391  66.717  1.00  0.00    -0.308 A  
HETATM   20  C   UNL     1      -8.332  18.127  67.262  1.00  0.00    -0.241 A  
HETATM   21  C   UNL     1      -7.844  16.820  67.325  1.00  0.00    -0.200 A  
HETATM   22  C   UNL     1      -8.651  15.761  66.903  1.00  0.00    -0.279 A  
BRANCH  20  23
HETATM   23  S   UNL     1      -7.326  19.460  67.863  1.00  0.00    -0.267 S  
HETATM   24  O   UNL     1      -5.974  19.243  67.408  1.00  0.00    -0.188 OA 
HETATM   25  O   UNL     1      -7.660  19.698  69.249  1.00  0.00    -0.336 OA 
HETATM   26  N   UNL     1      -7.949  20.746  66.992  1.00  0.00    -0.561 N  
HETATM   27  H1  UNL     1      -7.370  21.512  67.337  1.00  0.00     0.000 HD 
HETATM   28  H2  UNL     1      -8.701  20.760  66.304  1.00  0.00     0.000 HD 
ENDBRANCH  20  23
ENDBRANCH  15  17
ENDBRANCH   5   8
TORSDOF 3
ENDMDL
MODEL        7
REMARK 921   NORMALIZED FREE ENERGY PREDICTED BY IDOCK:   -8.13 KCAL/MOL
REMARK 922        TOTAL FREE ENERGY PREDICTED BY IDOCK:  -10.22 KCAL/MOL
REMARK 923 INTER-LIGAND FREE ENERGY PREDICTED BY IDOCK:   -9.49 KCAL/MOL
REMARK 924 INTRA-LIGAND FREE ENERGY PREDICTED BY IDOCK:   -0.73 KCAL/MOL
REMARK 927      BINDING AFFINITY PREDICTED BY RF-SCORE:    0.00 PKD
ROOT
HETATM    1  C   UNL     1      -7.639  19.965  66.983  1.00  0.00    -0.302 C  
HETATM    2  C   UNL     1      -8.494  18.733  66.941  1.00  0.00    -0.285 A  
HETATM    3  C   UNL     1      -8.054  17.542  67.520  1.00  0.00    -0.213 A  
HETATM    4  C   UNL     1      -8.757  16.351  67.312  1.00  0.00    -0.198 A  
HETATM    5  C   UNL     1      -9.918  16.325  66.526  1.00  0.00    -0.290 A  
HETATM    6  C   UNL     1      -9.704  18.735  66.242  1.00  0.00    -0.354 A  
HETATM    7  C   UNL     1     -10.431  17.551  66.079  1.00  0.00    -0.274 A  
ENDROOT
BRANCH   5   8
HETATM    8  C   UNL     1     -10.529  15.031  66.168  1.00  0.00    -0.305 A  
HETATM    9  C   UNL     1     -10.623  14.460  64.909  1.00  0.00    -0.456 A  
HETATM   10  C   UNL     1     -11.238  13.200  65.073  1.00  0.00    -0.298 A  
HETATM   11  N   UNL     1     -11.457  12.955  66.375  1.00  0.00    -0.323 NA 
HETATM   12  C   UNL     1     -11.605  12.229  63.984  1.00  0.00    -0.417 C  
HETATM   13  F   UNL     1     -11.258  12.702  62.753  1.00  0.00    -0.262 F  
HETATM   14  F   UNL     1     -10.986  11.026  64.121  1.00  0.00    -0.434 F  
HETATM   15  N   UNL     1     -11.182  14.125  67.017  1.00  0.00    -0.307 NA 
HETATM   16  F   UNL     1     -12.942  11.989  63.935  1.00  0.00    -0.564 F  
BRANCH  15  17
HETATM   17  C   UNL     1     -11.589  14.255  68.381  1.00  0.00    -0.320 A  
HETATM   18  C   UNL     1     -11.889  15.532  68.886  1.00  0.00    -0.357 A  
HETATM   19  C   UNL     1     -12.397  15.676  70.182  1.00  0.00    -0.366 A  
HETATM   20  C   UNL     1     -12.591  14.543  70.974  1.00  0.00    -0.340 A  
HETATM   21  C   UNL     1     -12.209  13.280  70.516  1.00  0.00    -0.416 A  
HETATM   22  C   UNL     1     -11.692  13.142  69.226  1.00  0.00    -0.376 A  
BRANCH  20  23
HETATM   23  S   UNL     1     -13.309  14.699  72.590  1.00  0.00    -0.504 S  
HETATM   24  O   UNL     1     -13.646  13.378  73.062  1.00  0.00    -0.517 OA 
HETATM   25  O   UNL     1     -14.256  15.791  72.567  1.00  0.00    -0.552 OA 
HETATM   26  N   UNL     1     -11.989  15.228  73.474  1.00  0.00    -0.459 N  
HETATM   27  H1  UNL     1     -12.402  15.317  74.402  1.00  0.00     0.000 HD 
HETATM   28  H2  UNL     1     -11.034  15.410  73.168  1.00  0.00     0.000 HD 
ENDBRANCH  20  23
ENDBRANCH  15  17
ENDBRANCH   5   8
TORSDOF 3
ENDMDL
MODEL        8
REMARK 921   NORMALIZED FREE ENERGY PREDICTED BY IDOCK:   -8.01 KCAL/MOL
REMARK 922        TOTAL FREE ENERGY PREDICTED BY IDOCK:  -10.08 KCAL/MOL
REMARK 923 INTER-LIGAND FREE ENERGY PREDICTED BY IDOCK:   -9.44 KCAL/MOL
REMARK 924 INTRA-LIGAND FREE ENERGY PREDICTED BY IDOCK:   -0.65 KCAL/MOL
REMARK 927      BINDING AFFINITY PREDICTED BY RF-SCORE:    0.00 PKD
ROOT
HETATM    1  C   UNL     1     -12.856  16.271  73.849  1.00  0.00    -0.513 C  
HETATM    2  C   UNL     1     -12.471  15.442  72.660  1.00  0.00    -0.480 A  
HETATM    3  C   UNL     1     -11.547  15.918  71.729  1.00  0.00    -0.541 A  
HETATM    4  C   UNL     1     -11.336  15.236  70.527  1.00  0.00    -0.340 A  
HETATM    5  C   UNL     1     -12.038  14.059  70.231  1.00  0.00    -0.425 A  
HETATM    6  C   UNL     1     -13.099  14.217  72.418  1.00  0.00    -0.525 A  
HETATM    7  C   UNL     1     -12.847  13.511  71.237  1.00  0.00    -0.420 A  
ENDROOT
BRANCH   5   8
HETATM    8  C   UNL     1     -11.938  13.467  68.884  1.00  0.00    -0.341 A  
HETATM    9  C   UNL     1     -12.272  14.057  67.675  1.00  0.00    -0.235 A  
HETATM   10  C   UNL     1     -11.954  13.126  66.661  1.00  0.00    -0.389 A  
HETATM   11  N   UNL     1     -11.382  12.034  67.195  1.00  0.00    -0.315 NA 
HETATM   12  C   UNL     1     -12.188  13.289  65.184  1.00  0.00    -0.443 C  
HETATM   13  F   UNL     1     -12.760  14.494  64.897  1.00  0.00    -0.438 F  
HETATM   14  F   UNL     1     -11.040  13.227  64.459  1.00  0.00    -0.314 F  
HETATM   15  N   UNL     1     -11.524  12.171  68.543  1.00  0.00    -0.274 NA 
HETATM   16  F   UNL     1     -13.028  12.343  64.687  1.00  0.00    -0.557 F  
BRANCH  15  17
HETATM   17  C   UNL     1     -11.260  11.032  69.365  1.00  0.00    -0.268 A  
HETATM   18  C   UNL     1     -10.000  10.413  69.292  1.00  0.00    -0.246 A  
HETATM   19  C   UNL     1      -9.676   9.368  70.165  1.00  0.00    -0.274 A  
HETATM   20  C   UNL     1     -10.619   8.936  71.100  1.00  0.00    -0.265 A  
HETATM   21  C   UNL     1     -11.905   9.481  71.117  1.00  0.00    -0.436 A  
HETATM   22  C   UNL     1     -12.227  10.516  70.237  1.00  0.00    -0.393 A  
BRANCH  20  23
HETATM   23  S   UNL     1     -10.198   7.667  72.266  1.00  0.00    -0.233 S  
HETATM   24  O   UNL     1      -9.795   6.494  71.530  1.00  0.00    -0.169 OA 
HETATM   25  O   UNL     1     -11.212   7.637  73.297  1.00  0.00    -0.358 OA 
HETATM   26  N   UNL     1      -8.824   8.320  72.964  1.00  0.00    -0.242 N  
HETATM   27  H1  UNL     1      -8.582   7.590  73.634  1.00  0.00     0.000 HD 
HETATM   28  H2  UNL     1      -8.356   9.205  72.771  1.00  0.00     0.000 HD 
ENDBRANCH  20  23
ENDBRANCH  15  17
ENDBRANCH   5   8
TORSDOF 3
ENDMDL
MODEL        9
REMARK 921   NORMALIZED FREE ENERGY PREDICTED BY IDOCK:   -7.96 KCAL/MOL
REMARK 922        TOTAL FREE ENERGY PREDICTED BY IDOCK:  -10.03 KCAL/MOL
REMARK 923 INTER-LIGAND FREE ENERGY PREDICTED BY IDOCK:   -9.64 KCAL/MOL
REMARK 924 INTRA-LIGAND FREE ENERGY PREDICTED BY IDOCK:   -0.39 KCAL/MOL
REMARK 927      BINDING AFFINITY PREDICTED BY RF-SCORE:    0.00 PKD
ROOT
HETATM    1  C   UNL     1     -11.329   6.181  71.903  1.00  0.00    -0.350 C  
HETATM    2  C   UNL     1     -11.602   7.579  71.433  1.00  0.00    -0.302 A  
HETATM    3  C   UNL     1     -10.552   8.444  71.121  1.00  0.00    -0.266 A  
HETATM    4  C   UNL     1     -10.797   9.798  70.874  1.00  0.00    -0.399 A  
HETATM    5  C   UNL     1     -12.099  10.317  70.926  1.00  0.00    -0.468 A  
HETATM    6  C   UNL     1     -12.911   8.067  71.387  1.00  0.00    -0.277 A  
HETATM    7  C   UNL     1     -13.157   9.412  71.089  1.00  0.00    -0.294 A  
ENDROOT
BRANCH   5   8
HETATM    8  C   UNL     1     -12.307  11.775  70.850  1.00  0.00    -0.320 A  
HETATM    9  C   UNL     1     -12.795  12.612  71.841  1.00  0.00    -0.305 A  
HETATM   10  C   UNL     1     -12.764  13.925  71.322  1.00  0.00    -0.367 A  
HETATM   11  N   UNL     1     -12.218  13.929  70.095  1.00  0.00    -0.345 NA 
HETATM   12  C   UNL     1     -13.246  15.175  72.008  1.00  0.00    -0.379 C  
HETATM   13  F   UNL     1     -13.736  14.907  73.252  1.00  0.00    -0.477 F  
HETATM   14  F   UNL     1     -12.263  16.098  72.173  1.00  0.00    -0.447 F  
HETATM   15  N   UNL     1     -12.096  12.617  69.748  1.00  0.00    -0.272 NA 
HETATM   16  F   UNL     1     -14.255  15.781  71.326  1.00  0.00    -0.486 F  
BRANCH  15  17
HETATM   17  C   UNL     1     -11.803  12.308  68.384  1.00  0.00    -0.304 A  
HETATM   18  C   UNL     1     -12.100  13.256  67.388  1.00  0.00    -0.327 A  
HETATM   19  C   UNL     1     -11.722  13.026  66.061  1.00  0.00    -0.442 A  
HETATM   20  C   UNL     1     -11.059  11.842  65.730  1.00  0.00    -0.317 A  
HETATM   21  C   UNL     1     -10.843  10.855  66.693  1.00  0.00    -0.258 A  
HETATM   22  C   UNL     1     -11.232  11.083  68.015  1.00  0.00    -0.372 A  
BRANCH  20  23
HETATM   23  S   UNL     1     -10.502  11.570  64.067  1.00  0.00    -0.408 S  
HETATM   24  O   UNL     1      -9.907  10.258  64.001  1.00  0.00    -0.311 OA 
HETATM   25  O   UNL     1      -9.826  12.764  63.609  1.00  0.00    -0.271 OA 
HETATM   26  N   UNL     1     -11.961  11.502  63.250  1.00  0.00    -0.877 N  
HETATM   27  H1  UNL     1     -11.640  11.345  62.294  1.00  0.00     0.000 HD 
HETATM   28  H2  UNL     1     -12.911  11.592  63.609  1.00  0.00     0.000 HD 
ENDBRANCH  20  23
ENDBRANCH  15  17
ENDBRANCH   5   8
TORSDOF 3
ENDMDL
MODEL       10
REMARK 921   NORMALIZED FREE ENERGY PREDICTED BY IDOCK:   -7.87 KCAL/MOL
REMARK 922        TOTAL FREE ENERGY PREDICTED BY IDOCK:   -9.91 KCAL/MOL
REMARK 923 INTER-LIGAND FREE ENERGY PREDICTED BY IDOCK:   -9.35 KCAL/MOL
REMARK 924 INTRA-LIGAND FREE ENERGY PREDICTED BY IDOCK:   -0.56 KCAL/MOL
REMARK 927      BINDING AFFINITY PREDICTED BY RF-SCORE:    0.00 PKD
ROOT
HETATM    1  C   UNL     1     -10.608   7.187  73.255  1.00  0.00    -0.405 C  
HETATM    2  C   UNL     1     -10.716   8.304  72.261  1.00  0.00    -0.399 A  
HETATM    3  C   UNL     1     -11.958   8.853  71.938  1.00  0.00    -0.441 A  
HETATM    4  C   UNL     1     -12.080   9.754  70.875  1.00  0.00    -0.407 A  
HETATM    5  C   UNL     1     -10.964  10.131  70.116  1.00  0.00    -0.376 A  
HETATM    6  C   UNL     1      -9.583   8.753  71.575  1.00  0.00    -0.354 A  
HETATM    7  C   UNL     1      -9.703   9.692  70.545  1.00  0.00    -0.280 A  
ENDROOT
BRANCH   5   8
HETATM    8  C   UNL     1     -11.150  10.928  68.889  1.00  0.00    -0.252 A  
HETATM    9  C   UNL     1     -10.814  10.575  67.591  1.00  0.00    -0.355 A  
HETATM   10  C   UNL     1     -11.231  11.634  66.755  1.00  0.00    -0.308 A  
HETATM   11  N   UNL     1     -11.863  12.575  67.476  1.00  0.00    -0.450 NA 
HETATM   12  C   UNL     1     -11.035  11.736  65.267  1.00  0.00    -0.295 C  
HETATM   13  F   UNL     1     -10.387  10.643  64.771  1.00  0.00    -0.360 F  
HETATM   14  F   UNL     1     -12.207  11.830  64.586  1.00  0.00    -0.328 F  
HETATM   15  N   UNL     1     -11.667  12.227  68.778  1.00  0.00    -0.324 NA 
HETATM   16  F   UNL     1     -10.282  12.813  64.919  1.00  0.00    -0.281 F  
BRANCH  15  17
HETATM   17  C   UNL     1     -11.986  13.191  69.785  1.00  0.00    -0.314 A  
HETATM   18  C   UNL     1     -12.849  12.825  70.834  1.00  0.00    -0.187 A  
HETATM   19  C   UNL     1     -13.089  13.710  71.891  1.00  0.00    -0.476 A  
HETATM   20  C   UNL     1     -12.474  14.964  71.890  1.00  0.00    -0.333 A  
HETATM   21  C   UNL     1     -11.691  15.372  70.808  1.00  0.00    -0.385 A  
HETATM   22  C   UNL     1     -11.463  14.490  69.750  1.00  0.00    -0.327 A  
BRANCH  20  23
HETATM   23  S   UNL     1     -12.704  16.067  73.261  1.00  0.00    -0.552 S  
HETATM   24  O   UNL     1     -14.106  16.392  73.348  1.00  0.00    -0.349 OA 
HETATM   25  O   UNL     1     -11.665  17.073  73.219  1.00  0.00    -0.206 OA 
HETATM   26  N   UNL     1     -12.341  15.057  74.546  1.00  0.00    -0.611 N  
HETATM   27  H1  UNL     1     -12.473  15.691  75.334  1.00  0.00     0.000 HD 
HETATM   28  H2  UNL     1     -12.064  14.076  74.542  1.00  0.00     0.000 HD 
ENDBRANCH  20  23
ENDBRANCH  15  17
ENDBRANCH   5   8
TORSDOF 3
ENDMDL
MODEL       11
REMARK 921   NORMALIZED FREE ENERGY PREDICTED BY IDOCK:   -7.76 KCAL/MOL
REMARK 922        TOTAL FREE ENERGY PREDICTED BY IDOCK:   -9.79 KCAL/MOL
REMARK 923 INTER-LIGAND FREE ENERGY PREDICTED BY IDOCK:   -9.00 KCAL/MOL
REMARK 924 INTRA-LIGAND FREE ENERGY PREDICTED BY IDOCK:   -0.78 KCAL/MOL
REMARK 927      BINDING AFFINITY PREDICTED BY RF-SCORE:    0.00 PKD
ROOT
HETATM    1  C   UNL     1      -9.934  11.931  64.811  1.00  0.00    -0.262 C  
HETATM    2  C   UNL     1     -10.406  12.605  66.065  1.00  0.00    -0.287 A  
HETATM    3  C   UNL     1      -9.494  13.019  67.038  1.00  0.00    -0.237 A  
HETATM    4  C   UNL     1      -9.942  13.466  68.285  1.00  0.00    -0.240 A  
HETATM    5  C   UNL     1     -11.310  13.516  68.586  1.00  0.00    -0.323 A  
HETATM    6  C   UNL     1     -11.773  12.749  66.321  1.00  0.00    -0.460 A  
HETATM    7  C   UNL     1     -12.217  13.244  67.551  1.00  0.00    -0.213 A  
ENDROOT
BRANCH   5   8
HETATM    8  C   UNL     1     -11.744  13.809  69.965  1.00  0.00    -0.257 A  
HETATM    9  C   UNL     1     -11.757  15.038  70.604  1.00  0.00    -0.357 A  
HETATM   10  C   UNL     1     -12.304  14.828  71.889  1.00  0.00    -0.345 A  
HETATM   11  N   UNL     1     -12.683  13.547  72.030  1.00  0.00    -0.216 NA 
HETATM   12  C   UNL     1     -12.472  15.856  72.975  1.00  0.00    -0.491 C  
HETATM   13  F   UNL     1     -12.031  17.083  72.576  1.00  0.00    -0.399 F  
HETATM   14  F   UNL     1     -13.767  16.017  73.351  1.00  0.00    -0.637 F  
HETATM   15  N   UNL     1     -12.195  12.901  70.935  1.00  0.00    -0.294 NA 
HETATM   16  F   UNL     1     -11.765  15.545  74.094  1.00  0.00    -0.472 F  
BRANCH  15  17
HETATM   17  C   UNL     1     -12.200  11.472  70.940  1.00  0.00    -0.322 A  
HETATM   18  C   UNL     1     -11.240  10.781  70.181  1.00  0.00    -0.345 A  
HETATM   19  C   UNL     1     -11.151   9.386  70.255  1.00  0.00    -0.299 A  
HETATM   20  C   UNL     1     -12.032   8.685  71.081  1.00  0.00    -0.279 A  
HETATM   21  C   UNL     1     -13.049   9.353  71.766  1.00  0.00    -0.488 A  
HETATM   22  C   UNL     1     -13.141  10.744  71.680  1.00  0.00    -0.551 A  
BRANCH  20  23
HETATM   23  S   UNL     1     -11.882   6.925  71.249  1.00  0.00    -0.359 S  
HETATM   24  O   UNL     1     -10.868   6.652  72.238  1.00  0.00    -0.216 OA 
HETATM   25  O   UNL     1     -11.871   6.337  69.928  1.00  0.00    -0.340 OA 
HETATM   26  N   UNL     1     -13.363   6.543  71.931  1.00  0.00    -0.314 N  
HETATM   27  H1  UNL     1     -13.276   5.532  72.028  1.00  0.00     0.000 HD 
HETATM   28  H2  UNL     1     -14.139   7.155  72.180  1.00  0.00     0.000 HD 
ENDBRANCH  20  23
ENDBRANCH  15  17
ENDBRANCH   5   8
TORSDOF 3
ENDMDL
MODEL       12
REMARK 921   NORMALIZED FREE ENERGY PREDICTED BY IDOCK:   -7.71 KCAL/MOL
REMARK 922        TOTAL FREE ENERGY PREDICTED BY IDOCK:   -9.73 KCAL/MOL
REMARK 923 INTER-LIGAND FREE ENERGY PREDICTED BY IDOCK:   -8.91 KCAL/MOL
REMARK 924 INTRA-LIGAND FREE ENERGY PREDICTED BY IDOCK:   -0.82 KCAL/MOL
REMARK 927      BINDING AFFINITY PREDICTED BY RF-SCORE:    0.00 PKD
ROOT
HETATM    1  C   UNL     1      -9.665   8.140  72.845  1.00  0.00    -0.340 C  
HETATM    2  C   UNL     1     -10.042   8.731  71.519  1.00  0.00    -0.371 A  
HETATM    3  C   UNL     1      -9.071   9.293  70.689  1.00  0.00    -0.309 A  
HETATM    4  C   UNL     1      -9.444  10.014  69.550  1.00  0.00    -0.245 A  
HETATM    5  C   UNL     1     -10.794  10.184  69.212  1.00  0.00    -0.269 A  
HETATM    6  C   UNL     1     -11.384   8.809  71.134  1.00  0.00    -0.345 A  
HETATM    7  C   UNL     1     -11.749   9.488  69.967  1.00  0.00    -0.028 A  
ENDROOT
BRANCH   5   8
HETATM    8  C   UNL     1     -11.163  11.104  68.120  1.00  0.00    -0.292 A  
HETATM    9  C   UNL     1     -10.966  10.923  66.760  1.00  0.00    -0.248 A  
HETATM   10  C   UNL     1     -11.530  12.043  66.110  1.00  0.00    -0.339 A  
HETATM   11  N   UNL     1     -12.118  12.854  67.005  1.00  0.00    -0.413 NA 
HETATM   12  C   UNL     1     -11.516  12.328  64.632  1.00  0.00    -0.336 C  
HETATM   13  F   UNL     1     -10.879  11.342  63.938  1.00  0.00    -0.388 F  
HETATM   14  F   UNL     1     -12.764  12.425  64.103  1.00  0.00    -0.506 F  
HETATM   15  N   UNL     1     -11.753  12.372  68.226  1.00  0.00    -0.332 NA 
HETATM   16  F   UNL     1     -10.863  13.482  64.336  1.00  0.00    -0.352 F  
BRANCH  15  17
HETATM   17  C   UNL     1     -11.997  13.192  69.372  1.00  0.00    -0.291 A  
HETATM   18  C   UNL     1     -12.708  12.654  70.458  1.00  0.00    -0.066 A  
HETATM   19  C   UNL     1     -12.865  13.395  71.635  1.00  0.00    -0.414 A  
HETATM   20  C   UNL     1     -12.319  14.678  71.717  1.00  0.00    -0.346 A  
HETATM   21  C   UNL     1     -11.692  15.256  70.611  1.00  0.00    -0.371 A  
HETATM   22  C   UNL     1     -11.548  14.517  69.435  1.00  0.00    -0.343 A  
BRANCH  20  23
HETATM   23  S   UNL     1     -12.438  15.600  73.228  1.00  0.00    -0.566 S  
HETATM   24  O   UNL     1     -11.680  16.818  73.074  1.00  0.00    -0.393 OA 
HETATM   25  O   UNL     1     -12.246  14.691  74.336  1.00  0.00    -0.417 OA 
HETATM   26  N   UNL     1     -14.060  16.013  73.222  1.00  0.00    -0.591 N  
HETATM   27  H1  UNL     1     -14.128  16.543  74.091  1.00  0.00     0.000 HD 
HETATM   28  H2  UNL     1     -14.782  15.794  72.537  1.00  0.00     0.000 HD 
ENDBRANCH  20  23
ENDBRANCH  15  17
ENDBRANCH   5   8
TORSDOF 3
ENDMDL
MODEL       13
REMARK 921   NORMALIZED FREE ENERGY PREDICTED BY IDOCK:   -7.56 KCAL/MOL
REMARK 922        TOTAL FREE ENERGY PREDICTED BY IDOCK:   -9.55 KCAL/MOL
REMARK 923 INTER-LIGAND FREE ENERGY PREDICTED BY IDOCK:   -8.60 KCAL/MOL
REMARK 924 INTRA-LIGAND FREE ENERGY PREDICTED BY IDOCK:   -0.95 KCAL/MOL
REMARK 927      BINDING AFFINITY PREDICTED BY RF-SCORE:    0.00 PKD
ROOT
HETATM    1  C   UNL     1      -8.390   7.507  71.830  1.00  0.00    -0.116 C  
HETATM    2  C   UNL     1      -8.770   8.108  70.509  1.00  0.00    -0.135 A  
HETATM    3  C   UNL     1      -8.071   9.202  69.998  1.00  0.00    -0.130 A  
HETATM    4  C   UNL     1      -8.544   9.881  68.871  1.00  0.00    -0.135 A  
HETATM    5  C   UNL     1      -9.722   9.478  68.226  1.00  0.00    -0.163 A  
HETATM    6  C   UNL     1      -9.887   7.638  69.813  1.00  0.00    -0.181 A  
HETATM    7  C   UNL     1     -10.328   8.290  68.656  1.00  0.00    -0.225 A  
ENDROOT
BRANCH   5   8
HETATM    8  C   UNL     1     -10.297  10.322  67.162  1.00  0.00    -0.238 A  
HETATM    9  C   UNL     1     -10.073  10.232  65.797  1.00  0.00    -0.325 A  
HETATM   10  C   UNL     1     -10.881  11.213  65.181  1.00  0.00    -0.159 A  
HETATM   11  N   UNL     1     -11.631  11.843  66.101  1.00  0.00    -0.458 NA 
HETATM   12  C   UNL     1     -10.942  11.537  63.713  1.00  0.00    -0.409 C  
HETATM   13  F   UNL     1     -10.102  10.742  62.989  1.00  0.00    -0.337 F  
HETATM   14  F   UNL     1     -12.183  11.365  63.187  1.00  0.00    -0.495 F  
HETATM   15  N   UNL     1     -11.158  11.421  67.306  1.00  0.00    -0.287 NA 
HETATM   16  F   UNL     1     -10.569  12.818  63.452  1.00  0.00    -0.401 F  
BRANCH  15  17
HETATM   17  C   UNL     1     -11.573  12.129  68.476  1.00  0.00    -0.315 A  
HETATM   18  C   UNL     1     -11.537  13.535  68.474  1.00  0.00    -0.368 A  
HETATM   19  C   UNL     1     -12.042  14.255  69.563  1.00  0.00    -0.376 A  
HETATM   20  C   UNL     1     -12.571  13.566  70.657  1.00  0.00    -0.275 A  
HETATM   21  C   UNL     1     -12.526  12.172  70.709  1.00  0.00    -0.362 A  
HETATM   22  C   UNL     1     -12.011  11.457  69.625  1.00  0.00    -0.416 A  
BRANCH  20  23
HETATM   23  S   UNL     1     -13.288  14.463  72.009  1.00  0.00    -0.424 S  
HETATM   24  O   UNL     1     -12.264  15.294  72.592  1.00  0.00    -0.348 OA 
HETATM   25  O   UNL     1     -14.097  13.550  72.787  1.00  0.00    -0.719 OA 
HETATM   26  N   UNL     1     -14.350  15.470  71.196  1.00  0.00    -0.798 N  
HETATM   27  H1  UNL     1     -14.762  15.985  71.974  1.00  0.00     0.000 HD 
HETATM   28  H2  UNL     1     -14.534  15.547  70.196  1.00  0.00     0.000 HD 
ENDBRANCH  20  23
ENDBRANCH  15  17
ENDBRANCH   5   8
TORSDOF 3
ENDMDL
MODEL       14
REMARK 921   NORMALIZED FREE ENERGY PREDICTED BY IDOCK:   -7.55 KCAL/MOL
REMARK 922        TOTAL FREE ENERGY PREDICTED BY IDOCK:   -9.54 KCAL/MOL
REMARK 923 INTER-LIGAND FREE ENERGY PREDICTED BY IDOCK:   -9.01 KCAL/MOL
REMARK 924 INTRA-LIGAND FREE ENERGY PREDICTED BY IDOCK:   -0.53 KCAL/MOL
REMARK 927      BINDING AFFINITY PREDICTED BY RF-SCORE:    0.00 PKD
ROOT
HETATM    1  C   UNL     1     -10.273  11.321  63.601  1.00  0.00    -0.446 C  
HETATM    2  C   UNL     1     -10.756  11.620  64.990  1.00  0.00    -0.351 A  
HETATM    3  C   UNL     1     -11.835  12.480  65.199  1.00  0.00    -0.450 A  
HETATM    4  C   UNL     1     -12.159  12.910  66.489  1.00  0.00    -0.375 A  
HETATM    5  C   UNL     1     -11.416  12.486  67.600  1.00  0.00    -0.392 A  
HETATM    6  C   UNL     1     -10.075  11.112  66.100  1.00  0.00    -0.284 A  
HETATM    7  C   UNL     1     -10.434  11.506  67.394  1.00  0.00    -0.240 A  
ENDROOT
BRANCH   5   8
HETATM    8  C   UNL     1     -11.657  13.101  68.919  1.00  0.00    -0.311 A  
HETATM    9  C   UNL     1     -11.584  14.444  69.252  1.00  0.00    -0.345 A  
HETATM   10  C   UNL     1     -11.949  14.552  70.611  1.00  0.00    -0.319 A  
HETATM   11  N   UNL     1     -12.305  13.351  71.095  1.00  0.00    -0.324 NA 
HETATM   12  C   UNL     1     -11.968  15.807  71.441  1.00  0.00    -0.441 C  
HETATM   13  F   UNL     1     -11.586  16.895  70.713  1.00  0.00    -0.142 F  
HETATM   14  F   UNL     1     -13.200  16.091  71.939  1.00  0.00    -0.515 F  
HETATM   15  N   UNL     1     -11.971  12.455  70.124  1.00  0.00    -0.339 NA 
HETATM   16  F   UNL     1     -11.114  15.740  72.497  1.00  0.00    -0.365 F  
BRANCH  15  17
HETATM   17  C   UNL     1     -11.975  11.066  70.462  1.00  0.00    -0.379 A  
HETATM   18  C   UNL     1     -10.798  10.317  70.290  1.00  0.00    -0.349 A  
HETATM   19  C   UNL     1     -10.740   8.985  70.716  1.00  0.00    -0.301 A  
HETATM   20  C   UNL     1     -11.866   8.402  71.302  1.00  0.00    -0.289 A  
HETATM   21  C   UNL     1     -13.067   9.108  71.391  1.00  0.00    -0.363 A  
HETATM   22  C   UNL     1     -13.123  10.433  70.955  1.00  0.00    -0.412 A  
BRANCH  20  23
HETATM   23  S   UNL     1     -11.787   6.741  71.921  1.00  0.00    -0.335 S  
HETATM   24  O   UNL     1     -11.106   6.766  73.193  1.00  0.00    -0.256 OA 
HETATM   25  O   UNL     1     -11.395   5.866  70.838  1.00  0.00    -0.270 OA 
HETATM   26  N   UNL     1     -13.405   6.436  72.223  1.00  0.00    -0.420 N  
HETATM   27  H1  UNL     1     -13.359   5.481  72.578  1.00  0.00     0.000 HD 
HETATM   28  H2  UNL     1     -14.215   7.040  72.088  1.00  0.00     0.000 HD 
ENDBRANCH  20  23
ENDBRANCH  15  17
ENDBRANCH   5   8
TORSDOF 3
ENDMDL
MODEL       15
REMARK 921   NORMALIZED FREE ENERGY PREDICTED BY IDOCK:   -7.43 KCAL/MOL
REMARK 922        TOTAL FREE ENERGY PREDICTED BY IDOCK:   -9.40 KCAL/MOL
REMARK 923 INTER-LIGAND FREE ENERGY PREDICTED BY IDOCK:   -8.55 KCAL/MOL
REMARK 924 INTRA-LIGAND FREE ENERGY PREDICTED BY IDOCK:   -0.84 KCAL/MOL
REMARK 927      BINDING AFFINITY PREDICTED BY RF-SCORE:    0.00 PKD
ROOT
HETATM    1  C   UNL     1     -11.200  15.710  64.506  1.00  0.00    -0.337 C  
HETATM    2  C   UNL     1     -11.064  14.350  65.122  1.00  0.00    -0.365 A  
HETATM    3  C   UNL     1     -12.181  13.530  65.292  1.00  0.00    -0.474 A  
HETATM    4  C   UNL     1     -12.089  12.352  66.039  1.00  0.00    -0.327 A  
HETATM    5  C   UNL     1     -10.877  11.963  66.627  1.00  0.00    -0.315 A  
HETATM    6  C   UNL     1      -9.831  13.918  65.619  1.00  0.00    -0.231 A  
HETATM    7  C   UNL     1      -9.732  12.712  66.323  1.00  0.00    -0.260 A  
ENDROOT
BRANCH   5   8
HETATM    8  C   UNL     1     -10.853  10.822  67.563  1.00  0.00    -0.288 A  
HETATM    9  C   UNL     1     -10.589   9.494  67.270  1.00  0.00    -0.317 A  
HETATM   10  C   UNL     1     -10.628   8.787  68.492  1.00  0.00    -0.129 A  
HETATM   11  N   UNL     1     -10.833   9.635  69.514  1.00  0.00    -0.232 NA 
HETATM   12  C   UNL     1     -10.455   7.304  68.680  1.00  0.00    -0.194 C  
HETATM   13  F   UNL     1     -10.237   6.671  67.492  1.00  0.00    -0.155 F  
HETATM   14  F   UNL     1      -9.402   6.993  69.480  1.00  0.00    -0.147 F  
HETATM   15  N   UNL     1     -11.132  10.832  68.938  1.00  0.00    -0.233 NA 
HETATM   16  F   UNL     1     -11.557   6.722  69.223  1.00  0.00    -0.272 F  
BRANCH  15  17
HETATM   17  C   UNL     1     -11.672  11.862  69.770  1.00  0.00    -0.331 A  
HETATM   18  C   UNL     1     -12.473  11.504  70.868  1.00  0.00    -0.464 A  
HETATM   19  C   UNL     1     -12.921  12.482  71.763  1.00  0.00    -0.419 A  
HETATM   20  C   UNL     1     -12.577  13.819  71.549  1.00  0.00    -0.318 A  
HETATM   21  C   UNL     1     -11.861  14.195  70.411  1.00  0.00    -0.367 A  
HETATM   22  C   UNL     1     -11.425  13.217  69.515  1.00  0.00    -0.291 A  
BRANCH  20  23
HETATM   23  S   UNL     1     -13.069  15.061  72.716  1.00  0.00    -0.497 S  
HETATM   24  O   UNL     1     -12.686  14.617  74.035  1.00  0.00    -0.470 OA 
HETATM   25  O   UNL     1     -14.411  15.491  72.390  1.00  0.00    -0.558 OA 
HETATM   26  N   UNL     1     -12.047  16.318  72.293  1.00  0.00    -0.561 N  
HETATM   27  H1  UNL     1     -12.330  17.032  72.964  1.00  0.00     0.000 HD 
HETATM   28  H2  UNL     1     -11.336  16.358  71.563  1.00  0.00     0.000 HD 
ENDBRANCH  20  23
ENDBRANCH  15  17
ENDBRANCH   5   8
TORSDOF 3
ENDMDL
MODEL       16
REMARK 921   NORMALIZED FREE ENERGY PREDICTED BY IDOCK:   -7.35 KCAL/MOL
REMARK 922        TOTAL FREE ENERGY PREDICTED BY IDOCK:   -9.30 KCAL/MOL
REMARK 923 INTER-LIGAND FREE ENERGY PREDICTED BY IDOCK:   -8.63 KCAL/MOL
REMARK 924 INTRA-LIGAND FREE ENERGY PREDICTED BY IDOCK:   -0.68 KCAL/MOL
REMARK 927      BINDING AFFINITY PREDICTED BY RF-SCORE:    0.00 PKD
ROOT
HETATM    1  C   UNL     1     -13.182  14.982  73.039  1.00  0.00    -0.596 C  
HETATM    2  C   UNL     1     -12.871  14.500  71.653  1.00  0.00    -0.409 A  
HETATM    3  C   UNL     1     -12.699  13.140  71.395  1.00  0.00    -0.390 A  
HETATM    4  C   UNL     1     -12.219  12.709  70.154  1.00  0.00    -0.310 A  
HETATM    5  C   UNL     1     -11.907  13.627  69.142  1.00  0.00    -0.394 A  
HETATM    6  C   UNL     1     -12.659  15.414  70.616  1.00  0.00    -0.491 A  
HETATM    7  C   UNL     1     -12.228  14.974  69.360  1.00  0.00    -0.234 A  
ENDROOT
BRANCH   5   8
HETATM    8  C   UNL     1     -11.226  13.162  67.918  1.00  0.00    -0.270 A  
HETATM    9  C   UNL     1     -11.099  11.859  67.465  1.00  0.00    -0.332 A  
HETATM   10  C   UNL     1     -10.418  11.917  66.229  1.00  0.00    -0.239 A  
HETATM   11  N   UNL     1     -10.189  13.195  65.883  1.00  0.00    -0.287 NA 
HETATM   12  C   UNL     1      -9.997  10.750  65.377  1.00  0.00    -0.271 C  
HETATM   13  F   UNL     1     -10.366   9.563  65.937  1.00  0.00    -0.347 F  
HETATM   14  F   UNL     1     -10.551  10.778  64.137  1.00  0.00    -0.421 F  
HETATM   15  N   UNL     1     -10.528  13.933  66.977  1.00  0.00    -0.276 NA 
HETATM   16  F   UNL     1      -8.649  10.690  65.214  1.00  0.00    -0.163 F  
BRANCH  15  17
HETATM   17  C   UNL     1     -10.131  15.306  67.009  1.00  0.00    -0.248 A  
HETATM   18  C   UNL     1     -10.655  16.193  66.053  1.00  0.00    -0.303 A  
HETATM   19  C   UNL     1     -10.372  17.561  66.129  1.00  0.00    -0.330 A  
HETATM   20  C   UNL     1      -9.553  18.037  67.156  1.00  0.00    -0.281 A  
HETATM   21  C   UNL     1      -8.953  17.153  68.054  1.00  0.00    -0.233 A  
HETATM   22  C   UNL     1      -9.230  15.787  67.968  1.00  0.00    -0.188 A  
BRANCH  20  23
HETATM   23  S   UNL     1      -9.248  19.778  67.315  1.00  0.00    -0.359 S  
HETATM   24  O   UNL     1      -7.822  19.990  67.282  1.00  0.00    -0.273 OA 
HETATM   25  O   UNL     1     -10.096  20.298  68.366  1.00  0.00    -0.360 OA 
HETATM   26  N   UNL     1      -9.875  20.344  65.870  1.00  0.00    -0.623 N  
HETATM   27  H1  UNL     1      -9.699  21.345  65.962  1.00  0.00     0.000 HD 
HETATM   28  H2  UNL     1     -10.312  19.830  65.106  1.00  0.00     0.000 HD 
ENDBRANCH  20  23
ENDBRANCH  15  17
ENDBRANCH   5   8
TORSDOF 3
ENDMDL
MODEL       17
REMARK 921   NORMALIZED FREE ENERGY PREDICTED BY IDOCK:   -7.35 KCAL/MOL
REMARK 922        TOTAL FREE ENERGY PREDICTED BY IDOCK:   -9.30 KCAL/MOL
REMARK 923 INTER-LIGAND FREE ENERGY PREDICTED BY IDOCK:   -8.19 KCAL/MOL
REMARK 924 INTRA-LIGAND FREE ENERGY PREDICTED BY IDOCK:   -1.11 KCAL/MOL
REMARK 927      BINDING AFFINITY PREDICTED BY RF-SCORE:    0.00 PKD
ROOT
HETATM    1  C   UNL     1      -5.488  12.869  70.481  1.00  0.00    -0.163 C  
HETATM    2  C   UNL     1      -6.491  12.789  69.369  1.00  0.00    -0.096 A  
HETATM    3  C   UNL     1      -6.782  13.911  68.591  1.00  0.00    -0.098 A  
HETATM    4  C   UNL     1      -7.850  13.890  67.689  1.00  0.00    -0.187 A  
HETATM    5  C   UNL     1      -8.647  12.746  67.539  1.00  0.00    -0.187 A  
HETATM    6  C   UNL     1      -7.215  11.613  69.152  1.00  0.00    -0.064 A  
HETATM    7  C   UNL     1      -8.251  11.581  68.212  1.00  0.00    -0.152 A  
ENDROOT
BRANCH   5   8
HETATM    8  C   UNL     1      -9.876  12.813  66.726  1.00  0.00    -0.242 A  
HETATM    9  C   UNL     1      -9.995  12.636  65.357  1.00  0.00    -0.230 A  
HETATM   10  C   UNL     1     -11.368  12.741  65.046  1.00  0.00    -0.309 A  
HETATM   11  N   UNL     1     -12.089  12.902  66.168  1.00  0.00    -0.471 NA 
HETATM   12  C   UNL     1     -11.988  12.673  63.677  1.00  0.00    -0.535 C  
HETATM   13  F   UNL     1     -11.047  12.481  62.709  1.00  0.00    -0.261 F  
HETATM   14  F   UNL     1     -12.880  11.655  63.552  1.00  0.00    -0.612 F  
HETATM   15  N   UNL     1     -11.177  13.111  67.158  1.00  0.00    -0.283 NA 
HETATM   16  F   UNL     1     -12.640  13.820  63.349  1.00  0.00    -0.459 F  
BRANCH  15  17
HETATM   17  C   UNL     1     -11.652  13.591  68.418  1.00  0.00    -0.343 A  
HETATM   18  C   UNL     1     -11.822  12.682  69.477  1.00  0.00    -0.376 A  
HETATM   19  C   UNL     1     -12.177  13.141  70.750  1.00  0.00    -0.375 A  
HETATM   20  C   UNL     1     -12.375  14.508  70.958  1.00  0.00    -0.347 A  
HETATM   21  C   UNL     1     -12.301  15.407  69.892  1.00  0.00    -0.324 A  
HETATM   22  C   UNL     1     -11.956  14.943  68.621  1.00  0.00    -0.276 A  
BRANCH  20  23
HETATM   23  S   UNL     1     -12.748  15.115  72.583  1.00  0.00    -0.420 S  
HETATM   24  O   UNL     1     -11.814  16.169  72.895  1.00  0.00    -0.482 OA 
HETATM   25  O   UNL     1     -12.977  13.984  73.454  1.00  0.00    -0.461 OA 
HETATM   26  N   UNL     1     -14.240  15.828  72.321  1.00  0.00    -0.438 N  
HETATM   27  H1  UNL     1     -14.454  16.177  73.255  1.00  0.00     0.000 HD 
HETATM   28  H2  UNL     1     -14.786  15.894  71.463  1.00  0.00     0.000 HD 
ENDBRANCH  20  23
ENDBRANCH  15  17
ENDBRANCH   5   8
TORSDOF 3
ENDMDL
MODEL       18
REMARK 921   NORMALIZED FREE ENERGY PREDICTED BY IDOCK:   -7.30 KCAL/MOL
REMARK 922        TOTAL FREE ENERGY PREDICTED BY IDOCK:   -9.24 KCAL/MOL
REMARK 923 INTER-LIGAND FREE ENERGY PREDICTED BY IDOCK:   -8.52 KCAL/MOL
REMARK 924 INTRA-LIGAND FREE ENERGY PREDICTED BY IDOCK:   -0.72 KCAL/MOL
REMARK 927      BINDING AFFINITY PREDICTED BY RF-SCORE:    0.00 PKD
ROOT
HETATM    1  C   UNL     1     -10.684  11.206  63.914  1.00  0.00    -0.407 C  
HETATM    2  C   UNL     1     -10.698  12.465  64.729  1.00  0.00    -0.332 A  
HETATM    3  C   UNL     1     -11.509  13.540  64.364  1.00  0.00    -0.422 A  
HETATM    4  C   UNL     1     -11.378  14.776  65.006  1.00  0.00    -0.391 A  
HETATM    5  C   UNL     1     -10.439  14.963  66.029  1.00  0.00    -0.326 A  
HETATM    6  C   UNL     1      -9.831  12.614  65.816  1.00  0.00    -0.236 A  
HETATM    7  C   UNL     1      -9.740  13.837  66.488  1.00  0.00    -0.301 A  
ENDROOT
BRANCH   5   8
HETATM    8  C   UNL     1     -10.191  16.319  66.554  1.00  0.00    -0.300 A  
HETATM    9  C   UNL     1      -9.485  17.345  65.946  1.00  0.00    -0.022 A  
HETATM   10  C   UNL     1      -9.563  18.464  66.804  1.00  0.00    -0.307 A  
HETATM   11  N   UNL     1     -10.338  18.184  67.865  1.00  0.00    -0.380 NA 
HETATM   12  C   UNL     1      -8.907  19.802  66.601  1.00  0.00    -0.359 C  
HETATM   13  F   UNL     1      -8.195  19.839  65.438  1.00  0.00    -0.180 F  
HETATM   14  F   UNL     1      -9.801  20.823  66.536  1.00  0.00    -0.494 F  
HETATM   15  N   UNL     1     -10.578  16.844  67.796  1.00  0.00    -0.340 NA 
HETATM   16  F   UNL     1      -8.027  20.101  67.593  1.00  0.00    -0.310 F  
BRANCH  15  17
HETATM   17  C   UNL     1     -11.144  16.203  68.942  1.00  0.00    -0.347 A  
HETATM   18  C   UNL     1     -10.802  16.667  70.224  1.00  0.00    -0.062 A  
HETATM   19  C   UNL     1     -11.426  16.133  71.357  1.00  0.00    -0.429 A  
HETATM   20  C   UNL     1     -12.381  15.126  71.205  1.00  0.00    -0.341 A  
HETATM   21  C   UNL     1     -12.659  14.593  69.944  1.00  0.00    -0.223 A  
HETATM   22  C   UNL     1     -12.026  15.122  68.817  1.00  0.00    -0.280 A  
BRANCH  20  23
HETATM   23  S   UNL     1     -13.240  14.493  72.623  1.00  0.00    -0.510 S  
HETATM   24  O   UNL     1     -12.300  14.400  73.714  1.00  0.00    -0.331 OA 
HETATM   25  O   UNL     1     -14.067  13.384  72.201  1.00  0.00    -0.466 OA 
HETATM   26  N   UNL     1     -14.276  15.763  72.960  1.00  0.00    -0.427 N  
HETATM   27  H1  UNL     1     -14.770  15.399  73.775  1.00  0.00     0.000 HD 
HETATM   28  H2  UNL     1     -14.385  16.657  72.481  1.00  0.00     0.000 HD 
ENDBRANCH  20  23
ENDBRANCH  15  17
ENDBRANCH   5   8
TORSDOF 3
ENDMDL
MODEL       19
REMARK 921   NORMALIZED FREE ENERGY PREDICTED BY IDOCK:   -7.29 KCAL/MOL
REMARK 922        TOTAL FREE ENERGY PREDICTED BY IDOCK:   -9.23 KCAL/MOL
REMARK 923 INTER-LIGAND FREE ENERGY PREDICTED BY IDOCK:   -8.80 KCAL/MOL
REMARK 924 INTRA-LIGAND FREE ENERGY PREDICTED BY IDOCK:   -0.43 KCAL/MOL
REMARK 927      BINDING AFFINITY PREDICTED BY RF-SCORE:    0.00 PKD
ROOT
HETATM    1  C   UNL     1      -9.593  10.256  64.348  1.00  0.00    -0.378 C  
HETATM    2  C   UNL     1     -10.356  10.666  65.573  1.00  0.00    -0.297 A  
HETATM    3  C   UNL     1     -11.051  11.876  65.606  1.00  0.00    -0.362 A  
HETATM    4  C   UNL     1     -11.596  12.347  66.805  1.00  0.00    -0.444 A  
HETATM    5  C   UNL     1     -11.463  11.618  67.995  1.00  0.00    -0.385 A  
HETATM    6  C   UNL     1     -10.308   9.885  66.731  1.00  0.00    -0.285 A  
HETATM    7  C   UNL     1     -10.898  10.337  67.916  1.00  0.00    -0.337 A  
ENDROOT
BRANCH   5   8
HETATM    8  C   UNL     1     -11.878  12.225  69.273  1.00  0.00    -0.306 A  
HETATM    9  C   UNL     1     -12.071  13.569  69.548  1.00  0.00    -0.352 A  
HETATM   10  C   UNL     1     -12.515  13.657  70.886  1.00  0.00    -0.371 A  
HETATM   11  N   UNL     1     -12.665  12.429  71.408  1.00  0.00    -0.312 NA 
HETATM   12  C   UNL     1     -12.806  14.916  71.657  1.00  0.00    -0.328 C  
HETATM   13  F   UNL     1     -12.598  16.029  70.896  1.00  0.00    -0.458 F  
HETATM   14  F   UNL     1     -14.092  14.983  72.091  1.00  0.00    -0.431 F  
HETATM   15  N   UNL     1     -12.125  11.576  70.493  1.00  0.00    -0.375 NA 
HETATM   16  F   UNL     1     -12.006  15.049  72.748  1.00  0.00    -0.410 F  
BRANCH  15  17
HETATM   17  C   UNL     1     -11.887  10.225  70.893  1.00  0.00    -0.377 A  
HETATM   18  C   UNL     1     -10.562   9.781  71.052  1.00  0.00    -0.295 A  
HETATM   19  C   UNL     1     -10.303   8.499  71.549  1.00  0.00    -0.321 A  
HETATM   20  C   UNL     1     -11.370   7.659  71.874  1.00  0.00    -0.266 A  
HETATM   21  C   UNL     1     -12.687   8.055  71.631  1.00  0.00    -0.347 A  
HETATM   22  C   UNL     1     -12.941   9.332  71.124  1.00  0.00    -0.264 A  
BRANCH  20  23
HETATM   23  S   UNL     1     -11.060   6.061  72.580  1.00  0.00    -0.280 S  
HETATM   24  O   UNL     1     -10.490   6.251  73.892  1.00  0.00    -0.274 OA 
HETATM   25  O   UNL     1     -10.449   5.224  71.571  1.00  0.00    -0.220 OA 
HETATM   26  N   UNL     1     -12.623   5.497  72.789  1.00  0.00    -0.332 N  
HETATM   27  H1  UNL     1     -12.444   4.579  73.195  1.00  0.00     0.000 HD 
HETATM   28  H2  UNL     1     -13.510   5.949  72.569  1.00  0.00     0.000 HD 
ENDBRANCH  20  23
ENDBRANCH  15  17
ENDBRANCH   5   8
TORSDOF 3
ENDMDL
MODEL       20
REMARK 921   NORMALIZED FREE ENERGY PREDICTED BY IDOCK:   -7.24 KCAL/MOL
REMARK 922        TOTAL FREE ENERGY PREDICTED BY IDOCK:   -9.18 KCAL/MOL
REMARK 923 INTER-LIGAND FREE ENERGY PREDICTED BY IDOCK:   -9.52 KCAL/MOL
REMARK 924 INTRA-LIGAND FREE ENERGY PREDICTED BY IDOCK:    0.35 KCAL/MOL
REMARK 927      BINDING AFFINITY PREDICTED BY RF-SCORE:    0.00 PKD
ROOT
HETATM    1  C   UNL     1     -13.695  15.496  72.371  1.00  0.00    -0.655 C  
HETATM    2  C   UNL     1     -13.291  14.202  71.729  1.00  0.00    -0.459 A  
HETATM    3  C   UNL     1     -13.785  12.987  72.205  1.00  0.00    -0.608 A  
HETATM    4  C   UNL     1     -13.262  11.777  71.738  1.00  0.00    -0.434 A  
HETATM    5  C   UNL     1     -12.238  11.755  70.781  1.00  0.00    -0.424 A  
HETATM    6  C   UNL     1     -12.343  14.187  70.702  1.00  0.00    -0.435 A  
HETATM    7  C   UNL     1     -11.859  12.974  70.202  1.00  0.00    -0.324 A  
ENDROOT
BRANCH   5   8
HETATM    8  C   UNL     1     -11.576  10.479  70.449  1.00  0.00    -0.342 A  
HETATM    9  C   UNL     1     -11.185   9.477  71.323  1.00  0.00    -0.452 A  
HETATM   10  C   UNL     1     -10.647   8.434  70.539  1.00  0.00    -0.216 A  
HETATM   11  N   UNL     1     -10.757   8.728  69.233  1.00  0.00    -0.195 NA 
HETATM   12  C   UNL     1     -10.039   7.152  71.041  1.00  0.00    -0.192 C  
HETATM   13  F   UNL     1     -10.066   7.084  72.403  1.00  0.00    -0.176 F  
HETATM   14  F   UNL     1     -10.689   6.048  70.589  1.00  0.00    -0.264 F  
HETATM   15  N   UNL     1     -11.165  10.027  69.187  1.00  0.00    -0.190 NA 
HETATM   16  F   UNL     1      -8.734   7.025  70.682  1.00  0.00    -0.141 F  
BRANCH  15  17
HETATM   17  C   UNL     1     -11.102  10.706  67.931  1.00  0.00    -0.308 A  
HETATM   18  C   UNL     1     -10.226  10.231  66.939  1.00  0.00    -0.286 A  
HETATM   19  C   UNL     1     -10.225  10.807  65.663  1.00  0.00    -0.320 A  
HETATM   20  C   UNL     1     -11.092  11.866  65.387  1.00  0.00    -0.306 A  
HETATM   21  C   UNL     1     -11.898  12.406  66.392  1.00  0.00    -0.421 A  
HETATM   22  C   UNL     1     -11.888  11.835  67.666  1.00  0.00    -0.241 A  
BRANCH  20  23
HETATM   23  S   UNL     1     -11.162  12.556  63.754  1.00  0.00    -0.494 S  
HETATM   24  O   UNL     1      -9.899  12.302  63.104  1.00  0.00    -0.373 OA 
HETATM   25  O   UNL     1     -11.752  13.873  63.837  1.00  0.00    -0.332 OA 
HETATM   26  N   UNL     1     -12.304  11.563  63.038  1.00  0.00    -0.935 N  
HETATM   27  H1  UNL     1     -12.344  11.960  62.099  1.00  0.00     0.000 HD 
HETATM   28  H2  UNL     1     -12.819  10.777  63.433  1.00  0.00     0.000 HD 
ENDBRANCH  20  23
ENDBRANCH  15  17
ENDBRANCH   5   8
TORSDOF 3
ENDMDL
MODEL       21
REMARK 921   NORMALIZED FREE ENERGY PREDICTED BY IDOCK:   -7.17 KCAL/MOL
REMARK 922        TOTAL FREE ENERGY PREDICTED BY IDOCK:   -9.09 KCAL/MOL
REMARK 923 INTER-LIGAND FREE ENERGY PREDICTED BY IDOCK:   -8.16 KCAL/MOL
REMARK 924 INTRA-LIGAND FREE ENERGY PREDICTED BY IDOCK:   -0.93 KCAL/MOL
REMARK 927      BINDING AFFINITY PREDICTED BY RF-SCORE:    0.00 PKD
ROOT
HETATM    1  C   UNL     1     -12.223  11.733  63.306  1.00  0.00    -0.400 C  
HETATM    2  C   UNL     1     -11.886  12.964  64.093  1.00  0.00    -0.479 A  
HETATM    3  C   UNL     1     -10.556  13.313  64.334  1.00  0.00    -0.438 A  
HETATM    4  C   UNL     1     -10.244  14.344  65.226  1.00  0.00    -0.416 A  
HETATM    5  C   UNL     1     -11.254  15.053  65.892  1.00  0.00    -0.313 A  
HETATM    6  C   UNL     1     -12.899  13.732  64.674  1.00  0.00    -0.059 A  
HETATM    7  C   UNL     1     -12.583  14.796  65.527  1.00  0.00     0.032 A  
ENDROOT
BRANCH   5   8
HETATM    8  C   UNL     1     -10.895  16.000  66.965  1.00  0.00    -0.227 A  
HETATM    9  C   UNL     1     -10.349  17.267  66.826  1.00  0.00    -0.308 A  
HETATM   10  C   UNL     1     -10.232  17.808  68.125  1.00  0.00    -0.382 A  
HETATM   11  N   UNL     1     -10.743  16.959  69.032  1.00  0.00    -0.328 NA 
HETATM   12  C   UNL     1      -9.643  19.143  68.494  1.00  0.00    -0.395 C  
HETATM   13  F   UNL     1      -9.216  19.823  67.392  1.00  0.00    -0.347 F  
HETATM   14  F   UNL     1     -10.530  19.954  69.126  1.00  0.00    -0.472 F  
HETATM   15  N   UNL     1     -10.990  15.805  68.351  1.00  0.00    -0.306 NA 
HETATM   16  F   UNL     1      -8.560  19.021  69.307  1.00  0.00    -0.282 F  
BRANCH  15  17
HETATM   17  C   UNL     1     -11.278  14.627  69.107  1.00  0.00    -0.270 A  
HETATM   18  C   UNL     1     -11.974  14.747  70.323  1.00  0.00    -0.367 A  
HETATM   19  C   UNL     1     -12.366  13.604  71.027  1.00  0.00    -0.436 A  
HETATM   20  C   UNL     1     -12.049  12.342  70.520  1.00  0.00    -0.282 A  
HETATM   21  C   UNL     1     -11.277  12.213  69.363  1.00  0.00    -0.248 A  
HETATM   22  C   UNL     1     -10.879  13.358  68.669  1.00  0.00    -0.287 A  
BRANCH  20  23
HETATM   23  S   UNL     1     -12.608  10.881  71.357  1.00  0.00    -0.386 S  
HETATM   24  O   UNL     1     -13.509  11.282  72.410  1.00  0.00    -0.223 OA 
HETATM   25  O   UNL     1     -11.469  10.019  71.584  1.00  0.00    -0.282 OA 
HETATM   26  N   UNL     1     -13.525  10.158  70.158  1.00  0.00    -0.259 N  
HETATM   27  H1  UNL     1     -13.846   9.318  70.640  1.00  0.00     0.000 HD 
HETATM   28  H2  UNL     1     -13.712  10.471  69.207  1.00  0.00     0.000 HD 
ENDBRANCH  20  23
ENDBRANCH  15  17
ENDBRANCH   5   8
TORSDOF 3
ENDMDL
MODEL       22
REMARK 921   NORMALIZED FREE ENERGY PREDICTED BY IDOCK:   -7.12 KCAL/MOL
REMARK 922        TOTAL FREE ENERGY PREDICTED BY IDOCK:   -9.04 KCAL/MOL
REMARK 923 INTER-LIGAND FREE ENERGY PREDICTED BY IDOCK:   -8.44 KCAL/MOL
REMARK 924 INTRA-LIGAND FREE ENERGY PREDICTED BY IDOCK:   -0.60 KCAL/MOL
REMARK 927      BINDING AFFINITY PREDICTED BY RF-SCORE:    0.00 PKD
ROOT
HETATM    1  C   UNL     1     -10.328  12.172  63.965  1.00  0.00    -0.412 C  
HETATM    2  C   UNL     1     -10.746  12.712  65.300  1.00  0.00    -0.318 A  
HETATM    3  C   UNL     1      -9.797  12.984  66.287  1.00  0.00    -0.278 A  
HETATM    4  C   UNL     1     -10.198  13.300  67.589  1.00  0.00    -0.228 A  
HETATM    5  C   UNL     1     -11.556  13.358  67.932  1.00  0.00    -0.374 A  
HETATM    6  C   UNL     1     -12.100  12.868  65.609  1.00  0.00    -0.511 A  
HETATM    7  C   UNL     1     -12.497  13.233  66.900  1.00  0.00    -0.045 A  
ENDROOT
BRANCH   5   8
HETATM    8  C   UNL     1     -11.946  13.504  69.348  1.00  0.00    -0.330 A  
HETATM    9  C   UNL     1     -12.243  14.675  70.026  1.00  0.00    -0.385 A  
HETATM   10  C   UNL     1     -12.610  14.309  71.339  1.00  0.00    -0.360 A  
HETATM   11  N   UNL     1     -12.616  12.971  71.465  1.00  0.00    -0.242 NA 
HETATM   12  C   UNL     1     -12.968  15.239  72.467  1.00  0.00    -0.393 C  
HETATM   13  F   UNL     1     -12.909  16.545  72.077  1.00  0.00    -0.313 F  
HETATM   14  F   UNL     1     -14.225  15.036  72.939  1.00  0.00    -0.447 F  
HETATM   15  N   UNL     1     -12.057  12.496  70.317  1.00  0.00    -0.341 NA 
HETATM   16  F   UNL     1     -12.119  15.120  73.521  1.00  0.00    -0.471 F  
BRANCH  15  17
HETATM   17  C   UNL     1     -11.673  11.120  70.277  1.00  0.00    -0.341 A  
HETATM   18  C   UNL     1     -12.269  10.216  71.174  1.00  0.00    -0.490 A  
HETATM   19  C   UNL     1     -11.996   8.847  71.082  1.00  0.00    -0.344 A  
HETATM   20  C   UNL     1     -11.115   8.386  70.101  1.00  0.00    -0.182 A  
HETATM   21  C   UNL     1     -10.446   9.285  69.268  1.00  0.00    -0.228 A  
HETATM   22  C   UNL     1     -10.714  10.652  69.369  1.00  0.00    -0.281 A  
BRANCH  20  23
HETATM   23  S   UNL     1     -10.818   6.647  69.919  1.00  0.00    -0.306 S  
HETATM   24  O   UNL     1     -11.606   5.949  70.906  1.00  0.00    -0.172 OA 
HETATM   25  O   UNL     1      -9.396   6.438  69.759  1.00  0.00    -0.146 OA 
HETATM   26  N   UNL     1     -11.516   6.359  68.425  1.00  0.00    -0.501 N  
HETATM   27  H1  UNL     1     -11.345   5.359  68.321  1.00  0.00     0.000 HD 
HETATM   28  H2  UNL     1     -11.983   7.008  67.792  1.00  0.00     0.000 HD 
ENDBRANCH  20  23
ENDBRANCH  15  17
ENDBRANCH   5   8
TORSDOF 3
ENDMDL
MODEL       23
REMARK 921   NORMALIZED FREE ENERGY PREDICTED BY IDOCK:   -7.10 KCAL/MOL
REMARK 922        TOTAL FREE ENERGY PREDICTED BY IDOCK:   -9.01 KCAL/MOL
REMARK 923 INTER-LIGAND FREE ENERGY PREDICTED BY IDOCK:   -8.02 KCAL/MOL
REMARK 924 INTRA-LIGAND FREE ENERGY PREDICTED BY IDOCK:   -0.98 KCAL/MOL
REMARK 927      BINDING AFFINITY PREDICTED BY RF-SCORE:    0.00 PKD
ROOT
HETATM    1  C   UNL     1     -10.507   7.142  73.595  1.00  0.00    -0.412 C  
HETATM    2  C   UNL     1     -10.587   8.190  72.525  1.00  0.00    -0.411 A  
HETATM    3  C   UNL     1     -11.820   8.708  72.127  1.00  0.00    -0.447 A  
HETATM    4  C   UNL     1     -11.912   9.535  71.003  1.00  0.00    -0.407 A  
HETATM    5  C   UNL     1     -10.773   9.867  70.256  1.00  0.00    -0.367 A  
HETATM    6  C   UNL     1      -9.435   8.599  71.847  1.00  0.00    -0.369 A  
HETATM    7  C   UNL     1      -9.525   9.467  70.754  1.00  0.00    -0.307 A  
ENDROOT
BRANCH   5   8
HETATM    8  C   UNL     1     -10.924  10.580  68.973  1.00  0.00    -0.243 A  
HETATM    9  C   UNL     1     -11.428  11.855  68.768  1.00  0.00    -0.347 A  
HETATM   10  C   UNL     1     -11.323  12.121  67.385  1.00  0.00    -0.326 A  
HETATM   11  N   UNL     1     -10.720  11.098  66.758  1.00  0.00    -0.267 NA 
HETATM   12  C   UNL     1     -11.791  13.359  66.669  1.00  0.00    -0.395 C  
HETATM   13  F   UNL     1     -12.349  14.256  67.532  1.00  0.00    -0.405 F  
HETATM   14  F   UNL     1     -10.783  14.013  66.034  1.00  0.00    -0.283 F  
HETATM   15  N   UNL     1     -10.630  10.105  67.686  1.00  0.00    -0.245 NA 
HETATM   16  F   UNL     1     -12.743  13.087  65.738  1.00  0.00    -0.483 F  
BRANCH  15  17
HETATM   17  C   UNL     1     -10.284   8.794  67.235  1.00  0.00    -0.263 A  
HETATM   18  C   UNL     1     -11.070   7.701  67.641  1.00  0.00     0.115 A  
HETATM   19  C   UNL     1     -10.821   6.423  67.126  1.00  0.00    -0.467 A  
HETATM   20  C   UNL     1      -9.778   6.240  66.215  1.00  0.00    -0.041 A  
HETATM   21  C   UNL     1      -8.934   7.300  65.879  1.00  0.00    -0.103 A  
HETATM   22  C   UNL     1      -9.179   8.571  66.403  1.00  0.00    -0.251 A  
BRANCH  20  23
HETATM   23  S   UNL     1      -9.500   4.645  65.492  1.00  0.00    -0.175 S  
HETATM   24  O   UNL     1      -9.147   3.726  66.547  1.00  0.00    -0.134 OA 
HETATM   25  O   UNL     1      -8.700   4.815  64.299  1.00  0.00    -0.141 OA 
HETATM   26  N   UNL     1     -11.045   4.253  64.981  1.00  0.00    -0.847 N  
HETATM   27  H1  UNL     1     -10.885   3.336  64.565  1.00  0.00     0.000 HD 
HETATM   28  H2  UNL     1     -11.910   4.786  65.063  1.00  0.00     0.000 HD 
ENDBRANCH  20  23
ENDBRANCH  15  17
ENDBRANCH   5   8
TORSDOF 3
ENDMDL
MODEL       24
REMARK 921   NORMALIZED FREE ENERGY PREDICTED BY IDOCK:   -7.08 KCAL/MOL
REMARK 922        TOTAL FREE ENERGY PREDICTED BY IDOCK:   -8.98 KCAL/MOL
REMARK 923 INTER-LIGAND FREE ENERGY PREDICTED BY IDOCK:   -8.30 KCAL/MOL
REMARK 924 INTRA-LIGAND FREE ENERGY PREDICTED BY IDOCK:   -0.69 KCAL/MOL
REMARK 927      BINDING AFFINITY PREDICTED BY RF-SCORE:    0.00 PKD
ROOT
HETATM    1  C   UNL     1      -9.274  11.475  64.802  1.00  0.00     0.020 C  
HETATM    2  C   UNL     1      -9.883  12.130  66.006  1.00  0.00    -0.260 A  
HETATM    3  C   UNL     1      -9.104  12.425  67.127  1.00  0.00    -0.199 A  
HETATM    4  C   UNL     1      -9.705  12.853  68.315  1.00  0.00    -0.217 A  
HETATM    5  C   UNL     1     -11.096  13.002  68.408  1.00  0.00    -0.292 A  
HETATM    6  C   UNL     1     -11.259  12.374  66.060  1.00  0.00    -0.374 A  
HETATM    7  C   UNL     1     -11.849  12.851  67.236  1.00  0.00    -0.416 A  
ENDROOT
BRANCH   5   8
HETATM    8  C   UNL     1     -11.715  13.268  69.720  1.00  0.00    -0.284 A  
HETATM    9  C   UNL     1     -11.953  14.501  70.308  1.00  0.00    -0.379 A  
HETATM   10  C   UNL     1     -12.609  14.252  71.534  1.00  0.00    -0.354 A  
HETATM   11  N   UNL     1     -12.840  12.937  71.681  1.00  0.00    -0.312 NA 
HETATM   12  C   UNL     1     -13.025  15.275  72.555  1.00  0.00    -0.393 C  
HETATM   13  F   UNL     1     -12.699  16.539  72.160  1.00  0.00    -0.390 F  
HETATM   14  F   UNL     1     -14.365  15.278  72.783  1.00  0.00    -0.505 F  
HETATM   15  N   UNL     1     -12.155  12.333  70.669  1.00  0.00    -0.324 NA 
HETATM   16  F   UNL     1     -12.415  15.084  73.755  1.00  0.00    -0.519 F  
BRANCH  15  17
HETATM   17  C   UNL     1     -11.983  10.915  70.727  1.00  0.00    -0.346 A  
HETATM   18  C   UNL     1     -10.816  10.345  70.188  1.00  0.00    -0.333 A  
HETATM   19  C   UNL     1     -10.570   8.975  70.331  1.00  0.00    -0.258 A  
HETATM   20  C   UNL     1     -11.498   8.176  71.002  1.00  0.00    -0.279 A  
HETATM   21  C   UNL     1     -12.702   8.715  71.459  1.00  0.00    -0.351 A  
HETATM   22  C   UNL     1     -12.949  10.082  71.304  1.00  0.00    -0.495 A  
BRANCH  20  23
HETATM   23  S   UNL     1     -11.164   6.453  71.262  1.00  0.00    -0.303 S  
HETATM   24  O   UNL     1     -11.399   5.756  70.021  1.00  0.00    -0.285 OA 
HETATM   25  O   UNL     1     -11.768   6.053  72.514  1.00  0.00    -0.292 OA 
HETATM   26  N   UNL     1      -9.510   6.484  71.516  1.00  0.00    -0.158 N  
HETATM   27  H1  UNL     1      -9.319   5.494  71.666  1.00  0.00     0.000 HD 
HETATM   28  H2  UNL     1      -8.869   7.277  71.520  1.00  0.00     0.000 HD 
ENDBRANCH  20  23
ENDBRANCH  15  17
ENDBRANCH   5   8
TORSDOF 3
ENDMDL
MODEL       25
REMARK 921   NORMALIZED FREE ENERGY PREDICTED BY IDOCK:   -7.04 KCAL/MOL
REMARK 922        TOTAL FREE ENERGY PREDICTED BY IDOCK:   -8.94 KCAL/MOL
REMARK 923 INTER-LIGAND FREE ENERGY PREDICTED BY IDOCK:   -7.89 KCAL/MOL
REMARK 924 INTRA-LIGAND FREE ENERGY PREDICTED BY IDOCK:   -1.04 KCAL/MOL
REMARK 927      BINDING AFFINITY PREDICTED BY RF-SCORE:    0.00 PKD
ROOT
HETATM    1  C   UNL     1      -6.141  15.711  70.108  1.00  0.00    -0.114 C  
HETATM    2  C   UNL     1      -7.240  14.884  69.512  1.00  0.00    -0.184 A  
HETATM    3  C   UNL     1      -6.971  13.625  68.972  1.00  0.00    -0.098 A  
HETATM    4  C   UNL     1      -7.950  12.941  68.245  1.00  0.00    -0.151 A  
HETATM    5  C   UNL     1      -9.222  13.496  68.047  1.00  0.00    -0.209 A  
HETATM    6  C   UNL     1      -8.536  15.397  69.406  1.00  0.00    -0.249 A  
HETATM    7  C   UNL     1      -9.528  14.687  68.721  1.00  0.00    -0.199 A  
ENDROOT
BRANCH   5   8
HETATM    8  C   UNL     1     -10.167  12.843  67.121  1.00  0.00    -0.239 A  
HETATM    9  C   UNL     1     -10.577  13.292  65.875  1.00  0.00    -0.288 A  
HETATM   10  C   UNL     1     -11.442  12.309  65.347  1.00  0.00    -0.354 A  
HETATM   11  N   UNL     1     -11.520  11.260  66.182  1.00  0.00    -0.179 NA 
HETATM   12  C   UNL     1     -12.182  12.371  64.039  1.00  0.00    -0.490 C  
HETATM   13  F   UNL     1     -11.918  13.528  63.367  1.00  0.00    -0.499 F  
HETATM   14  F   UNL     1     -11.853  11.355  63.199  1.00  0.00    -0.432 F  
HETATM   15  N   UNL     1     -10.885  11.655  67.321  1.00  0.00    -0.241 NA 
HETATM   16  F   UNL     1     -13.531  12.331  64.207  1.00  0.00    -0.363 F  
BRANCH  15  17
HETATM   17  C   UNL     1     -11.046  10.852  68.493  1.00  0.00    -0.256 A  
HETATM   18  C   UNL     1     -11.905  11.295  69.513  1.00  0.00    -0.427 A  
HETATM   19  C   UNL     1     -12.168  10.478  70.619  1.00  0.00    -0.446 A  
HETATM   20  C   UNL     1     -11.560   9.224  70.707  1.00  0.00    -0.285 A  
HETATM   21  C   UNL     1     -10.633   8.814  69.746  1.00  0.00    -0.227 A  
HETATM   22  C   UNL     1     -10.365   9.637  68.650  1.00  0.00    -0.226 A  
BRANCH  20  23
HETATM   23  S   UNL     1     -11.943   8.143  72.060  1.00  0.00    -0.363 S  
HETATM   24  O   UNL     1     -10.836   8.169  72.985  1.00  0.00    -0.331 OA 
HETATM   25  O   UNL     1     -12.492   6.916  71.526  1.00  0.00    -0.355 OA 
HETATM   26  N   UNL     1     -13.214   8.965  72.775  1.00  0.00    -0.687 N  
HETATM   27  H1  UNL     1     -13.434   8.344  73.552  1.00  0.00     0.000 HD 
HETATM   28  H2  UNL     1     -13.649   9.847  72.505  1.00  0.00     0.000 HD 
ENDBRANCH  20  23
ENDBRANCH  15  17
ENDBRANCH   5   8
TORSDOF 3
ENDMDL
MODEL       26
REMARK 921   NORMALIZED FREE ENERGY PREDICTED BY IDOCK:   -6.96 KCAL/MOL
REMARK 922        TOTAL FREE ENERGY PREDICTED BY IDOCK:   -8.85 KCAL/MOL
REMARK 923 INTER-LIGAND FREE ENERGY PREDICTED BY IDOCK:   -8.39 KCAL/MOL
REMARK 924 INTRA-LIGAND FREE ENERGY PREDICTED BY IDOCK:   -0.46 KCAL/MOL
REMARK 927      BINDING AFFINITY PREDICTED BY RF-SCORE:    0.00 PKD
ROOT
HETATM    1  C   UNL     1      -9.382   9.959  64.387  1.00  0.00    -0.326 C  
HETATM    2  C   UNL     1     -10.172  10.479  65.551  1.00  0.00    -0.325 A  
HETATM    3  C   UNL     1     -10.627  11.799  65.569  1.00  0.00    -0.323 A  
HETATM    4  C   UNL     1     -11.190  12.339  66.729  1.00  0.00    -0.371 A  
HETATM    5  C   UNL     1     -11.317  11.571  67.895  1.00  0.00    -0.372 A  
HETATM    6  C   UNL     1     -10.388   9.678  66.676  1.00  0.00    -0.279 A  
HETATM    7  C   UNL     1     -10.998  10.208  67.818  1.00  0.00    -0.338 A  
ENDROOT
BRANCH   5   8
HETATM    8  C   UNL     1     -11.736  12.217  69.153  1.00  0.00    -0.323 A  
HETATM    9  C   UNL     1     -11.975  13.565  69.373  1.00  0.00    -0.383 A  
HETATM   10  C   UNL     1     -12.402  13.694  70.713  1.00  0.00    -0.371 A  
HETATM   11  N   UNL     1     -12.498  12.485  71.290  1.00  0.00    -0.254 NA 
HETATM   12  C   UNL     1     -12.729  14.974  71.433  1.00  0.00    -0.341 C  
HETATM   13  F   UNL     1     -12.575  16.059  70.622  1.00  0.00    -0.432 F  
HETATM   14  F   UNL     1     -14.010  15.011  71.885  1.00  0.00    -0.397 F  
HETATM   15  N   UNL     1     -11.939  11.614  70.403  1.00  0.00    -0.370 NA 
HETATM   16  F   UNL     1     -11.919  15.183  72.505  1.00  0.00    -0.391 F  
BRANCH  15  17
HETATM   17  C   UNL     1     -11.644  10.291  70.857  1.00  0.00    -0.365 A  
HETATM   18  C   UNL     1     -12.703   9.443  71.228  1.00  0.00    -0.391 A  
HETATM   19  C   UNL     1     -12.452   8.109  71.568  1.00  0.00    -0.333 A  
HETATM   20  C   UNL     1     -11.140   7.630  71.549  1.00  0.00    -0.236 A  
HETATM   21  C   UNL     1     -10.074   8.488  71.274  1.00  0.00    -0.286 A  
HETATM   22  C   UNL     1     -10.328   9.821  70.945  1.00  0.00    -0.245 A  
BRANCH  20  23
HETATM   23  S   UNL     1     -10.813   5.922  71.900  1.00  0.00    -0.261 S  
HETATM   24  O   UNL     1     -10.503   5.258  70.657  1.00  0.00    -0.260 OA 
HETATM   25  O   UNL     1     -11.821   5.440  72.818  1.00  0.00    -0.268 OA 
HETATM   26  N   UNL     1      -9.389   6.043  72.773  1.00  0.00    -0.145 N  
HETATM   27  H1  UNL     1      -9.201   5.062  72.974  1.00  0.00     0.000 HD 
HETATM   28  H2  UNL     1      -8.857   6.873  73.032  1.00  0.00     0.000 HD 
ENDBRANCH  20  23
ENDBRANCH  15  17
ENDBRANCH   5   8
TORSDOF 3
ENDMDL
MODEL       27
REMARK 921   NORMALIZED FREE ENERGY PREDICTED BY IDOCK:   -6.85 KCAL/MOL
REMARK 922        TOTAL FREE ENERGY PREDICTED BY IDOCK:   -8.71 KCAL/MOL
REMARK 923 INTER-LIGAND FREE ENERGY PREDICTED BY IDOCK:   -8.02 KCAL/MOL
REMARK 924 INTRA-LIGAND FREE ENERGY PREDICTED BY IDOCK:   -0.69 KCAL/MOL
REMARK 927      BINDING AFFINITY PREDICTED BY RF-SCORE:    0.00 PKD
ROOT
HETATM    1  C   UNL     1     -13.280  15.545  72.881  1.00  0.00    -0.633 C  
HETATM    2  C   UNL     1     -12.915  14.855  71.601  1.00  0.00    -0.415 A  
HETATM    3  C   UNL     1     -12.883  13.461  71.528  1.00  0.00    -0.427 A  
HETATM    4  C   UNL     1     -12.357  12.822  70.401  1.00  0.00    -0.324 A  
HETATM    5  C   UNL     1     -11.858  13.561  69.319  1.00  0.00    -0.392 A  
HETATM    6  C   UNL     1     -12.514  15.596  70.486  1.00  0.00    -0.440 A  
HETATM    7  C   UNL     1     -12.036  14.951  69.339  1.00  0.00    -0.336 A  
ENDROOT
BRANCH   5   8
HETATM    8  C   UNL     1     -11.139  12.870  68.232  1.00  0.00    -0.264 A  
HETATM    9  C   UNL     1     -11.076  11.506  67.994  1.00  0.00    -0.313 A  
HETATM   10  C   UNL     1     -10.319  11.328  66.815  1.00  0.00    -0.238 A  
HETATM   11  N   UNL     1      -9.981  12.519  66.295  1.00  0.00    -0.247 NA 
HETATM   12  C   UNL     1      -9.930  10.019  66.184  1.00  0.00    -0.256 C  
HETATM   13  F   UNL     1     -10.415   8.958  66.891  1.00  0.00    -0.311 F  
HETATM   14  F   UNL     1     -10.404   9.884  64.917  1.00  0.00    -0.364 F  
HETATM   15  N   UNL     1     -10.333  13.440  67.236  1.00  0.00    -0.244 NA 
HETATM   16  F   UNL     1      -8.582   9.853  66.127  1.00  0.00    -0.123 F  
BRANCH  15  17
HETATM   17  C   UNL     1      -9.843  14.774  67.086  1.00  0.00    -0.232 A  
HETATM   18  C   UNL     1      -8.825  15.230  67.942  1.00  0.00    -0.165 A  
HETATM   19  C   UNL     1      -8.251  16.491  67.746  1.00  0.00    -0.173 A  
HETATM   20  C   UNL     1      -8.705  17.298  66.701  1.00  0.00    -0.257 A  
HETATM   21  C   UNL     1      -9.779  16.894  65.904  1.00  0.00    -0.205 A  
HETATM   22  C   UNL     1     -10.357  15.639  66.110  1.00  0.00    -0.329 A  
BRANCH  20  23
HETATM   23  S   UNL     1      -7.934  18.865  66.388  1.00  0.00    -0.277 S  
HETATM   24  O   UNL     1      -8.930  19.897  66.544  1.00  0.00    -0.342 OA 
HETATM   25  O   UNL     1      -7.109  18.743  65.207  1.00  0.00    -0.503 OA 
HETATM   26  N   UNL     1      -6.891  18.973  67.693  1.00  0.00    -0.211 N  
HETATM   27  H1  UNL     1      -6.448  19.874  67.513  1.00  0.00     0.000 HD 
HETATM   28  H2  UNL     1      -6.740  18.316  68.458  1.00  0.00     0.000 HD 
ENDBRANCH  20  23
ENDBRANCH  15  17
ENDBRANCH   5   8
TORSDOF 3
ENDMDL
MODEL       28
REMARK 921   NORMALIZED FREE ENERGY PREDICTED BY IDOCK:   -6.81 KCAL/MOL
REMARK 922        TOTAL FREE ENERGY PREDICTED BY IDOCK:   -8.67 KCAL/MOL
REMARK 923 INTER-LIGAND FREE ENERGY PREDICTED BY IDOCK:   -7.67 KCAL/MOL
REMARK 924 INTRA-LIGAND FREE ENERGY PREDICTED BY IDOCK:   -1.00 KCAL/MOL
REMARK 927      BINDING AFFINITY PREDICTED BY RF-SCORE:    0.00 PKD
ROOT
HETATM    1  C   UNL     1     -12.085  16.116  72.417  1.00  0.00    -0.630 C  
HETATM    2  C   UNL     1     -11.744  15.281  71.219  1.00  0.00    -0.425 A  
HETATM    3  C   UNL     1     -10.963  15.801  70.186  1.00  0.00    -0.361 A  
HETATM    4  C   UNL     1     -10.809  15.096  68.989  1.00  0.00    -0.242 A  
HETATM    5  C   UNL     1     -11.428  13.852  68.798  1.00  0.00    -0.327 A  
HETATM    6  C   UNL     1     -12.279  13.997  71.076  1.00  0.00    -0.430 A  
HETATM    7  C   UNL     1     -12.081  13.273  69.895  1.00  0.00    -0.377 A  
ENDROOT
BRANCH   5   8
HETATM    8  C   UNL     1     -11.406  13.222  67.465  1.00  0.00    -0.296 A  
HETATM    9  C   UNL     1     -11.985  13.694  66.297  1.00  0.00    -0.461 A  
HETATM   10  C   UNL     1     -11.653  12.780  65.274  1.00  0.00    -0.344 A  
HETATM   11  N   UNL     1     -10.846  11.819  65.752  1.00  0.00    -0.284 NA 
HETATM   12  C   UNL     1     -12.099  12.836  63.838  1.00  0.00    -0.486 C  
HETATM   13  F   UNL     1     -12.892  13.919  63.601  1.00  0.00    -0.213 F  
HETATM   14  F   UNL     1     -11.059  12.923  62.967  1.00  0.00    -0.361 F  
HETATM   15  N   UNL     1     -10.834  11.994  67.103  1.00  0.00    -0.242 NA 
HETATM   16  F   UNL     1     -12.830  11.746  63.482  1.00  0.00    -0.638 F  
BRANCH  15  17
HETATM   17  C   UNL     1     -10.283  10.951  67.911  1.00  0.00    -0.179 A  
HETATM   18  C   UNL     1     -11.141   9.972  68.442  1.00  0.00    -0.236 A  
HETATM   19  C   UNL     1     -10.617   8.879  69.142  1.00  0.00    -0.211 A  
HETATM   20  C   UNL     1      -9.235   8.775  69.319  1.00  0.00    -0.149 A  
HETATM   21  C   UNL     1      -8.383   9.789  68.876  1.00  0.00    -0.120 A  
HETATM   22  C   UNL     1      -8.912  10.883  68.188  1.00  0.00    -0.144 A  
BRANCH  20  23
HETATM   23  S   UNL     1      -8.548   7.356  70.132  1.00  0.00    -0.139 S  
HETATM   24  O   UNL     1      -7.727   7.817  71.225  1.00  0.00    -0.081 OA 
HETATM   25  O   UNL     1      -8.069   6.436  69.124  1.00  0.00    -0.109 OA 
HETATM   26  N   UNL     1      -9.924   6.670  70.793  1.00  0.00    -0.184 N  
HETATM   27  H1  UNL     1      -9.528   5.854  71.261  1.00  0.00     0.000 HD 
HETATM   28  H2  UNL     1     -10.893   6.982  70.742  1.00  0.00     0.000 HD 
ENDBRANCH  20  23
ENDBRANCH  15  17
ENDBRANCH   5   8
TORSDOF 3
ENDMDL
MODEL       29
REMARK 921   NORMALIZED FREE ENERGY PREDICTED BY IDOCK:   -6.80 KCAL/MOL
REMARK 922        TOTAL FREE ENERGY PREDICTED BY IDOCK:   -8.66 KCAL/MOL
REMARK 923 INTER-LIGAND FREE ENERGY PREDICTED BY IDOCK:   -7.86 KCAL/MOL
REMARK 924 INTRA-LIGAND FREE ENERGY PREDICTED BY IDOCK:   -0.80 KCAL/MOL
REMARK 927      BINDING AFFINITY PREDICTED BY RF-SCORE:    0.00 PKD
ROOT
HETATM    1  C   UNL     1      -9.724  18.104  66.354  1.00  0.00    -0.329 C  
HETATM    2  C   UNL     1     -10.395  16.897  66.938  1.00  0.00    -0.304 A  
HETATM    3  C   UNL     1     -10.439  16.706  68.320  1.00  0.00    -0.321 A  
HETATM    4  C   UNL     1     -10.887  15.494  68.854  1.00  0.00    -0.254 A  
HETATM    5  C   UNL     1     -11.307  14.448  68.020  1.00  0.00    -0.316 A  
HETATM    6  C   UNL     1     -10.906  15.898  66.104  1.00  0.00    -0.208 A  
HETATM    7  C   UNL     1     -11.401  14.706  66.645  1.00  0.00    -0.358 A  
ENDROOT
BRANCH   5   8
HETATM    8  C   UNL     1     -11.591  13.122  68.599  1.00  0.00    -0.321 A  
HETATM    9  C   UNL     1     -12.154  12.842  69.835  1.00  0.00    -0.329 A  
HETATM   10  C   UNL     1     -12.277  11.438  69.922  1.00  0.00    -0.277 A  
HETATM   11  N   UNL     1     -11.882  10.863  68.774  1.00  0.00    -0.432 NA 
HETATM   12  C   UNL     1     -12.786  10.650  71.099  1.00  0.00    -0.422 C  
HETATM   13  F   UNL     1     -13.145  11.467  72.131  1.00  0.00    -0.586 F  
HETATM   14  F   UNL     1     -13.881   9.904  70.801  1.00  0.00    -0.378 F  
HETATM   15  N   UNL     1     -11.316  11.864  68.043  1.00  0.00    -0.264 NA 
HETATM   16  F   UNL     1     -11.846   9.803  71.597  1.00  0.00    -0.416 F  
BRANCH  15  17
HETATM   17  C   UNL     1     -10.553  11.504  66.889  1.00  0.00    -0.247 A  
HETATM   18  C   UNL     1      -9.179  11.243  67.031  1.00  0.00    -0.173 A  
HETATM   19  C   UNL     1      -8.433  10.781  65.941  1.00  0.00    -0.166 A  
HETATM   20  C   UNL     1      -9.061  10.593  64.708  1.00  0.00    -0.209 A  
HETATM   21  C   UNL     1     -10.403  10.938  64.533  1.00  0.00    -0.417 A  
HETATM   22  C   UNL     1     -11.141  11.409  65.621  1.00  0.00    -0.207 A  
BRANCH  20  23
HETATM   23  S   UNL     1      -8.149   9.932  63.337  1.00  0.00    -0.166 S  
HETATM   24  O   UNL     1      -8.987   8.973  62.659  1.00  0.00    -0.181 OA 
HETATM   25  O   UNL     1      -6.808   9.626  63.783  1.00  0.00    -0.102 OA 
HETATM   26  N   UNL     1      -8.031  11.281  62.353  1.00  0.00    -0.473 N  
HETATM   27  H1  UNL     1      -7.506  10.901  61.565  1.00  0.00     0.000 HD 
HETATM   28  H2  UNL     1      -8.386  12.225  62.502  1.00  0.00     0.000 HD 
ENDBRANCH  20  23
ENDBRANCH  15  17
ENDBRANCH   5   8
TORSDOF 3
ENDMDL
MODEL       30
REMARK 921   NORMALIZED FREE ENERGY PREDICTED BY IDOCK:   -6.78 KCAL/MOL
REMARK 922        TOTAL FREE ENERGY PREDICTED BY IDOCK:   -8.64 KCAL/MOL
REMARK 923 INTER-LIGAND FREE ENERGY PREDICTED BY IDOCK:   -7.56 KCAL/MOL
REMARK 924 INTRA-LIGAND FREE ENERGY PREDICTED BY IDOCK:   -1.08 KCAL/MOL
REMARK 927      BINDING AFFINITY PREDICTED BY RF-SCORE:    0.00 PKD
ROOT
HETATM    1  C   UNL     1      -6.052  18.412  65.492  1.00  0.00    -0.281 C  
HETATM    2  C   UNL     1      -7.097  18.010  66.490  1.00  0.00    -0.263 A  
HETATM    3  C   UNL     1      -6.765  17.213  67.587  1.00  0.00    -0.160 A  
HETATM    4  C   UNL     1      -7.766  16.679  68.404  1.00  0.00    -0.200 A  
HETATM    5  C   UNL     1      -9.121  16.934  68.147  1.00  0.00    -0.231 A  
HETATM    6  C   UNL     1      -8.437  18.352  66.288  1.00  0.00    -0.218 A  
HETATM    7  C   UNL     1      -9.432  17.857  67.138  1.00  0.00    -0.263 A  
ENDROOT
BRANCH   5   8
HETATM    8  C   UNL     1     -10.157  16.208  68.905  1.00  0.00    -0.238 A  
HETATM    9  C   UNL     1     -10.726  16.567  70.117  1.00  0.00    -0.168 A  
HETATM   10  C   UNL     1     -11.704  15.593  70.416  1.00  0.00    -0.357 A  
HETATM   11  N   UNL     1     -11.801  14.705  69.413  1.00  0.00    -0.312 NA 
HETATM   12  C   UNL     1     -12.552  15.522  71.657  1.00  0.00    -0.419 C  
HETATM   13  F   UNL     1     -12.279  16.551  72.511  1.00  0.00    -0.516 F  
HETATM   14  F   UNL     1     -13.883  15.588  71.390  1.00  0.00    -0.513 F  
HETATM   15  N   UNL     1     -10.757  14.981  68.582  1.00  0.00    -0.237 NA 
HETATM   16  F   UNL     1     -12.341  14.379  72.362  1.00  0.00    -0.372 F  
BRANCH  15  17
HETATM   17  C   UNL     1     -10.434  14.026  67.570  1.00  0.00    -0.252 A  
HETATM   18  C   UNL     1      -9.784  12.834  67.935  1.00  0.00    -0.217 A  
HETATM   19  C   UNL     1      -9.557  11.834  66.984  1.00  0.00    -0.196 A  
HETATM   20  C   UNL     1      -9.969  12.034  65.664  1.00  0.00    -0.245 A  
HETATM   21  C   UNL     1     -10.530  13.251  65.271  1.00  0.00    -0.324 A  
HETATM   22  C   UNL     1     -10.745  14.251  66.222  1.00  0.00    -0.297 A  
BRANCH  20  23
HETATM   23  S   UNL     1      -9.761  10.745  64.463  1.00  0.00    -0.324 S  
HETATM   24  O   UNL     1     -10.646  11.014  63.356  1.00  0.00    -0.338 OA 
HETATM   25  O   UNL     1      -9.730   9.475  65.153  1.00  0.00    -0.277 OA 
HETATM   26  N   UNL     1      -8.199  11.045  63.941  1.00  0.00    -0.343 N  
HETATM   27  H1  UNL     1      -8.080  10.304  63.250  1.00  0.00     0.000 HD 
HETATM   28  H2  UNL     1      -7.545  11.771  64.234  1.00  0.00     0.000 HD 
ENDBRANCH  20  23
ENDBRANCH  15  17
ENDBRANCH   5   8
TORSDOF 3
ENDMDL
MODEL       31
REMARK 921   NORMALIZED FREE ENERGY PREDICTED BY IDOCK:   -6.71 KCAL/MOL
REMARK 922        TOTAL FREE ENERGY PREDICTED BY IDOCK:   -8.55 KCAL/MOL
REMARK 923 INTER-LIGAND FREE ENERGY PREDICTED BY IDOCK:   -7.98 KCAL/MOL
REMARK 924 INTRA-LIGAND FREE ENERGY PREDICTED BY IDOCK:   -0.57 KCAL/MOL
REMARK 927      BINDING AFFINITY PREDICTED BY RF-SCORE:    0.00 PKD
ROOT
HETATM    1  C   UNL     1     -10.231   5.750  73.541  1.00  0.00    -0.225 C  
HETATM    2  C   UNL     1     -10.362   6.697  72.385  1.00  0.00    -0.217 A  
HETATM    3  C   UNL     1     -11.136   6.361  71.273  1.00  0.00    -0.334 A  
HETATM    4  C   UNL     1     -11.101   7.152  70.121  1.00  0.00    -0.301 A  
HETATM    5  C   UNL     1     -10.298   8.298  70.055  1.00  0.00    -0.212 A  
HETATM    6  C   UNL     1      -9.638   7.893  72.364  1.00  0.00    -0.270 A  
HETATM    7  C   UNL     1      -9.646   8.708  71.227  1.00  0.00    -0.292 A  
ENDROOT
BRANCH   5   8
HETATM    8  C   UNL     1     -10.134   9.003  68.769  1.00  0.00    -0.199 A  
HETATM    9  C   UNL     1      -9.384   8.602  67.675  1.00  0.00    -0.157 A  
HETATM   10  C   UNL     1      -9.577   9.571  66.666  1.00  0.00    -0.188 A  
HETATM   11  N   UNL     1     -10.460  10.498  67.073  1.00  0.00    -0.237 NA 
HETATM   12  C   UNL     1      -8.926   9.600  65.310  1.00  0.00    -0.204 C  
HETATM   13  F   UNL     1      -8.091   8.536  65.132  1.00  0.00    -0.109 F  
HETATM   14  F   UNL     1      -9.826   9.555  64.292  1.00  0.00    -0.184 F  
HETATM   15  N   UNL     1     -10.666  10.246  68.396  1.00  0.00    -0.212 NA 
HETATM   16  F   UNL     1      -8.168  10.712  65.126  1.00  0.00    -0.161 F  
BRANCH  15  17
HETATM   17  C   UNL     1     -11.344  11.238  69.171  1.00  0.00    -0.282 A  
HETATM   18  C   UNL     1     -12.077  10.840  70.302  1.00  0.00    -0.433 A  
HETATM   19  C   UNL     1     -12.657  11.798  71.141  1.00  0.00    -0.412 A  
HETATM   20  C   UNL     1     -12.513  13.154  70.837  1.00  0.00    -0.323 A  
HETATM   21  C   UNL     1     -11.867  13.556  69.666  1.00  0.00    -0.398 A  
HETATM   22  C   UNL     1     -11.299  12.595  68.826  1.00  0.00    -0.333 A  
BRANCH  20  23
HETATM   23  S   UNL     1     -13.172  14.385  71.932  1.00  0.00    -0.396 S  
HETATM   24  O   UNL     1     -12.067  15.086  72.539  1.00  0.00    -0.351 OA 
HETATM   25  O   UNL     1     -14.243  13.789  72.700  1.00  0.00    -0.710 OA 
HETATM   26  N   UNL     1     -13.890  15.430  70.839  1.00  0.00    -0.844 N  
HETATM   27  H1  UNL     1     -14.269  16.138  71.468  1.00  0.00     0.000 HD 
HETATM   28  H2  UNL     1     -13.936  15.374  69.822  1.00  0.00     0.000 HD 
ENDBRANCH  20  23
ENDBRANCH  15  17
ENDBRANCH   5   8
TORSDOF 3
ENDMDL
MODEL       32
REMARK 921   NORMALIZED FREE ENERGY PREDICTED BY IDOCK:   -6.69 KCAL/MOL
REMARK 922        TOTAL FREE ENERGY PREDICTED BY IDOCK:   -8.53 KCAL/MOL
REMARK 923 INTER-LIGAND FREE ENERGY PREDICTED BY IDOCK:   -7.50 KCAL/MOL
REMARK 924 INTRA-LIGAND FREE ENERGY PREDICTED BY IDOCK:   -1.03 KCAL/MOL
REMARK 927      BINDING AFFINITY PREDICTED BY RF-SCORE:    0.00 PKD
ROOT
HETATM    1  C   UNL     1     -10.507   7.382  73.419  1.00  0.00    -0.419 C  
HETATM    2  C   UNL     1     -10.611   8.361  72.288  1.00  0.00    -0.412 A  
HETATM    3  C   UNL     1     -11.854   8.844  71.878  1.00  0.00    -0.440 A  
HETATM    4  C   UNL     1     -11.970   9.599  70.706  1.00  0.00    -0.356 A  
HETATM    5  C   UNL     1     -10.845   9.893  69.922  1.00  0.00    -0.316 A  
HETATM    6  C   UNL     1      -9.473   8.735  71.568  1.00  0.00    -0.341 A  
HETATM    7  C   UNL     1      -9.587   9.532  70.424  1.00  0.00    -0.326 A  
ENDROOT
BRANCH   5   8
HETATM    8  C   UNL     1     -11.021  10.523  68.600  1.00  0.00    -0.248 A  
HETATM    9  C   UNL     1     -11.587  11.757  68.321  1.00  0.00    -0.373 A  
HETATM   10  C   UNL     1     -11.485  11.950  66.925  1.00  0.00    -0.322 A  
HETATM   11  N   UNL     1     -10.825  10.926  66.361  1.00  0.00    -0.195 NA 
HETATM   12  C   UNL     1     -12.010  13.120  66.138  1.00  0.00    -0.422 C  
HETATM   13  F   UNL     1     -12.620  14.034  66.946  1.00  0.00    -0.430 F  
HETATM   14  F   UNL     1     -11.031  13.788  65.473  1.00  0.00    -0.289 F  
HETATM   15  N   UNL     1     -10.692   9.993  67.344  1.00  0.00    -0.280 NA 
HETATM   16  F   UNL     1     -12.938  12.748  65.218  1.00  0.00    -0.542 F  
BRANCH  15  17
HETATM   17  C   UNL     1     -10.276   8.677  66.970  1.00  0.00    -0.290 A  
HETATM   18  C   UNL     1      -9.130   8.524  66.169  1.00  0.00    -0.245 A  
HETATM   19  C   UNL     1      -8.636   7.247  65.881  1.00  0.00    -0.159 A  
HETATM   20  C   UNL     1      -9.298   6.125  66.385  1.00  0.00    -0.152 A  
HETATM   21  C   UNL     1     -10.488   6.263  67.102  1.00  0.00    -0.327 A  
HETATM   22  C   UNL     1     -10.984   7.539  67.378  1.00  0.00    -0.165 A  
BRANCH  20  23
HETATM   23  S   UNL     1      -8.641   4.502  66.097  1.00  0.00    -0.114 S  
HETATM   24  O   UNL     1      -9.689   3.684  65.537  1.00  0.00    -0.170 OA 
HETATM   25  O   UNL     1      -7.870   4.107  67.255  1.00  0.00    -0.090 OA 
HETATM   26  N   UNL     1      -7.542   4.816  64.874  1.00  0.00    -0.076 N  
HETATM   27  H1  UNL     1      -7.165   3.883  64.709  1.00  0.00     0.000 HD 
HETATM   28  H2  UNL     1      -7.312   5.699  64.419  1.00  0.00     0.000 HD 
ENDBRANCH  20  23
ENDBRANCH  15  17
ENDBRANCH   5   8
TORSDOF 3
ENDMDL
MODEL       33
REMARK 921   NORMALIZED FREE ENERGY PREDICTED BY IDOCK:   -6.68 KCAL/MOL
REMARK 922        TOTAL FREE ENERGY PREDICTED BY IDOCK:   -8.51 KCAL/MOL
REMARK 923 INTER-LIGAND FREE ENERGY PREDICTED BY IDOCK:   -7.93 KCAL/MOL
REMARK 924 INTRA-LIGAND FREE ENERGY PREDICTED BY IDOCK:   -0.58 KCAL/MOL
REMARK 927      BINDING AFFINITY PREDICTED BY RF-SCORE:    0.00 PKD
ROOT
HETATM    1  C   UNL     1     -14.279  15.804  72.812  1.00  0.00    -0.259 C  
HETATM    2  C   UNL     1     -13.425  14.781  72.124  1.00  0.00    -0.491 A  
HETATM    3  C   UNL     1     -12.359  15.173  71.312  1.00  0.00    -0.401 A  
HETATM    4  C   UNL     1     -11.688  14.235  70.521  1.00  0.00    -0.309 A  
HETATM    5  C   UNL     1     -12.063  12.885  70.528  1.00  0.00    -0.364 A  
HETATM    6  C   UNL     1     -13.737  13.422  72.214  1.00  0.00    -0.705 A  
HETATM    7  C   UNL     1     -13.031  12.480  71.459  1.00  0.00    -0.379 A  
ENDROOT
BRANCH   5   8
HETATM    8  C   UNL     1     -11.469  11.957  69.547  1.00  0.00    -0.288 A  
HETATM    9  C   UNL     1     -11.434  10.572  69.607  1.00  0.00    -0.349 A  
HETATM   10  C   UNL     1     -10.811  10.125  68.421  1.00  0.00    -0.242 A  
HETATM   11  N   UNL     1     -10.531  11.167  67.620  1.00  0.00    -0.188 NA 
HETATM   12  C   UNL     1     -10.495   8.701  68.052  1.00  0.00    -0.197 C  
HETATM   13  F   UNL     1     -10.899   7.831  69.022  1.00  0.00    -0.218 F  
HETATM   14  F   UNL     1     -11.106   8.307  66.904  1.00  0.00    -0.286 F  
HETATM   15  N   UNL     1     -10.777  12.277  68.370  1.00  0.00    -0.226 NA 
HETATM   16  F   UNL     1      -9.162   8.494  67.889  1.00  0.00    -0.137 F  
BRANCH  15  17
HETATM   17  C   UNL     1     -10.306  13.535  67.881  1.00  0.00    -0.249 A  
HETATM   18  C   UNL     1     -11.183  14.359  67.154  1.00  0.00    -0.337 A  
HETATM   19  C   UNL     1     -10.784  15.641  66.761  1.00  0.00    -0.300 A  
HETATM   20  C   UNL     1      -9.502  16.092  67.085  1.00  0.00    -0.216 A  
HETATM   21  C   UNL     1      -8.592  15.247  67.724  1.00  0.00    -0.163 A  
HETATM   22  C   UNL     1      -8.991  13.964  68.105  1.00  0.00    -0.185 A  
BRANCH  20  23
HETATM   23  S   UNL     1      -9.007  17.743  66.664  1.00  0.00    -0.265 S  
HETATM   24  O   UNL     1      -7.920  17.661  65.720  1.00  0.00    -0.549 OA 
HETATM   25  O   UNL     1      -8.935  18.523  67.880  1.00  0.00    -0.274 OA 
HETATM   26  N   UNL     1     -10.357  18.278  65.832  1.00  0.00    -0.353 N  
HETATM   27  H1  UNL     1     -10.072  19.226  65.590  1.00  0.00     0.000 HD 
HETATM   28  H2  UNL     1     -11.227  17.788  65.623  1.00  0.00     0.000 HD 
ENDBRANCH  20  23
ENDBRANCH  15  17
ENDBRANCH   5   8
TORSDOF 3
ENDMDL
MODEL       34
REMARK 921   NORMALIZED FREE ENERGY PREDICTED BY IDOCK:   -6.66 KCAL/MOL
REMARK 922        TOTAL FREE ENERGY PREDICTED BY IDOCK:   -8.49 KCAL/MOL
REMARK 923 INTER-LIGAND FREE ENERGY PREDICTED BY IDOCK:   -7.58 KCAL/MOL
REMARK 924 INTRA-LIGAND FREE ENERGY PREDICTED BY IDOCK:   -0.92 KCAL/MOL
REMARK 927      BINDING AFFINITY PREDICTED BY RF-SCORE:    0.00 PKD
ROOT
HETATM    1  C   UNL     1      -5.216  12.756  70.836  1.00  0.00    -0.160 C  
HETATM    2  C   UNL     1      -6.266  12.719  69.766  1.00  0.00    -0.108 A  
HETATM    3  C   UNL     1      -6.867  13.896  69.317  1.00  0.00    -0.094 A  
HETATM    4  C   UNL     1      -7.975  13.846  68.466  1.00  0.00    -0.137 A  
HETATM    5  C   UNL     1      -8.505  12.620  68.040  1.00  0.00    -0.177 A  
HETATM    6  C   UNL     1      -6.723  11.497  69.265  1.00  0.00    -0.118 A  
HETATM    7  C   UNL     1      -7.801  11.454  68.374  1.00  0.00    -0.135 A  
ENDROOT
BRANCH   5   8
HETATM    8  C   UNL     1      -9.782  12.592  67.303  1.00  0.00    -0.207 A  
HETATM    9  C   UNL     1     -10.175  13.418  66.262  1.00  0.00    -0.298 A  
HETATM   10  C   UNL     1     -11.451  12.977  65.846  1.00  0.00    -0.337 A  
HETATM   11  N   UNL     1     -11.815  11.886  66.539  1.00  0.00    -0.570 NA 
HETATM   12  C   UNL     1     -12.313  13.595  64.779  1.00  0.00    -0.390 C  
HETATM   13  F   UNL     1     -11.708  14.677  64.210  1.00  0.00    -0.386 F  
HETATM   14  F   UNL     1     -12.592  12.735  63.764  1.00  0.00    -0.460 F  
HETATM   15  N   UNL     1     -10.885  11.755  67.526  1.00  0.00    -0.227 NA 
HETATM   16  F   UNL     1     -13.501  14.039  65.268  1.00  0.00    -0.354 F  
BRANCH  15  17
HETATM   17  C   UNL     1     -11.162  10.845  68.593  1.00  0.00    -0.267 A  
HETATM   18  C   UNL     1     -10.684   9.525  68.508  1.00  0.00    -0.222 A  
HETATM   19  C   UNL     1     -10.844   8.646  69.585  1.00  0.00    -0.163 A  
HETATM   20  C   UNL     1     -11.493   9.086  70.741  1.00  0.00    -0.282 A  
HETATM   21  C   UNL     1     -12.053  10.364  70.799  1.00  0.00    -0.463 A  
HETATM   22  C   UNL     1     -11.901  11.235  69.717  1.00  0.00    -0.437 A  
BRANCH  20  23
HETATM   23  S   UNL     1     -11.633   8.012  72.146  1.00  0.00    -0.368 S  
HETATM   24  O   UNL     1     -10.468   8.200  72.975  1.00  0.00    -0.325 OA 
HETATM   25  O   UNL     1     -12.069   6.712  71.687  1.00  0.00    -0.331 OA 
HETATM   26  N   UNL     1     -12.934   8.700  72.943  1.00  0.00    -0.559 N  
HETATM   27  H1  UNL     1     -13.015   8.082  73.751  1.00  0.00     0.000 HD 
HETATM   28  H2  UNL     1     -13.493   9.514  72.691  1.00  0.00     0.000 HD 
ENDBRANCH  20  23
ENDBRANCH  15  17
ENDBRANCH   5   8
TORSDOF 3
ENDMDL
MODEL       35
REMARK 921   NORMALIZED FREE ENERGY PREDICTED BY IDOCK:   -6.63 KCAL/MOL
REMARK 922        TOTAL FREE ENERGY PREDICTED BY IDOCK:   -8.46 KCAL/MOL
REMARK 923 INTER-LIGAND FREE ENERGY PREDICTED BY IDOCK:   -7.45 KCAL/MOL
REMARK 924 INTRA-LIGAND FREE ENERGY PREDICTED BY IDOCK:   -1.01 KCAL/MOL
REMARK 927      BINDING AFFINITY PREDICTED BY RF-SCORE:    0.00 PKD
ROOT
HETATM    1  C   UNL     1      -7.295  10.375  62.847  1.00  0.00    -0.107 C  
HETATM    2  C   UNL     1      -8.056  10.208  64.129  1.00  0.00    -0.158 A  
HETATM    3  C   UNL     1      -9.451  10.180  64.129  1.00  0.00    -0.353 A  
HETATM    4  C   UNL     1     -10.161  10.220  65.333  1.00  0.00    -0.354 A  
HETATM    5  C   UNL     1      -9.492  10.284  66.564  1.00  0.00    -0.212 A  
HETATM    6  C   UNL     1      -7.382  10.168  65.353  1.00  0.00    -0.144 A  
HETATM    7  C   UNL     1      -8.095  10.158  66.556  1.00  0.00    -0.121 A  
ENDROOT
BRANCH   5   8
HETATM    8  C   UNL     1     -10.260  10.518  67.802  1.00  0.00    -0.190 A  
HETATM    9  C   UNL     1     -10.825   9.568  68.638  1.00  0.00    -0.177 A  
HETATM   10  C   UNL     1     -11.410  10.267  69.717  1.00  0.00    -0.273 A  
HETATM   11  N   UNL     1     -11.166  11.583  69.608  1.00  0.00    -0.236 NA 
HETATM   12  C   UNL     1     -12.191   9.670  70.857  1.00  0.00    -0.285 C  
HETATM   13  F   UNL     1     -12.278   8.313  70.749  1.00  0.00    -0.270 F  
HETATM   14  F   UNL     1     -11.631   9.924  72.069  1.00  0.00    -0.376 F  
HETATM   15  N   UNL     1     -10.618  11.749  68.372  1.00  0.00    -0.208 NA 
HETATM   16  F   UNL     1     -13.469  10.129  70.902  1.00  0.00    -0.442 F  
BRANCH  15  17
HETATM   17  C   UNL     1     -10.508  13.079  67.859  1.00  0.00    -0.229 A  
HETATM   18  C   UNL     1      -9.255  13.542  67.420  1.00  0.00    -0.223 A  
HETATM   19  C   UNL     1      -9.140  14.796  66.811  1.00  0.00    -0.291 A  
HETATM   20  C   UNL     1     -10.278  15.591  66.655  1.00  0.00    -0.276 A  
HETATM   21  C   UNL     1     -11.509  15.181  67.172  1.00  0.00    -0.254 A  
HETATM   22  C   UNL     1     -11.617  13.932  67.788  1.00  0.00    -0.381 A  
BRANCH  20  23
HETATM   23  S   UNL     1     -10.166  17.150  65.814  1.00  0.00    -0.139 S  
HETATM   24  O   UNL     1     -11.048  17.111  64.673  1.00  0.00    -1.036 OA 
HETATM   25  O   UNL     1      -8.771  17.519  65.717  1.00  0.00    -0.514 OA 
HETATM   26  N   UNL     1     -10.854  18.172  66.947  1.00  0.00    -0.201 N  
HETATM   27  H1  UNL     1     -10.790  19.068  66.463  1.00  0.00     0.000 HD 
HETATM   28  H2  UNL     1     -11.234  17.958  67.868  1.00  0.00     0.000 HD 
ENDBRANCH  20  23
ENDBRANCH  15  17
ENDBRANCH   5   8
TORSDOF 3
ENDMDL
MODEL       36
REMARK 921   NORMALIZED FREE ENERGY PREDICTED BY IDOCK:   -6.62 KCAL/MOL
REMARK 922        TOTAL FREE ENERGY PREDICTED BY IDOCK:   -8.44 KCAL/MOL
REMARK 923 INTER-LIGAND FREE ENERGY PREDICTED BY IDOCK:   -7.48 KCAL/MOL
REMARK 924 INTRA-LIGAND FREE ENERGY PREDICTED BY IDOCK:   -0.96 KCAL/MOL
REMARK 927      BINDING AFFINITY PREDICTED BY RF-SCORE:    0.00 PKD
ROOT
HETATM    1  C   UNL     1     -10.057  11.451  63.670  1.00  0.00    -0.421 C  
HETATM    2  C   UNL     1     -10.610  11.899  64.990  1.00  0.00    -0.335 A  
HETATM    3  C   UNL     1     -11.491  12.979  65.063  1.00  0.00    -0.345 A  
HETATM    4  C   UNL     1     -11.852  13.517  66.302  1.00  0.00    -0.431 A  
HETATM    5  C   UNL     1     -11.345  12.985  67.496  1.00  0.00    -0.346 A  
HETATM    6  C   UNL     1     -10.182  11.299  66.178  1.00  0.00    -0.291 A  
HETATM    7  C   UNL     1     -10.585  11.810  67.417  1.00  0.00    -0.258 A  
ENDROOT
BRANCH   5   8
HETATM    8  C   UNL     1     -11.588  13.688  68.770  1.00  0.00    -0.324 A  
HETATM    9  C   UNL     1     -12.602  13.452  69.685  1.00  0.00     0.098 A  
HETATM   10  C   UNL     1     -12.393  14.334  70.768  1.00  0.00    -0.357 A  
HETATM   11  N   UNL     1     -11.265  15.040  70.582  1.00  0.00    -0.264 NA 
HETATM   12  C   UNL     1     -13.266  14.489  71.984  1.00  0.00    -0.362 C  
HETATM   13  F   UNL     1     -14.335  13.644  71.944  1.00  0.00    -0.459 F  
HETATM   14  F   UNL     1     -12.608  14.223  73.142  1.00  0.00    -0.445 F  
HETATM   15  N   UNL     1     -10.873  14.769  69.306  1.00  0.00    -0.258 NA 
HETATM   16  F   UNL     1     -13.779  15.744  72.093  1.00  0.00    -0.502 F  
BRANCH  15  17
HETATM   17  C   UNL     1      -9.858  15.591  68.727  1.00  0.00    -0.217 A  
HETATM   18  C   UNL     1      -8.645  15.769  69.416  1.00  0.00    -0.225 A  
HETATM   19  C   UNL     1      -7.593  16.475  68.823  1.00  0.00    -0.219 A  
HETATM   20  C   UNL     1      -7.762  17.014  67.545  1.00  0.00    -0.170 A  
HETATM   21  C   UNL     1      -8.992  16.924  66.892  1.00  0.00    -0.244 A  
HETATM   22  C   UNL     1     -10.043  16.227  67.493  1.00  0.00    -0.258 A  
BRANCH  20  23
HETATM   23  S   UNL     1      -6.413  17.844  66.745  1.00  0.00    -0.200 S  
HETATM   24  O   UNL     1      -5.991  18.936  67.589  1.00  0.00    -0.197 OA 
HETATM   25  O   UNL     1      -6.742  18.013  65.347  1.00  0.00    -0.410 OA 
HETATM   26  N   UNL     1      -5.226  16.666  66.819  1.00  0.00    -0.038 N  
HETATM   27  H1  UNL     1      -4.451  17.143  66.359  1.00  0.00     0.000 HD 
HETATM   28  H2  UNL     1      -5.267  15.727  67.215  1.00  0.00     0.000 HD 
ENDBRANCH  20  23
ENDBRANCH  15  17
ENDBRANCH   5   8
TORSDOF 3
ENDMDL
MODEL       37
REMARK 921   NORMALIZED FREE ENERGY PREDICTED BY IDOCK:   -6.58 KCAL/MOL
REMARK 922        TOTAL FREE ENERGY PREDICTED BY IDOCK:   -8.40 KCAL/MOL
REMARK 923 INTER-LIGAND FREE ENERGY PREDICTED BY IDOCK:   -7.75 KCAL/MOL
REMARK 924 INTRA-LIGAND FREE ENERGY PREDICTED BY IDOCK:   -0.65 KCAL/MOL
REMARK 927      BINDING AFFINITY PREDICTED BY RF-SCORE:    0.00 PKD
ROOT
HETATM    1  C   UNL     1      -8.744   9.263  62.902  1.00  0.00    -0.210 C  
HETATM    2  C   UNL     1      -9.167  10.081  64.086  1.00  0.00    -0.319 A  
HETATM    3  C   UNL     1     -10.389  10.756  64.085  1.00  0.00    -0.382 A  
HETATM    4  C   UNL     1     -10.694  11.670  65.098  1.00  0.00    -0.351 A  
HETATM    5  C   UNL     1      -9.789  11.926  66.137  1.00  0.00    -0.254 A  
HETATM    6  C   UNL     1      -8.303  10.255  65.171  1.00  0.00    -0.162 A  
HETATM    7  C   UNL     1      -8.635  11.133  66.209  1.00  0.00    -0.180 A  
ENDROOT
BRANCH   5   8
HETATM    8  C   UNL     1     -10.053  13.028  67.081  1.00  0.00    -0.244 A  
HETATM    9  C   UNL     1      -9.702  14.362  66.944  1.00  0.00    -0.266 A  
HETATM   10  C   UNL     1     -10.214  15.041  68.072  1.00  0.00    -0.228 A  
HETATM   11  N   UNL     1     -10.914  14.196  68.846  1.00  0.00    -0.252 NA 
HETATM   12  C   UNL     1     -10.042  16.499  68.399  1.00  0.00    -0.255 C  
HETATM   13  F   UNL     1      -9.311  17.144  67.444  1.00  0.00    -0.227 F  
HETATM   14  F   UNL     1     -11.225  17.162  68.489  1.00  0.00    -0.311 F  
HETATM   15  N   UNL     1     -10.677  12.955  68.336  1.00  0.00    -0.248 NA 
HETATM   16  F   UNL     1      -9.384  16.690  69.572  1.00  0.00    -0.199 F  
BRANCH  15  17
HETATM   17  C   UNL     1     -11.063  11.822  69.118  1.00  0.00    -0.238 A  
HETATM   18  C   UNL     1     -10.253  10.673  69.106  1.00  0.00    -0.238 A  
HETATM   19  C   UNL     1     -10.546   9.594  69.946  1.00  0.00    -0.281 A  
HETATM   20  C   UNL     1     -11.659   9.661  70.788  1.00  0.00    -0.321 A  
HETATM   21  C   UNL     1     -12.523  10.757  70.739  1.00  0.00    -0.481 A  
HETATM   22  C   UNL     1     -12.232  11.828  69.890  1.00  0.00    -0.293 A  
BRANCH  20  23
HETATM   23  S   UNL     1     -12.001   8.336  71.917  1.00  0.00    -0.355 S  
HETATM   24  O   UNL     1     -10.887   8.220  72.826  1.00  0.00    -0.347 OA 
HETATM   25  O   UNL     1     -12.521   7.215  71.165  1.00  0.00    -0.358 OA 
HETATM   26  N   UNL     1     -13.287   8.974  72.777  1.00  0.00    -0.749 N  
HETATM   27  H1  UNL     1     -13.483   8.213  73.426  1.00  0.00     0.000 HD 
HETATM   28  H2  UNL     1     -13.749   9.878  72.678  1.00  0.00     0.000 HD 
ENDBRANCH  20  23
ENDBRANCH  15  17
ENDBRANCH   5   8
TORSDOF 3
ENDMDL
MODEL       38
REMARK 921   NORMALIZED FREE ENERGY PREDICTED BY IDOCK:   -6.53 KCAL/MOL
REMARK 922        TOTAL FREE ENERGY PREDICTED BY IDOCK:   -8.34 KCAL/MOL
REMARK 923 INTER-LIGAND FREE ENERGY PREDICTED BY IDOCK:   -7.74 KCAL/MOL
REMARK 924 INTRA-LIGAND FREE ENERGY PREDICTED BY IDOCK:   -0.61 KCAL/MOL
REMARK 927      BINDING AFFINITY PREDICTED BY RF-SCORE:    0.00 PKD
ROOT
HETATM    1  C   UNL     1     -13.383  11.232  71.835  1.00  0.00    -0.413 C  
HETATM    2  C   UNL     1     -12.555  12.171  71.009  1.00  0.00    -0.359 A  
HETATM    3  C   UNL     1     -12.540  13.539  71.287  1.00  0.00    -0.427 A  
HETATM    4  C   UNL     1     -11.929  14.435  70.405  1.00  0.00    -0.395 A  
HETATM    5  C   UNL     1     -11.314  13.984  69.229  1.00  0.00    -0.318 A  
HETATM    6  C   UNL     1     -11.856  11.704  69.892  1.00  0.00    -0.434 A  
HETATM    7  C   UNL     1     -11.203  12.599  69.039  1.00  0.00    -0.322 A  
ENDROOT
BRANCH   5   8
HETATM    8  C   UNL     1     -10.847  14.962  68.228  1.00  0.00    -0.257 A  
HETATM    9  C   UNL     1     -11.106  16.323  68.191  1.00  0.00    -0.329 A  
HETATM   10  C   UNL     1     -10.405  16.845  67.081  1.00  0.00    -0.304 A  
HETATM   11  N   UNL     1      -9.684  15.879  66.489  1.00  0.00    -0.250 NA 
HETATM   12  C   UNL     1     -10.419  18.270  66.597  1.00  0.00    -0.360 C  
HETATM   13  F   UNL     1     -11.209  19.058  67.382  1.00  0.00    -0.506 F  
HETATM   14  F   UNL     1      -9.185  18.839  66.601  1.00  0.00    -0.286 F  
HETATM   15  N   UNL     1     -10.080  14.717  67.079  1.00  0.00    -0.247 NA 
HETATM   16  F   UNL     1     -10.909  18.381  65.334  1.00  0.00    -0.483 F  
BRANCH  15  17
HETATM   17  C   UNL     1      -9.691  13.486  66.466  1.00  0.00    -0.283 A  
HETATM   18  C   UNL     1      -8.570  12.798  66.963  1.00  0.00    -0.177 A  
HETATM   19  C   UNL     1      -8.233  11.538  66.456  1.00  0.00    -0.129 A  
HETATM   20  C   UNL     1      -9.011  10.975  65.442  1.00  0.00    -0.178 A  
HETATM   21  C   UNL     1     -10.069  11.689  64.877  1.00  0.00    -0.303 A  
HETATM   22  C   UNL     1     -10.396  12.951  65.379  1.00  0.00    -0.310 A  
BRANCH  20  23
HETATM   23  S   UNL     1      -8.647   9.345  64.843  1.00  0.00    -0.187 S  
HETATM   24  O   UNL     1      -8.826   9.340  63.412  1.00  0.00    -0.212 OA 
HETATM   25  O   UNL     1      -9.280   8.382  65.718  1.00  0.00    -0.182 OA 
HETATM   26  N   UNL     1      -7.002   9.256  65.144  1.00  0.00    -0.084 N  
HETATM   27  H1  UNL     1      -6.793   8.319  64.799  1.00  0.00     0.000 HD 
HETATM   28  H2  UNL     1      -6.380   9.949  65.558  1.00  0.00     0.000 HD 
ENDBRANCH  20  23
ENDBRANCH  15  17
ENDBRANCH   5   8
TORSDOF 3
ENDMDL
MODEL       39
REMARK 921   NORMALIZED FREE ENERGY PREDICTED BY IDOCK:   -6.51 KCAL/MOL
REMARK 922        TOTAL FREE ENERGY PREDICTED BY IDOCK:   -8.31 KCAL/MOL
REMARK 923 INTER-LIGAND FREE ENERGY PREDICTED BY IDOCK:   -7.68 KCAL/MOL
REMARK 924 INTRA-LIGAND FREE ENERGY PREDICTED BY IDOCK:   -0.64 KCAL/MOL
REMARK 927      BINDING AFFINITY PREDICTED BY RF-SCORE:    0.00 PKD
ROOT
HETATM    1  C   UNL     1      -8.496  17.616  66.403  1.00  0.00    -0.279 C  
HETATM    2  C   UNL     1      -8.618  16.121  66.415  1.00  0.00    -0.365 A  
HETATM    3  C   UNL     1      -9.641  15.485  65.709  1.00  0.00    -0.367 A  
HETATM    4  C   UNL     1      -9.872  14.116  65.876  1.00  0.00    -0.312 A  
HETATM    5  C   UNL     1      -9.083  13.351  66.747  1.00  0.00    -0.221 A  
HETATM    6  C   UNL     1      -7.764  15.347  67.205  1.00  0.00    -0.245 A  
HETATM    7  C   UNL     1      -7.967  13.968  67.330  1.00  0.00    -0.191 A  
ENDROOT
BRANCH   5   8
HETATM    8  C   UNL     1      -9.467  11.959  67.048  1.00  0.00    -0.188 A  
HETATM    9  C   UNL     1      -9.075  10.810  66.378  1.00  0.00    -0.188 A  
HETATM   10  C   UNL     1      -9.653   9.718  67.062  1.00  0.00    -0.172 A  
HETATM   11  N   UNL     1     -10.316  10.147  68.149  1.00  0.00    -0.175 NA 
HETATM   12  C   UNL     1      -9.559   8.266  66.680  1.00  0.00    -0.233 C  
HETATM   13  F   UNL     1      -8.813   8.092  65.552  1.00  0.00    -0.176 F  
HETATM   14  F   UNL     1      -8.980   7.504  67.644  1.00  0.00    -0.126 F  
HETATM   15  N   UNL     1     -10.341  11.505  68.046  1.00  0.00    -0.184 NA 
HETATM   16  F   UNL     1     -10.777   7.722  66.416  1.00  0.00    -0.289 F  
BRANCH  15  17
HETATM   17  C   UNL     1     -11.219  12.227  68.913  1.00  0.00    -0.273 A  
HETATM   18  C   UNL     1     -11.778  11.570  70.024  1.00  0.00    -0.414 A  
HETATM   19  C   UNL     1     -12.549  12.282  70.949  1.00  0.00    -0.334 A  
HETATM   20  C   UNL     1     -12.770  13.647  70.755  1.00  0.00    -0.268 A  
HETATM   21  C   UNL     1     -12.298  14.288  69.608  1.00  0.00    -0.312 A  
HETATM   22  C   UNL     1     -11.538  13.571  68.680  1.00  0.00    -0.365 A  
BRANCH  20  23
HETATM   23  S   UNL     1     -13.678  14.581  71.960  1.00  0.00    -0.485 S  
HETATM   24  O   UNL     1     -14.359  13.653  72.830  1.00  0.00    -0.622 OA 
HETATM   25  O   UNL     1     -14.355  15.666  71.284  1.00  0.00    -0.521 OA 
HETATM   26  N   UNL     1     -12.429  15.268  72.838  1.00  0.00    -0.370 N  
HETATM   27  H1  UNL     1     -12.951  15.804  73.530  1.00  0.00     0.000 HD 
HETATM   28  H2  UNL     1     -11.421  15.175  72.713  1.00  0.00     0.000 HD 
ENDBRANCH  20  23
ENDBRANCH  15  17
ENDBRANCH   5   8
TORSDOF 3
ENDMDL
MODEL       40
REMARK 921   NORMALIZED FREE ENERGY PREDICTED BY IDOCK:   -6.47 KCAL/MOL
REMARK 922        TOTAL FREE ENERGY PREDICTED BY IDOCK:   -8.28 KCAL/MOL
REMARK 923 INTER-LIGAND FREE ENERGY PREDICTED BY IDOCK:   -7.25 KCAL/MOL
REMARK 924 INTRA-LIGAND FREE ENERGY PREDICTED BY IDOCK:   -1.03 KCAL/MOL
REMARK 927      BINDING AFFINITY PREDICTED BY RF-SCORE:    0.00 PKD
ROOT
HETATM    1  C   UNL     1      -9.666  10.431  63.107  1.00  0.00    -0.301 C  
HETATM    2  C   UNL     1      -9.768  11.439  64.212  1.00  0.00    -0.263 A  
HETATM    3  C   UNL     1      -9.068  11.261  65.406  1.00  0.00    -0.162 A  
HETATM    4  C   UNL     1      -9.313  12.093  66.503  1.00  0.00    -0.229 A  
HETATM    5  C   UNL     1     -10.259  13.125  66.430  1.00  0.00    -0.286 A  
HETATM    6  C   UNL     1     -10.638  12.528  64.099  1.00  0.00    -0.425 A  
HETATM    7  C   UNL     1     -10.843  13.389  65.183  1.00  0.00    -0.322 A  
ENDROOT
BRANCH   5   8
HETATM    8  C   UNL     1     -10.634  13.860  67.652  1.00  0.00    -0.245 A  
HETATM    9  C   UNL     1     -11.635  13.542  68.557  1.00  0.00    -0.368 A  
HETATM   10  C   UNL     1     -11.579  14.506  69.588  1.00  0.00    -0.299 A  
HETATM   11  N   UNL     1     -10.552  15.347  69.384  1.00  0.00    -0.235 NA 
HETATM   12  C   UNL     1     -12.503  14.611  70.772  1.00  0.00    -0.340 C  
HETATM   13  F   UNL     1     -13.446  13.627  70.760  1.00  0.00    -0.202 F  
HETATM   14  F   UNL     1     -11.851  14.505  71.959  1.00  0.00    -0.382 F  
HETATM   15  N   UNL     1     -10.088  15.058  68.136  1.00  0.00    -0.219 NA 
HETATM   16  F   UNL     1     -13.183  15.788  70.791  1.00  0.00    -0.523 F  
BRANCH  15  17
HETATM   17  C   UNL     1      -9.175  15.976  67.531  1.00  0.00    -0.211 A  
HETATM   18  C   UNL     1      -9.582  16.697  66.394  1.00  0.00    -0.308 A  
HETATM   19  C   UNL     1      -8.752  17.682  65.849  1.00  0.00     0.083 A  
HETATM   20  C   UNL     1      -7.509  17.934  66.434  1.00  0.00    -0.273 A  
HETATM   21  C   UNL     1      -7.056  17.160  67.504  1.00  0.00    -0.175 A  
HETATM   22  C   UNL     1      -7.884  16.170  68.039  1.00  0.00    -0.150 A  
BRANCH  20  23
HETATM   23  S   UNL     1      -6.477  19.233  65.804  1.00  0.00    -0.251 S  
HETATM   24  O   UNL     1      -6.236  18.979  64.405  1.00  0.00    -0.475 OA 
HETATM   25  O   UNL     1      -5.413  19.474  66.753  1.00  0.00    -0.164 OA 
HETATM   26  N   UNL     1      -7.515  20.542  65.906  1.00  0.00    -0.521 N  
HETATM   27  H1  UNL     1      -6.922  21.288  65.544  1.00  0.00     0.000 HD 
HETATM   28  H2  UNL     1      -8.478  20.582  66.239  1.00  0.00     0.000 HD 
ENDBRANCH  20  23
ENDBRANCH  15  17
ENDBRANCH   5   8
TORSDOF 3
ENDMDL
MODEL       41
REMARK 921   NORMALIZED FREE ENERGY PREDICTED BY IDOCK:   -6.47 KCAL/MOL
REMARK 922        TOTAL FREE ENERGY PREDICTED BY IDOCK:   -8.27 KCAL/MOL
REMARK 923 INTER-LIGAND FREE ENERGY PREDICTED BY IDOCK:   -7.73 KCAL/MOL
REMARK 924 INTRA-LIGAND FREE ENERGY PREDICTED BY IDOCK:   -0.54 KCAL/MOL
REMARK 927      BINDING AFFINITY PREDICTED BY RF-SCORE:    0.00 PKD
ROOT
HETATM    1  C   UNL     1      -8.136   3.119  64.931  1.00  0.00    -0.086 C  
HETATM    2  C   UNL     1      -8.679   4.275  65.717  1.00  0.00    -0.119 A  
HETATM    3  C   UNL     1      -7.838   5.050  66.517  1.00  0.00    -0.100 A  
HETATM    4  C   UNL     1      -8.371   5.998  67.396  1.00  0.00    -0.105 A  
HETATM    5  C   UNL     1      -9.756   6.197  67.491  1.00  0.00    -0.126 A  
HETATM    6  C   UNL     1     -10.052   4.538  65.732  1.00  0.00    -0.274 A  
HETATM    7  C   UNL     1     -10.577   5.523  66.576  1.00  0.00    -0.343 A  
ENDROOT
BRANCH   5   8
HETATM    8  C   UNL     1     -10.298   7.061  68.557  1.00  0.00    -0.186 A  
HETATM    9  C   UNL     1     -10.765   6.674  69.803  1.00  0.00    -0.304 A  
HETATM   10  C   UNL     1     -11.130   7.853  70.489  1.00  0.00    -0.256 A  
HETATM   11  N   UNL     1     -10.843   8.934  69.745  1.00  0.00    -0.227 NA 
HETATM   12  C   UNL     1     -11.742   7.943  71.861  1.00  0.00    -0.297 C  
HETATM   13  F   UNL     1     -11.912   6.709  72.416  1.00  0.00    -0.308 F  
HETATM   14  F   UNL     1     -10.979   8.654  72.733  1.00  0.00    -0.382 F  
HETATM   15  N   UNL     1     -10.497   8.449  68.520  1.00  0.00    -0.194 NA 
HETATM   16  F   UNL     1     -12.972   8.522  71.840  1.00  0.00    -0.309 F  
BRANCH  15  17
HETATM   17  C   UNL     1     -10.407   9.373  67.433  1.00  0.00    -0.263 A  
HETATM   18  C   UNL     1      -9.731   8.989  66.262  1.00  0.00    -0.345 A  
HETATM   19  C   UNL     1      -9.724   9.829  65.143  1.00  0.00    -0.338 A  
HETATM   20  C   UNL     1     -10.382  11.059  65.203  1.00  0.00    -0.283 A  
HETATM   21  C   UNL     1     -10.976  11.490  66.391  1.00  0.00    -0.336 A  
HETATM   22  C   UNL     1     -10.972  10.653  67.509  1.00  0.00    -0.371 A  
BRANCH  20  23
HETATM   23  S   UNL     1     -10.452  12.101  63.769  1.00  0.00    -0.463 S  
HETATM   24  O   UNL     1      -9.450  11.649  62.834  1.00  0.00    -0.377 OA 
HETATM   25  O   UNL     1     -10.555  13.476  64.206  1.00  0.00    -0.412 OA 
HETATM   26  N   UNL     1     -11.947  11.684  63.144  1.00  0.00    -0.926 N  
HETATM   27  H1  UNL     1     -11.987  12.283  62.320  1.00  0.00     0.000 HD 
HETATM   28  H2  UNL     1     -12.632  11.013  63.492  1.00  0.00     0.000 HD 
ENDBRANCH  20  23
ENDBRANCH  15  17
ENDBRANCH   5   8
TORSDOF 3
ENDMDL
MODEL       42
REMARK 921   NORMALIZED FREE ENERGY PREDICTED BY IDOCK:   -6.44 KCAL/MOL
REMARK 922        TOTAL FREE ENERGY PREDICTED BY IDOCK:   -8.24 KCAL/MOL
REMARK 923 INTER-LIGAND FREE ENERGY PREDICTED BY IDOCK:   -7.64 KCAL/MOL
REMARK 924 INTRA-LIGAND FREE ENERGY PREDICTED BY IDOCK:   -0.60 KCAL/MOL
REMARK 927      BINDING AFFINITY PREDICTED BY RF-SCORE:    0.00 PKD
ROOT
HETATM    1  C   UNL     1      -7.761  10.118  64.791  1.00  0.00    -0.141 C  
HETATM    2  C   UNL     1      -8.577   9.959  66.039  1.00  0.00    -0.147 A  
HETATM    3  C   UNL     1      -8.019  10.219  67.292  1.00  0.00    -0.107 A  
HETATM    4  C   UNL     1      -8.713   9.886  68.460  1.00  0.00    -0.121 A  
HETATM    5  C   UNL     1      -9.981   9.291  68.402  1.00  0.00    -0.196 A  
HETATM    6  C   UNL     1      -9.882   9.461  65.974  1.00  0.00    -0.366 A  
HETATM    7  C   UNL     1     -10.592   9.176  67.145  1.00  0.00    -0.286 A  
ENDROOT
BRANCH   5   8
HETATM    8  C   UNL     1     -10.604   8.778  69.637  1.00  0.00    -0.219 A  
HETATM    9  C   UNL     1     -10.657   7.464  70.074  1.00  0.00    -0.241 A  
HETATM   10  C   UNL     1     -11.306   7.473  71.328  1.00  0.00    -0.261 A  
HETATM   11  N   UNL     1     -11.585   8.734  71.699  1.00  0.00    -0.296 NA 
HETATM   12  C   UNL     1     -11.646   6.276  72.175  1.00  0.00    -0.319 C  
HETATM   13  F   UNL     1     -11.237   5.115  71.587  1.00  0.00    -0.206 F  
HETATM   14  F   UNL     1     -11.060   6.314  73.400  1.00  0.00    -0.261 F  
HETATM   15  N   UNL     1     -11.311   9.502  70.608  1.00  0.00    -0.281 NA 
HETATM   16  F   UNL     1     -12.985   6.149  72.373  1.00  0.00    -0.241 F  
BRANCH  15  17
HETATM   17  C   UNL     1     -11.774  10.855  70.606  1.00  0.00    -0.316 A  
HETATM   18  C   UNL     1     -12.583  11.303  71.665  1.00  0.00    -0.357 A  
HETATM   19  C   UNL     1     -12.957  12.649  71.747  1.00  0.00    -0.417 A  
HETATM   20  C   UNL     1     -12.530  13.541  70.761  1.00  0.00    -0.353 A  
HETATM   21  C   UNL     1     -11.805  13.088  69.657  1.00  0.00    -0.385 A  
HETATM   22  C   UNL     1     -11.444  11.742  69.574  1.00  0.00    -0.363 A  
BRANCH  20  23
HETATM   23  S   UNL     1     -12.927  15.266  70.891  1.00  0.00    -0.458 S  
HETATM   24  O   UNL     1     -12.093  15.844  71.916  1.00  0.00    -0.412 OA 
HETATM   25  O   UNL     1     -14.367  15.407  70.877  1.00  0.00    -0.379 OA 
HETATM   26  N   UNL     1     -12.375  15.832  69.416  1.00  0.00    -0.514 N  
HETATM   27  H1  UNL     1     -12.604  16.823  69.491  1.00  0.00     0.000 HD 
HETATM   28  H2  UNL     1     -11.932  15.324  68.651  1.00  0.00     0.000 HD 
ENDBRANCH  20  23
ENDBRANCH  15  17
ENDBRANCH   5   8
TORSDOF 3
ENDMDL
MODEL       43
REMARK 921   NORMALIZED FREE ENERGY PREDICTED BY IDOCK:   -6.44 KCAL/MOL
REMARK 922        TOTAL FREE ENERGY PREDICTED BY IDOCK:   -8.24 KCAL/MOL
REMARK 923 INTER-LIGAND FREE ENERGY PREDICTED BY IDOCK:   -7.28 KCAL/MOL
REMARK 924 INTRA-LIGAND FREE ENERGY PREDICTED BY IDOCK:   -0.96 KCAL/MOL
REMARK 927      BINDING AFFINITY PREDICTED BY RF-SCORE:    0.00 PKD
ROOT
HETATM    1  C   UNL     1      -5.151   9.536  67.390  1.00  0.00    -0.036 C  
HETATM    2  C   UNL     1      -6.401   9.526  68.218  1.00  0.00    -0.053 A  
HETATM    3  C   UNL     1      -7.211   8.390  68.271  1.00  0.00    -0.086 A  
HETATM    4  C   UNL     1      -8.468   8.444  68.881  1.00  0.00    -0.124 A  
HETATM    5  C   UNL     1      -8.942   9.631  69.456  1.00  0.00    -0.203 A  
HETATM    6  C   UNL     1      -6.823  10.684  68.878  1.00  0.00    -0.066 A  
HETATM    7  C   UNL     1      -8.060  10.719  69.530  1.00  0.00     0.007 A  
ENDROOT
BRANCH   5   8
HETATM    8  C   UNL     1     -10.340   9.711  69.920  1.00  0.00    -0.249 A  
HETATM    9  C   UNL     1     -10.945   8.960  70.915  1.00  0.00    -0.325 A  
HETATM   10  C   UNL     1     -12.271   9.429  71.037  1.00  0.00    -0.279 A  
HETATM   11  N   UNL     1     -12.474  10.471  70.213  1.00  0.00    -0.298 NA 
HETATM   12  C   UNL     1     -13.337   8.888  71.951  1.00  0.00    -0.405 C  
HETATM   13  F   UNL     1     -12.873   7.847  72.700  1.00  0.00    -0.179 F  
HETATM   14  F   UNL     1     -13.800   9.816  72.828  1.00  0.00    -0.347 F  
HETATM   15  N   UNL     1     -11.364  10.532  69.425  1.00  0.00    -0.254 NA 
HETATM   16  F   UNL     1     -14.410   8.412  71.265  1.00  0.00    -0.434 F  
BRANCH  15  17
HETATM   17  C   UNL     1     -11.410  11.366  68.265  1.00  0.00    -0.286 A  
HETATM   18  C   UNL     1     -10.964  10.852  67.035  1.00  0.00    -0.310 A  
HETATM   19  C   UNL     1     -11.101  11.606  65.864  1.00  0.00    -0.320 A  
HETATM   20  C   UNL     1     -11.672  12.879  65.930  1.00  0.00    -0.399 A  
HETATM   21  C   UNL     1     -12.031  13.435  67.159  1.00  0.00    -0.415 A  
HETATM   22  C   UNL     1     -11.883  12.683  68.327  1.00  0.00    -0.354 A  
BRANCH  20  23
HETATM   23  S   UNL     1     -11.927  13.817  64.445  1.00  0.00    -0.448 S  
HETATM   24  O   UNL     1     -13.033  14.716  64.664  1.00  0.00    -0.486 OA 
HETATM   25  O   UNL     1     -11.859  12.915  63.316  1.00  0.00    -0.537 OA 
HETATM   26  N   UNL     1     -10.530  14.739  64.407  1.00  0.00    -0.396 N  
HETATM   27  H1  UNL     1     -10.676  15.277  63.554  1.00  0.00     0.000 HD 
HETATM   28  H2  UNL     1      -9.746  14.756  65.059  1.00  0.00     0.000 HD 
ENDBRANCH  20  23
ENDBRANCH  15  17
ENDBRANCH   5   8
TORSDOF 3
ENDMDL
MODEL       44
REMARK 921   NORMALIZED FREE ENERGY PREDICTED BY IDOCK:   -6.42 KCAL/MOL
REMARK 922        TOTAL FREE ENERGY PREDICTED BY IDOCK:   -8.21 KCAL/MOL
REMARK 923 INTER-LIGAND FREE ENERGY PREDICTED BY IDOCK:   -7.44 KCAL/MOL
REMARK 924 INTRA-LIGAND FREE ENERGY PREDICTED BY IDOCK:   -0.76 KCAL/MOL
REMARK 927      BINDING AFFINITY PREDICTED BY RF-SCORE:    0.00 PKD
ROOT
HETATM    1  C   UNL     1     -10.220   5.052  71.159  1.00  0.00    -0.281 C  
HETATM    2  C   UNL     1     -10.688   6.469  71.308  1.00  0.00    -0.280 A  
HETATM    3  C   UNL     1     -12.014   6.813  71.040  1.00  0.00    -0.431 A  
HETATM    4  C   UNL     1     -12.403   8.155  70.990  1.00  0.00    -0.152 A  
HETATM    5  C   UNL     1     -11.476   9.184  71.212  1.00  0.00    -0.405 A  
HETATM    6  C   UNL     1      -9.783   7.484  71.631  1.00  0.00    -0.184 A  
HETATM    7  C   UNL     1     -10.187   8.823  71.629  1.00  0.00    -0.394 A  
ENDROOT
BRANCH   5   8
HETATM    8  C   UNL     1     -11.867  10.585  70.966  1.00  0.00    -0.340 A  
HETATM    9  C   UNL     1     -12.621  11.409  71.787  1.00  0.00    -0.241 A  
HETATM   10  C   UNL     1     -12.686  12.670  71.155  1.00  0.00    -0.254 A  
HETATM   11  N   UNL     1     -11.953  12.666  70.030  1.00  0.00    -0.341 NA 
HETATM   12  C   UNL     1     -13.440  13.880  71.637  1.00  0.00    -0.352 C  
HETATM   13  F   UNL     1     -14.084  13.633  72.814  1.00  0.00    -0.564 F  
HETATM   14  F   UNL     1     -12.633  14.950  71.859  1.00  0.00    -0.330 F  
HETATM   15  N   UNL     1     -11.598  11.366  69.832  1.00  0.00    -0.315 NA 
HETATM   16  F   UNL     1     -14.398  14.275  70.757  1.00  0.00    -0.105 F  
BRANCH  15  17
HETATM   17  C   UNL     1     -11.047  11.006  68.563  1.00  0.00    -0.243 A  
HETATM   18  C   UNL     1     -10.615  12.020  67.692  1.00  0.00    -0.239 A  
HETATM   19  C   UNL     1      -9.971  11.694  66.493  1.00  0.00    -0.230 A  
HETATM   20  C   UNL     1      -9.772  10.351  66.163  1.00  0.00    -0.209 A  
HETATM   21  C   UNL     1     -10.280   9.336  66.976  1.00  0.00    -0.331 A  
HETATM   22  C   UNL     1     -10.933   9.667  68.167  1.00  0.00    -0.185 A  
BRANCH  20  23
HETATM   23  S   UNL     1      -8.887   9.920  64.687  1.00  0.00    -0.223 S  
HETATM   24  O   UNL     1      -7.547  10.444  64.797  1.00  0.00    -0.135 OA 
HETATM   25  O   UNL     1      -9.740  10.177  63.549  1.00  0.00    -0.273 OA 
HETATM   26  N   UNL     1      -8.791   8.257  64.849  1.00  0.00    -0.409 N  
HETATM   27  H1  UNL     1      -8.282   8.009  64.000  1.00  0.00     0.000 HD 
HETATM   28  H2  UNL     1      -9.145   7.656  65.592  1.00  0.00     0.000 HD 
ENDBRANCH  20  23
ENDBRANCH  15  17
ENDBRANCH   5   8
TORSDOF 3
ENDMDL
MODEL       45
REMARK 921   NORMALIZED FREE ENERGY PREDICTED BY IDOCK:   -6.41 KCAL/MOL
REMARK 922        TOTAL FREE ENERGY PREDICTED BY IDOCK:   -8.20 KCAL/MOL
REMARK 923 INTER-LIGAND FREE ENERGY PREDICTED BY IDOCK:   -7.23 KCAL/MOL
REMARK 924 INTRA-LIGAND FREE ENERGY PREDICTED BY IDOCK:   -0.97 KCAL/MOL
REMARK 927      BINDING AFFINITY PREDICTED BY RF-SCORE:    0.00 PKD
ROOT
HETATM    1  C   UNL     1      -9.520  10.529  62.427  1.00  0.00    -0.246 C  
HETATM    2  C   UNL     1      -9.820  11.005  63.818  1.00  0.00    -0.379 A  
HETATM    3  C   UNL     1      -8.955  10.711  64.873  1.00  0.00    -0.218 A  
HETATM    4  C   UNL     1      -9.328  10.983  66.192  1.00  0.00    -0.214 A  
HETATM    5  C   UNL     1     -10.572  11.560  66.487  1.00  0.00    -0.301 A  
HETATM    6  C   UNL     1     -11.016  11.673  64.095  1.00  0.00    -0.442 A  
HETATM    7  C   UNL     1     -11.364  11.989  65.413  1.00  0.00    -0.375 A  
ENDROOT
BRANCH   5   8
HETATM    8  C   UNL     1     -11.017  11.660  67.890  1.00  0.00    -0.225 A  
HETATM    9  C   UNL     1     -11.629  10.679  68.654  1.00  0.00    -0.297 A  
HETATM   10  C   UNL     1     -11.817  11.221  69.945  1.00  0.00    -0.360 A  
HETATM   11  N   UNL     1     -11.287  12.453  70.015  1.00  0.00    -0.015 NA 
HETATM   12  C   UNL     1     -12.494  10.553  71.111  1.00  0.00    -0.412 C  
HETATM   13  F   UNL     1     -12.925   9.299  70.790  1.00  0.00    -0.238 F  
HETATM   14  F   UNL     1     -11.674  10.413  72.186  1.00  0.00     0.034 F  
HETATM   15  N   UNL     1     -10.954  12.778  68.734  1.00  0.00    -0.247 NA 
HETATM   16  F   UNL     1     -13.592  11.235  71.530  1.00  0.00    -0.312 F  
BRANCH  15  17
HETATM   17  C   UNL     1     -10.623  14.140  68.452  1.00  0.00    -0.259 A  
HETATM   18  C   UNL     1     -11.565  15.145  68.731  1.00  0.00    -0.369 A  
HETATM   19  C   UNL     1     -11.226  16.493  68.569  1.00  0.00    -0.296 A  
HETATM   20  C   UNL     1      -9.949  16.832  68.116  1.00  0.00    -0.270 A  
HETATM   21  C   UNL     1      -9.039  15.839  67.747  1.00  0.00    -0.188 A  
HETATM   22  C   UNL     1      -9.385  14.495  67.900  1.00  0.00    -0.201 A  
BRANCH  20  23
HETATM   23  S   UNL     1      -9.477  18.537  67.982  1.00  0.00    -0.315 S  
HETATM   24  O   UNL     1     -10.006  19.055  66.744  1.00  0.00    -0.318 OA 
HETATM   25  O   UNL     1      -8.084  18.657  68.353  1.00  0.00    -0.312 OA 
HETATM   26  N   UNL     1     -10.365  19.213  69.230  1.00  0.00    -0.455 N  
HETATM   27  H1  UNL     1     -10.093  20.192  69.152  1.00  0.00     0.000 HD 
HETATM   28  H2  UNL     1     -11.003  18.766  69.887  1.00  0.00     0.000 HD 
ENDBRANCH  20  23
ENDBRANCH  15  17
ENDBRANCH   5   8
TORSDOF 3
ENDMDL
MODEL       46
REMARK 921   NORMALIZED FREE ENERGY PREDICTED BY IDOCK:   -6.32 KCAL/MOL
REMARK 922        TOTAL FREE ENERGY PREDICTED BY IDOCK:   -8.09 KCAL/MOL
REMARK 923 INTER-LIGAND FREE ENERGY PREDICTED BY IDOCK:   -7.37 KCAL/MOL
REMARK 924 INTRA-LIGAND FREE ENERGY PREDICTED BY IDOCK:   -0.72 KCAL/MOL
REMARK 927      BINDING AFFINITY PREDICTED BY RF-SCORE:    0.00 PKD
ROOT
HETATM    1  C   UNL     1      -6.483   7.940  64.316  1.00  0.00    -0.057 C  
HETATM    2  C   UNL     1      -7.301   7.888  65.572  1.00  0.00    -0.076 A  
HETATM    3  C   UNL     1      -8.488   7.155  65.618  1.00  0.00    -0.141 A  
HETATM    4  C   UNL     1      -9.346   7.263  66.717  1.00  0.00    -0.203 A  
HETATM    5  C   UNL     1      -9.034   8.102  67.797  1.00  0.00    -0.134 A  
HETATM    6  C   UNL     1      -6.935   8.646  66.688  1.00  0.00    -0.079 A  
HETATM    7  C   UNL     1      -7.772   8.712  67.807  1.00  0.00    -0.102 A  
ENDROOT
BRANCH   5   8
HETATM    8  C   UNL     1     -10.040   8.343  68.848  1.00  0.00    -0.199 A  
HETATM    9  C   UNL     1     -10.460   7.464  69.834  1.00  0.00    -0.238 A  
HETATM   10  C   UNL     1     -11.393   8.159  70.635  1.00  0.00    -0.249 A  
HETATM   11  N   UNL     1     -11.504   9.432  70.222  1.00  0.00    -0.221 NA 
HETATM   12  C   UNL     1     -12.166   7.606  71.801  1.00  0.00    -0.311 C  
HETATM   13  F   UNL     1     -11.857   6.297  72.032  1.00  0.00    -0.328 F  
HETATM   14  F   UNL     1     -11.917   8.269  72.961  1.00  0.00    -0.444 F  
HETATM   15  N   UNL     1     -10.816   9.495  69.048  1.00  0.00    -0.198 NA 
HETATM   16  F   UNL     1     -13.509   7.647  71.596  1.00  0.00    -0.350 F  
BRANCH  15  17
HETATM   17  C   UNL     1     -10.988  10.654  68.230  1.00  0.00    -0.263 A  
HETATM   18  C   UNL     1     -10.659  10.583  66.865  1.00  0.00    -0.303 A  
HETATM   19  C   UNL     1     -10.922  11.667  66.019  1.00  0.00    -0.338 A  
HETATM   20  C   UNL     1     -11.501  12.824  66.544  1.00  0.00    -0.355 A  
HETATM   21  C   UNL     1     -11.744  12.939  67.914  1.00  0.00    -0.405 A  
HETATM   22  C   UNL     1     -11.470  11.859  68.757  1.00  0.00    -0.347 A  
BRANCH  20  23
HETATM   23  S   UNL     1     -11.914  14.176  65.472  1.00  0.00    -0.407 S  
HETATM   24  O   UNL     1     -11.166  15.334  65.898  1.00  0.00    -0.322 OA 
HETATM   25  O   UNL     1     -13.348  14.192  65.287  1.00  0.00    -0.715 OA 
HETATM   26  N   UNL     1     -11.250  13.652  64.028  1.00  0.00    -0.584 N  
HETATM   27  H1  UNL     1     -11.488  14.430  63.412  1.00  0.00     0.000 HD 
HETATM   28  H2  UNL     1     -10.746  12.791  63.821  1.00  0.00     0.000 HD 
ENDBRANCH  20  23
ENDBRANCH  15  17
ENDBRANCH   5   8
TORSDOF 3
ENDMDL
MODEL       47
REMARK 921   NORMALIZED FREE ENERGY PREDICTED BY IDOCK:   -6.27 KCAL/MOL
REMARK 922        TOTAL FREE ENERGY PREDICTED BY IDOCK:   -8.04 KCAL/MOL
REMARK 923 INTER-LIGAND FREE ENERGY PREDICTED BY IDOCK:   -7.17 KCAL/MOL
REMARK 924 INTRA-LIGAND FREE ENERGY PREDICTED BY IDOCK:   -0.87 KCAL/MOL
REMARK 927      BINDING AFFINITY PREDICTED BY RF-SCORE:    0.00 PKD
ROOT
HETATM    1  C   UNL     1      -5.258  12.032  70.460  1.00  0.00    -0.128 C  
HETATM    2  C   UNL     1      -6.244  12.100  69.332  1.00  0.00    -0.106 A  
HETATM    3  C   UNL     1      -6.095  13.041  68.312  1.00  0.00    -0.086 A  
HETATM    4  C   UNL     1      -7.112  13.234  67.371  1.00  0.00    -0.111 A  
HETATM    5  C   UNL     1      -8.297  12.488  67.426  1.00  0.00    -0.182 A  
HETATM    6  C   UNL     1      -7.378  11.282  69.332  1.00  0.00    -0.027 A  
HETATM    7  C   UNL     1      -8.370  11.445  68.359  1.00  0.00    -0.153 A  
ENDROOT
BRANCH   5   8
HETATM    8  C   UNL     1      -9.425  12.844  66.543  1.00  0.00    -0.251 A  
HETATM    9  C   UNL     1     -10.058  12.034  65.613  1.00  0.00    -0.272 A  
HETATM   10  C   UNL     1     -11.108  12.795  65.053  1.00  0.00    -0.285 A  
HETATM   11  N   UNL     1     -11.182  13.996  65.649  1.00  0.00    -0.306 NA 
HETATM   12  C   UNL     1     -12.046  12.364  63.959  1.00  0.00    -0.475 C  
HETATM   13  F   UNL     1     -11.778  11.094  63.540  1.00  0.00    -0.358 F  
HETATM   14  F   UNL     1     -13.348  12.373  64.347  1.00  0.00    -0.402 F  
HETATM   15  N   UNL     1     -10.067  14.085  66.427  1.00  0.00    -0.286 NA 
HETATM   16  F   UNL     1     -11.950  13.154  62.857  1.00  0.00    -0.571 F  
BRANCH  15  17
HETATM   17  C   UNL     1      -9.726  15.363  66.968  1.00  0.00    -0.224 A  
HETATM   18  C   UNL     1      -8.751  16.143  66.321  1.00  0.00    -0.373 A  
HETATM   19  C   UNL     1      -8.478  17.442  66.764  1.00  0.00    -0.280 A  
HETATM   20  C   UNL     1      -9.173  17.954  67.861  1.00  0.00    -0.263 A  
HETATM   21  C   UNL     1     -10.075  17.156  68.568  1.00  0.00    -0.329 A  
HETATM   22  C   UNL     1     -10.337  15.856  68.129  1.00  0.00    -0.256 A  
BRANCH  20  23
HETATM   23  S   UNL     1      -8.898  19.626  68.386  1.00  0.00    -0.270 S  
HETATM   24  O   UNL     1      -7.607  19.691  69.026  1.00  0.00    -0.354 OA 
HETATM   25  O   UNL     1     -10.108  20.117  69.008  1.00  0.00    -0.315 OA 
HETATM   26  N   UNL     1      -8.767  20.406  66.911  1.00  0.00    -0.509 N  
HETATM   27  H1  UNL     1      -8.609  21.367  67.213  1.00  0.00     0.000 HD 
HETATM   28  H2  UNL     1      -8.829  20.023  65.968  1.00  0.00     0.000 HD 
ENDBRANCH  20  23
ENDBRANCH  15  17
ENDBRANCH   5   8
TORSDOF 3
ENDMDL
MODEL       48
REMARK 921   NORMALIZED FREE ENERGY PREDICTED BY IDOCK:   -6.18 KCAL/MOL
REMARK 922        TOTAL FREE ENERGY PREDICTED BY IDOCK:   -7.93 KCAL/MOL
REMARK 923 INTER-LIGAND FREE ENERGY PREDICTED BY IDOCK:   -7.52 KCAL/MOL
REMARK 924 INTRA-LIGAND FREE ENERGY PREDICTED BY IDOCK:   -0.41 KCAL/MOL
REMARK 927      BINDING AFFINITY PREDICTED BY RF-SCORE:    0.00 PKD
ROOT
HETATM    1  C   UNL     1      -5.149  12.274  70.530  1.00  0.00    -0.112 C  
HETATM    2  C   UNL     1      -5.921  13.312  69.771  1.00  0.00    -0.128 A  
HETATM    3  C   UNL     1      -5.731  13.478  68.399  1.00  0.00    -0.097 A  
HETATM    4  C   UNL     1      -6.300  14.567  67.731  1.00  0.00    -0.169 A  
HETATM    5  C   UNL     1      -7.077  15.510  68.419  1.00  0.00    -0.111 A  
HETATM    6  C   UNL     1      -6.777  14.189  70.443  1.00  0.00     0.135 A  
HETATM    7  C   UNL     1      -7.385  15.249  69.761  1.00  0.00    -0.138 A  
ENDROOT
BRANCH   5   8
HETATM    8  C   UNL     1      -7.504  16.744  67.733  1.00  0.00    -0.163 A  
HETATM    9  C   UNL     1      -7.098  18.043  67.999  1.00  0.00    -0.220 A  
HETATM   10  C   UNL     1      -7.734  18.875  67.051  1.00  0.00    -0.230 A  
HETATM   11  N   UNL     1      -8.447  18.135  66.186  1.00  0.00    -0.490 NA 
HETATM   12  C   UNL     1      -7.647  20.375  66.969  1.00  0.00    -0.316 C  
HETATM   13  F   UNL     1      -6.844  20.885  67.946  1.00  0.00    -0.328 F  
HETATM   14  F   UNL     1      -7.137  20.809  65.787  1.00  0.00    -0.230 F  
HETATM   15  N   UNL     1      -8.440  16.872  66.696  1.00  0.00    -0.227 NA 
HETATM   16  F   UNL     1      -8.859  20.970  67.126  1.00  0.00    -0.386 F  
BRANCH  15  17
HETATM   17  C   UNL     1      -9.349  15.919  66.142  1.00  0.00    -0.350 A  
HETATM   18  C   UNL     1     -10.421  16.373  65.353  1.00  0.00    -0.333 A  
HETATM   19  C   UNL     1     -11.259  15.458  64.707  1.00  0.00    -0.404 A  
HETATM   20  C   UNL     1     -11.032  14.089  64.862  1.00  0.00    -0.392 A  
HETATM   21  C   UNL     1     -10.029  13.627  65.718  1.00  0.00    -0.277 A  
HETATM   22  C   UNL     1      -9.201  14.545  66.369  1.00  0.00    -0.264 A  
BRANCH  20  23
HETATM   23  S   UNL     1     -12.035  12.916  63.987  1.00  0.00    -0.487 S  
HETATM   24  O   UNL     1     -13.180  12.603  64.805  1.00  0.00    -0.846 OA 
HETATM   25  O   UNL     1     -11.170  11.902  63.425  1.00  0.00    -0.401 OA 
HETATM   26  N   UNL     1     -12.572  13.850  62.706  1.00  0.00    -0.555 N  
HETATM   27  H1  UNL     1     -13.149  13.176  62.203  1.00  0.00     0.000 HD 
HETATM   28  H2  UNL     1     -12.377  14.827  62.488  1.00  0.00     0.000 HD 
ENDBRANCH  20  23
ENDBRANCH  15  17
ENDBRANCH   5   8
TORSDOF 3
ENDMDL
MODEL       49
REMARK 921   NORMALIZED FREE ENERGY PREDICTED BY IDOCK:   -6.17 KCAL/MOL
REMARK 922        TOTAL FREE ENERGY PREDICTED BY IDOCK:   -7.92 KCAL/MOL
REMARK 923 INTER-LIGAND FREE ENERGY PREDICTED BY IDOCK:   -7.14 KCAL/MOL
REMARK 924 INTRA-LIGAND FREE ENERGY PREDICTED BY IDOCK:   -0.78 KCAL/MOL
REMARK 927      BINDING AFFINITY PREDICTED BY RF-SCORE:    0.00 PKD
ROOT
HETATM    1  C   UNL     1      -8.367  10.921  62.361  1.00  0.00    -0.293 C  
HETATM    2  C   UNL     1      -8.961  10.256  63.567  1.00  0.00    -0.259 A  
HETATM    3  C   UNL     1     -10.051  10.823  64.228  1.00  0.00    -0.427 A  
HETATM    4  C   UNL     1     -10.479  10.312  65.458  1.00  0.00    -0.139 A  
HETATM    5  C   UNL     1      -9.830   9.220  66.051  1.00  0.00    -0.363 A  
HETATM    6  C   UNL     1      -8.374   9.105  64.101  1.00  0.00    -0.182 A  
HETATM    7  C   UNL     1      -8.838   8.566  65.306  1.00  0.00    -0.144 A  
ENDROOT
BRANCH   5   8
HETATM    8  C   UNL     1     -10.178   8.824  67.428  1.00  0.00    -0.252 A  
HETATM    9  C   UNL     1     -10.419   7.545  67.905  1.00  0.00    -0.266 A  
HETATM   10  C   UNL     1     -10.658   7.662  69.292  1.00  0.00    -0.201 A  
HETATM   11  N   UNL     1     -10.505   8.936  69.686  1.00  0.00    -0.213 NA 
HETATM   12  C   UNL     1     -11.021   6.550  70.239  1.00  0.00    -0.310 C  
HETATM   13  F   UNL     1     -11.092   5.348  69.598  1.00  0.00    -0.381 F  
HETATM   14  F   UNL     1     -10.117   6.397  71.242  1.00  0.00    -0.194 F  
HETATM   15  N   UNL     1     -10.379   9.659  68.538  1.00  0.00    -0.197 NA 
HETATM   16  F   UNL     1     -12.235   6.742  70.819  1.00  0.00    -0.404 F  
BRANCH  15  17
HETATM   17  C   UNL     1     -10.480  11.082  68.625  1.00  0.00    -0.192 A  
HETATM   18  C   UNL     1      -9.351  11.867  68.335  1.00  0.00    -0.184 A  
HETATM   19  C   UNL     1      -9.451  13.263  68.304  1.00  0.00    -0.209 A  
HETATM   20  C   UNL     1     -10.679  13.870  68.575  1.00  0.00    -0.257 A  
HETATM   21  C   UNL     1     -11.783  13.103  68.955  1.00  0.00    -0.367 A  
HETATM   22  C   UNL     1     -11.675  11.711  68.996  1.00  0.00    -0.388 A  
BRANCH  20  23
HETATM   23  S   UNL     1     -10.844  15.633  68.461  1.00  0.00    -0.298 S  
HETATM   24  O   UNL     1     -10.886  15.992  67.065  1.00  0.00    -0.309 OA 
HETATM   25  O   UNL     1      -9.930  16.240  69.402  1.00  0.00    -0.248 OA 
HETATM   26  N   UNL     1     -12.384  15.849  69.082  1.00  0.00    -0.461 N  
HETATM   27  H1  UNL     1     -12.479  16.862  69.016  1.00  0.00     0.000 HD 
HETATM   28  H2  UNL     1     -13.046  15.156  69.430  1.00  0.00     0.000 HD 
ENDBRANCH  20  23
ENDBRANCH  15  17
ENDBRANCH   5   8
TORSDOF 3
ENDMDL
MODEL       50
REMARK 921   NORMALIZED FREE ENERGY PREDICTED BY IDOCK:   -6.15 KCAL/MOL
REMARK 922        TOTAL FREE ENERGY PREDICTED BY IDOCK:   -7.90 KCAL/MOL
REMARK 923 INTER-LIGAND FREE ENERGY PREDICTED BY IDOCK:   -7.05 KCAL/MOL
REMARK 924 INTRA-LIGAND FREE ENERGY PREDICTED BY IDOCK:   -0.85 KCAL/MOL
REMARK 927      BINDING AFFINITY PREDICTED BY RF-SCORE:    0.00 PKD
ROOT
HETATM    1  C   UNL     1     -10.691  16.379  65.014  1.00  0.00    -0.279 C  
HETATM    2  C   UNL     1     -11.120  15.334  66.000  1.00  0.00    -0.278 A  
HETATM    3  C   UNL     1     -10.596  15.319  67.294  1.00  0.00    -0.290 A  
HETATM    4  C   UNL     1     -10.844  14.238  68.146  1.00  0.00    -0.253 A  
HETATM    5  C   UNL     1     -11.625  13.152  67.727  1.00  0.00    -0.379 A  
HETATM    6  C   UNL     1     -11.982  14.305  65.611  1.00  0.00    -0.390 A  
HETATM    7  C   UNL     1     -12.268  13.250  66.485  1.00  0.00    -0.389 A  
ENDROOT
BRANCH   5   8
HETATM    8  C   UNL     1     -11.711  11.946  68.572  1.00  0.00    -0.330 A  
HETATM    9  C   UNL     1     -12.302  11.828  69.820  1.00  0.00    -0.175 A  
HETATM   10  C   UNL     1     -12.182  10.476  70.207  1.00  0.00    -0.311 A  
HETATM   11  N   UNL     1     -11.610   9.759  69.225  1.00  0.00     0.068 NA 
HETATM   12  C   UNL     1     -12.626   9.870  71.511  1.00  0.00    -0.416 C  
HETATM   13  F   UNL     1     -13.197  10.801  72.327  1.00  0.00    -0.561 F  
HETATM   14  F   UNL     1     -13.548   8.885  71.347  1.00  0.00    -0.362 F  
HETATM   15  N   UNL     1     -11.179  10.674  68.312  1.00  0.00    -0.287 NA 
HETATM   16  F   UNL     1     -11.590   9.336  72.210  1.00  0.00    -0.410 F  
BRANCH  15  17
HETATM   17  C   UNL     1     -10.284  10.232  67.289  1.00  0.00    -0.218 A  
HETATM   18  C   UNL     1     -10.295   8.878  66.909  1.00  0.00    -0.332 A  
HETATM   19  C   UNL     1      -9.511   8.440  65.836  1.00  0.00    -0.169 A  
HETATM   20  C   UNL     1      -8.708   9.356  65.152  1.00  0.00    -0.181 A  
HETATM   21  C   UNL     1      -8.620  10.682  65.581  1.00  0.00    -0.187 A  
HETATM   22  C   UNL     1      -9.395  11.113  66.659  1.00  0.00    -0.194 A  
BRANCH  20  23
HETATM   23  S   UNL     1      -7.770   8.835  63.740  1.00  0.00    -0.140 S  
HETATM   24  O   UNL     1      -7.124   7.587  64.063  1.00  0.00    -0.058 OA 
HETATM   25  O   UNL     1      -7.054   9.978  63.218  1.00  0.00    -0.126 OA 
HETATM   26  N   UNL     1      -8.995   8.499  62.650  1.00  0.00    -0.400 N  
HETATM   27  H1  UNL     1      -8.456   8.200  61.838  1.00  0.00     0.000 HD 
HETATM   28  H2  UNL     1     -10.005   8.574  62.766  1.00  0.00     0.000 HD 
ENDBRANCH  20  23
ENDBRANCH  15  17
ENDBRANCH   5   8
TORSDOF 3
ENDMDL
MODEL       51
REMARK 921   NORMALIZED FREE ENERGY PREDICTED BY IDOCK:   -6.15 KCAL/MOL
REMARK 922        TOTAL FREE ENERGY PREDICTED BY IDOCK:   -7.89 KCAL/MOL
REMARK 923 INTER-LIGAND FREE ENERGY PREDICTED BY IDOCK:   -6.77 KCAL/MOL
REMARK 924 INTRA-LIGAND FREE ENERGY PREDICTED BY IDOCK:   -1.12 KCAL/MOL
REMARK 927      BINDING AFFINITY PREDICTED BY RF-SCORE:    0.00 PKD
ROOT
HETATM    1  C   UNL     1     -11.015   4.850  73.710  1.00  0.00    -0.361 C  
HETATM    2  C   UNL     1     -11.156   6.134  72.949  1.00  0.00    -0.281 A  
HETATM    3  C   UNL     1     -12.114   6.264  71.942  1.00  0.00    -0.311 A  
HETATM    4  C   UNL     1     -12.116   7.384  71.105  1.00  0.00    -0.357 A  
HETATM    5  C   UNL     1     -11.164   8.403  71.259  1.00  0.00    -0.309 A  
HETATM    6  C   UNL     1     -10.269   7.192  73.174  1.00  0.00    -0.317 A  
HETATM    7  C   UNL     1     -10.307   8.334  72.366  1.00  0.00    -0.402 A  
ENDROOT
BRANCH   5   8
HETATM    8  C   UNL     1     -11.071   9.473  70.249  1.00  0.00    -0.271 A  
HETATM    9  C   UNL     1     -11.559  10.767  70.340  1.00  0.00    -0.431 A  
HETATM   10  C   UNL     1     -11.182  11.434  69.154  1.00  0.00    -0.272 A  
HETATM   11  N   UNL     1     -10.434  10.627  68.384  1.00  0.00    -0.177 NA 
HETATM   12  C   UNL     1     -11.530  12.846  68.766  1.00  0.00    -0.303 C  
HETATM   13  F   UNL     1     -12.278  13.460  69.727  1.00  0.00    -0.339 F  
HETATM   14  F   UNL     1     -10.433  13.625  68.577  1.00  0.00    -0.222 F  
HETATM   15  N   UNL     1     -10.506   9.398  68.967  1.00  0.00    -0.213 NA 
HETATM   16  F   UNL     1     -12.263  12.900  67.622  1.00  0.00    -0.372 F  
BRANCH  15  17
HETATM   17  C   UNL     1     -10.037   8.273  68.221  1.00  0.00    -0.198 A  
HETATM   18  C   UNL     1      -8.692   7.883  68.344  1.00  0.00    -0.131 A  
HETATM   19  C   UNL     1      -8.234   6.720  67.714  1.00  0.00    -0.120 A  
HETATM   20  C   UNL     1      -9.121   5.957  66.951  1.00  0.00    -0.120 A  
HETATM   21  C   UNL     1     -10.434   6.386  66.747  1.00  0.00    -0.304 A  
HETATM   22  C   UNL     1     -10.884   7.552  67.369  1.00  0.00    -0.272 A  
BRANCH  20  23
HETATM   23  S   UNL     1      -8.578   4.438  66.212  1.00  0.00    -0.113 S  
HETATM   24  O   UNL     1      -7.580   3.850  67.071  1.00  0.00    -0.078 OA 
HETATM   25  O   UNL     1      -8.363   4.667  64.800  1.00  0.00    -0.116 OA 
HETATM   26  N   UNL     1      -9.964   3.508  66.341  1.00  0.00    -0.385 N  
HETATM   27  H1  UNL     1      -9.651   2.635  65.916  1.00  0.00     0.000 HD 
HETATM   28  H2  UNL     1     -10.872   3.749  66.737  1.00  0.00     0.000 HD 
ENDBRANCH  20  23
ENDBRANCH  15  17
ENDBRANCH   5   8
TORSDOF 3
ENDMDL
MODEL       52
REMARK 921   NORMALIZED FREE ENERGY PREDICTED BY IDOCK:   -6.14 KCAL/MOL
REMARK 922        TOTAL FREE ENERGY PREDICTED BY IDOCK:   -7.88 KCAL/MOL
REMARK 923 INTER-LIGAND FREE ENERGY PREDICTED BY IDOCK:   -7.15 KCAL/MOL
REMARK 924 INTRA-LIGAND FREE ENERGY PREDICTED BY IDOCK:   -0.74 KCAL/MOL
REMARK 927      BINDING AFFINITY PREDICTED BY RF-SCORE:    0.00 PKD
ROOT
HETATM    1  C   UNL     1     -13.054  12.101  72.038  1.00  0.00    -0.462 C  
HETATM    2  C   UNL     1     -12.480  11.677  70.719  1.00  0.00    -0.425 A  
HETATM    3  C   UNL     1     -11.929  10.404  70.558  1.00  0.00    -0.427 A  
HETATM    4  C   UNL     1     -11.223  10.079  69.396  1.00  0.00    -0.235 A  
HETATM    5  C   UNL     1     -11.056  11.016  68.366  1.00  0.00    -0.308 A  
HETATM    6  C   UNL     1     -12.405  12.581  69.656  1.00  0.00    -0.035 A  
HETATM    7  C   UNL     1     -11.741  12.235  68.474  1.00  0.00    -0.381 A  
ENDROOT
BRANCH   5   8
HETATM    8  C   UNL     1     -10.150  10.713  67.243  1.00  0.00    -0.199 A  
HETATM    9  C   UNL     1      -9.570   9.493  66.930  1.00  0.00    -0.217 A  
HETATM   10  C   UNL     1      -8.829   9.683  65.742  1.00  0.00    -0.157 A  
HETATM   11  N   UNL     1      -8.989  10.936  65.288  1.00  0.00    -0.196 NA 
HETATM   12  C   UNL     1      -7.979   8.659  65.039  1.00  0.00    -0.131 C  
HETATM   13  F   UNL     1      -7.999   7.460  65.688  1.00  0.00    -0.092 F  
HETATM   14  F   UNL     1      -8.392   8.415  63.768  1.00  0.00    -0.165 F  
HETATM   15  N   UNL     1      -9.649  11.600  66.278  1.00  0.00    -0.215 NA 
HETATM   16  F   UNL     1      -6.673   9.032  64.973  1.00  0.00    -0.067 F  
BRANCH  15  17
HETATM   17  C   UNL     1      -9.717  13.026  66.201  1.00  0.00    -0.251 A  
HETATM   18  C   UNL     1     -10.560  13.620  65.246  1.00  0.00    -0.354 A  
HETATM   19  C   UNL     1     -10.731  15.009  65.223  1.00  0.00    -0.406 A  
HETATM   20  C   UNL     1     -10.048  15.801  66.148  1.00  0.00    -0.318 A  
HETATM   21  C   UNL     1      -9.137  15.229  67.038  1.00  0.00    -0.245 A  
HETATM   22  C   UNL     1      -8.961  13.843  67.051  1.00  0.00    -0.251 A  
BRANCH  20  23
HETATM   23  S   UNL     1     -10.314  17.555  66.185  1.00  0.00    -0.263 S  
HETATM   24  O   UNL     1     -10.836  17.904  67.483  1.00  0.00    -0.364 OA 
HETATM   25  O   UNL     1     -10.954  17.948  64.949  1.00  0.00    -0.827 OA 
HETATM   26  N   UNL     1      -8.739  18.117  66.109  1.00  0.00    -0.158 N  
HETATM   27  H1  UNL     1      -8.892  19.125  66.130  1.00  0.00     0.000 HD 
HETATM   28  H2  UNL     1      -7.865  17.595  66.056  1.00  0.00     0.000 HD 
ENDBRANCH  20  23
ENDBRANCH  15  17
ENDBRANCH   5   8
TORSDOF 3
ENDMDL
MODEL       53
REMARK 921   NORMALIZED FREE ENERGY PREDICTED BY IDOCK:   -6.13 KCAL/MOL
REMARK 922        TOTAL FREE ENERGY PREDICTED BY IDOCK:   -7.87 KCAL/MOL
REMARK 923 INTER-LIGAND FREE ENERGY PREDICTED BY IDOCK:   -6.87 KCAL/MOL
REMARK 924 INTRA-LIGAND FREE ENERGY PREDICTED BY IDOCK:   -1.00 KCAL/MOL
REMARK 927      BINDING AFFINITY PREDICTED BY RF-SCORE:    0.00 PKD
ROOT
HETATM    1  C   UNL     1      -6.547  17.823  65.929  1.00  0.00    -0.271 C  
HETATM    2  C   UNL     1      -7.595  16.971  66.580  1.00  0.00    -0.298 A  
HETATM    3  C   UNL     1      -8.951  17.231  66.378  1.00  0.00    -0.282 A  
HETATM    4  C   UNL     1      -9.921  16.565  67.133  1.00  0.00    -0.266 A  
HETATM    5  C   UNL     1      -9.559  15.620  68.103  1.00  0.00    -0.196 A  
HETATM    6  C   UNL     1      -7.230  15.958  67.472  1.00  0.00    -0.204 A  
HETATM    7  C   UNL     1      -8.207  15.258  68.189  1.00  0.00    -0.141 A  
ENDROOT
BRANCH   5   8
HETATM    8  C   UNL     1     -10.585  15.077  69.013  1.00  0.00    -0.245 A  
HETATM    9  C   UNL     1     -11.229  15.733  70.049  1.00  0.00    -0.346 A  
HETATM   10  C   UNL     1     -12.161  14.824  70.596  1.00  0.00    -0.319 A  
HETATM   11  N   UNL     1     -12.158  13.677  69.897  1.00  0.00    -0.337 NA 
HETATM   12  C   UNL     1     -13.061  15.060  71.779  1.00  0.00    -0.356 C  
HETATM   13  F   UNL     1     -12.889  16.309  72.298  1.00  0.00    -0.487 F  
HETATM   14  F   UNL     1     -14.379  14.952  71.468  1.00  0.00    -0.454 F  
HETATM   15  N   UNL     1     -11.095  13.771  69.050  1.00  0.00    -0.256 NA 
HETATM   16  F   UNL     1     -12.815  14.191  72.795  1.00  0.00    -0.444 F  
BRANCH  15  17
HETATM   17  C   UNL     1     -10.670  12.586  68.374  1.00  0.00    -0.240 A  
HETATM   18  C   UNL     1     -10.115  11.532  69.121  1.00  0.00     0.006 A  
HETATM   19  C   UNL     1      -9.794  10.319  68.501  1.00  0.00    -0.174 A  
HETATM   20  C   UNL     1     -10.016  10.168  67.131  1.00  0.00    -0.196 A  
HETATM   21  C   UNL     1     -10.478  11.239  66.363  1.00  0.00    -0.306 A  
HETATM   22  C   UNL     1     -10.787  12.451  66.984  1.00  0.00    -0.282 A  
BRANCH  20  23
HETATM   23  S   UNL     1      -9.690   8.612  66.343  1.00  0.00    -0.255 S  
HETATM   24  O   UNL     1      -9.357   8.867  64.963  1.00  0.00    -0.083 OA 
HETATM   25  O   UNL     1     -10.713   7.672  66.745  1.00  0.00    -0.318 OA 
HETATM   26  N   UNL     1      -8.282   8.150  67.122  1.00  0.00    -0.119 N  
HETATM   27  H1  UNL     1      -8.095   7.256  66.669  1.00  0.00     0.000 HD 
HETATM   28  H2  UNL     1      -7.756   8.632  67.851  1.00  0.00     0.000 HD 
ENDBRANCH  20  23
ENDBRANCH  15  17
ENDBRANCH   5   8
TORSDOF 3
ENDMDL
MODEL       54
REMARK 921   NORMALIZED FREE ENERGY PREDICTED BY IDOCK:   -6.08 KCAL/MOL
REMARK 922        TOTAL FREE ENERGY PREDICTED BY IDOCK:   -7.81 KCAL/MOL
REMARK 923 INTER-LIGAND FREE ENERGY PREDICTED BY IDOCK:   -6.94 KCAL/MOL
REMARK 924 INTRA-LIGAND FREE ENERGY PREDICTED BY IDOCK:   -0.88 KCAL/MOL
REMARK 927      BINDING AFFINITY PREDICTED BY RF-SCORE:    0.00 PKD
ROOT
HETATM    1  C   UNL     1     -12.313  11.731  63.735  1.00  0.00    -0.443 C  
HETATM    2  C   UNL     1     -11.949  12.982  64.479  1.00  0.00    -0.450 A  
HETATM    3  C   UNL     1     -10.852  13.749  64.086  1.00  0.00    -0.105 A  
HETATM    4  C   UNL     1     -10.397  14.800  64.890  1.00  0.00    -0.365 A  
HETATM    5  C   UNL     1     -11.033  15.110  66.101  1.00  0.00    -0.331 A  
HETATM    6  C   UNL     1     -12.649  13.349  65.632  1.00  0.00    -0.496 A  
HETATM    7  C   UNL     1     -12.222  14.432  66.407  1.00  0.00    -0.363 A  
ENDROOT
BRANCH   5   8
HETATM    8  C   UNL     1     -10.421  16.092  67.016  1.00  0.00    -0.307 A  
HETATM    9  C   UNL     1     -10.641  17.460  67.058  1.00  0.00    -0.238 A  
HETATM   10  C   UNL     1      -9.876  17.967  68.131  1.00  0.00    -0.334 A  
HETATM   11  N   UNL     1      -9.261  16.964  68.780  1.00  0.00    -0.266 NA 
HETATM   12  C   UNL     1      -9.745  19.409  68.540  1.00  0.00    -0.421 C  
HETATM   13  F   UNL     1     -10.484  20.227  67.737  1.00  0.00    -0.505 F  
HETATM   14  F   UNL     1     -10.166  19.636  69.811  1.00  0.00    -0.403 F  
HETATM   15  N   UNL     1      -9.458  15.858  68.009  1.00  0.00    -0.205 NA 
HETATM   16  F   UNL     1      -8.463  19.854  68.457  1.00  0.00    -0.352 F  
BRANCH  15  17
HETATM   17  C   UNL     1      -8.685  14.691  68.299  1.00  0.00    -0.173 A  
HETATM   18  C   UNL     1      -7.356  14.840  68.733  1.00  0.00    -0.129 A  
HETATM   19  C   UNL     1      -6.614  13.723  69.130  1.00  0.00    -0.112 A  
HETATM   20  C   UNL     1      -7.199  12.456  69.080  1.00  0.00    -0.008 A  
HETATM   21  C   UNL     1      -8.485  12.286  68.562  1.00  0.00    -0.077 A  
HETATM   22  C   UNL     1      -9.219  13.403  68.156  1.00  0.00    -0.215 A  
BRANCH  20  23
HETATM   23  S   UNL     1      -6.301  11.038  69.655  1.00  0.00    -0.121 S  
HETATM   24  O   UNL     1      -5.794  11.330  70.973  1.00  0.00    -0.347 OA 
HETATM   25  O   UNL     1      -5.462  10.559  68.578  1.00  0.00    -0.038 OA 
HETATM   26  N   UNL     1      -7.539   9.925  69.828  1.00  0.00    -0.132 N  
HETATM   27  H1  UNL     1      -7.023   9.111  70.159  1.00  0.00     0.000 HD 
HETATM   28  H2  UNL     1      -8.538  10.033  69.652  1.00  0.00     0.000 HD 
ENDBRANCH  20  23
ENDBRANCH  15  17
ENDBRANCH   5   8
TORSDOF 3
ENDMDL
MODEL       55
REMARK 921   NORMALIZED FREE ENERGY PREDICTED BY IDOCK:   -6.06 KCAL/MOL
REMARK 922        TOTAL FREE ENERGY PREDICTED BY IDOCK:   -7.79 KCAL/MOL
REMARK 923 INTER-LIGAND FREE ENERGY PREDICTED BY IDOCK:   -7.11 KCAL/MOL
REMARK 924 INTRA-LIGAND FREE ENERGY PREDICTED BY IDOCK:   -0.68 KCAL/MOL
REMARK 927      BINDING AFFINITY PREDICTED BY RF-SCORE:    0.00 PKD
ROOT
HETATM    1  C   UNL     1     -13.882   8.975  72.300  1.00  0.00    -0.547 C  
HETATM    2  C   UNL     1     -12.994   9.980  71.630  1.00  0.00    -0.554 A  
HETATM    3  C   UNL     1     -13.182  11.347  71.837  1.00  0.00    -0.485 A  
HETATM    4  C   UNL     1     -12.486  12.284  71.067  1.00  0.00    -0.361 A  
HETATM    5  C   UNL     1     -11.582  11.875  70.076  1.00  0.00    -0.301 A  
HETATM    6  C   UNL     1     -12.020   9.566  70.716  1.00  0.00    -0.326 A  
HETATM    7  C   UNL     1     -11.289  10.507  69.983  1.00  0.00    -0.392 A  
ENDROOT
BRANCH   5   8
HETATM    8  C   UNL     1     -11.008  12.873  69.154  1.00  0.00    -0.133 A  
HETATM    9  C   UNL     1     -11.271  14.234  69.111  1.00  0.00    -0.302 A  
HETATM   10  C   UNL     1     -10.449  14.779  68.100  1.00  0.00    -0.239 A  
HETATM   11  N   UNL     1      -9.656  13.828  67.580  1.00  0.00    -0.214 NA 
HETATM   12  C   UNL     1     -10.417  16.213  67.643  1.00  0.00    -0.292 C  
HETATM   13  F   UNL     1     -11.299  16.982  68.343  1.00  0.00    -0.316 F  
HETATM   14  F   UNL     1      -9.196  16.789  67.802  1.00  0.00    -0.213 F  
HETATM   15  N   UNL     1     -10.110  12.653  68.099  1.00  0.00    -0.225 NA 
HETATM   16  F   UNL     1     -10.756  16.344  66.334  1.00  0.00    -0.308 F  
BRANCH  15  17
HETATM   17  C   UNL     1      -9.642  11.436  67.515  1.00  0.00    -0.167 A  
HETATM   18  C   UNL     1      -8.430  10.882  67.964  1.00  0.00    -0.130 A  
HETATM   19  C   UNL     1      -8.005   9.636  67.490  1.00  0.00    -0.106 A  
HETATM   20  C   UNL     1      -8.787   8.953  66.557  1.00  0.00    -0.136 A  
HETATM   21  C   UNL     1      -9.943   9.536  66.034  1.00  0.00    -0.348 A  
HETATM   22  C   UNL     1     -10.359  10.784  66.502  1.00  0.00    -0.300 A  
BRANCH  20  23
HETATM   23  S   UNL     1      -8.304   7.337  66.005  1.00  0.00    -0.146 S  
HETATM   24  O   UNL     1      -9.277   6.387  66.486  1.00  0.00    -0.149 OA 
HETATM   25  O   UNL     1      -6.882   7.184  66.223  1.00  0.00    -0.055 OA 
HETATM   26  N   UNL     1      -8.522   7.486  64.352  1.00  0.00    -0.369 N  
HETATM   27  H1  UNL     1      -8.244   6.558  64.036  1.00  0.00     0.000 HD 
HETATM   28  H2  UNL     1      -8.844   8.288  63.811  1.00  0.00     0.000 HD 
ENDBRANCH  20  23
ENDBRANCH  15  17
ENDBRANCH   5   8
TORSDOF 3
ENDMDL
MODEL       56
REMARK 921   NORMALIZED FREE ENERGY PREDICTED BY IDOCK:   -5.98 KCAL/MOL
REMARK 922        TOTAL FREE ENERGY PREDICTED BY IDOCK:   -7.70 KCAL/MOL
REMARK 923 INTER-LIGAND FREE ENERGY PREDICTED BY IDOCK:   -7.01 KCAL/MOL
REMARK 924 INTRA-LIGAND FREE ENERGY PREDICTED BY IDOCK:   -0.69 KCAL/MOL
REMARK 927      BINDING AFFINITY PREDICTED BY RF-SCORE:    0.00 PKD
ROOT
HETATM    1  C   UNL     1      -8.984   4.017  64.393  1.00  0.00    -0.137 C  
HETATM    2  C   UNL     1      -9.288   5.033  65.453  1.00  0.00    -0.123 A  
HETATM    3  C   UNL     1      -8.276   5.835  65.983  1.00  0.00    -0.114 A  
HETATM    4  C   UNL     1      -8.520   6.639  67.100  1.00  0.00    -0.113 A  
HETATM    5  C   UNL     1      -9.782   6.665  67.710  1.00  0.00    -0.136 A  
HETATM    6  C   UNL     1     -10.575   5.131  65.992  1.00  0.00    -0.236 A  
HETATM    7  C   UNL     1     -10.827   5.975  67.079  1.00  0.00    -0.413 A  
ENDROOT
BRANCH   5   8
HETATM    8  C   UNL     1      -9.959   7.371  68.993  1.00  0.00    -0.176 A  
HETATM    9  C   UNL     1      -9.914   6.830  70.268  1.00  0.00    -0.192 A  
HETATM   10  C   UNL     1     -10.085   7.899  71.175  1.00  0.00    -0.184 A  
HETATM   11  N   UNL     1     -10.162   9.064  70.512  1.00  0.00    -0.204 NA 
HETATM   12  C   UNL     1     -10.163   7.803  72.675  1.00  0.00    -0.279 C  
HETATM   13  F   UNL     1     -10.036   6.514  73.102  1.00  0.00    -0.160 F  
HETATM   14  F   UNL     1      -9.186   8.513  73.299  1.00  0.00    -0.301 F  
HETATM   15  N   UNL     1     -10.251   8.728  69.195  1.00  0.00    -0.203 NA 
HETATM   16  F   UNL     1     -11.353   8.247  73.159  1.00  0.00    -0.398 F  
BRANCH  15  17
HETATM   17  C   UNL     1     -10.625   9.747  68.265  1.00  0.00    -0.229 A  
HETATM   18  C   UNL     1     -11.423  10.817  68.706  1.00  0.00    -0.364 A  
HETATM   19  C   UNL     1     -11.710  11.884  67.848  1.00  0.00    -0.368 A  
HETATM   20  C   UNL     1     -11.209  11.872  66.545  1.00  0.00    -0.327 A  
HETATM   21  C   UNL     1     -10.494  10.771  66.068  1.00  0.00    -0.273 A  
HETATM   22  C   UNL     1     -10.219   9.703  66.925  1.00  0.00    -0.304 A  
BRANCH  20  23
HETATM   23  S   UNL     1     -11.495  13.253  65.469  1.00  0.00    -0.321 S  
HETATM   24  O   UNL     1     -12.832  13.141  64.938  1.00  0.00    -0.703 OA 
HETATM   25  O   UNL     1     -10.330  13.432  64.632  1.00  0.00    -0.395 OA 
HETATM   26  N   UNL     1     -11.496  14.517  66.566  1.00  0.00    -0.354 N  
HETATM   27  H1  UNL     1     -11.660  15.311  65.947  1.00  0.00     0.000 HD 
HETATM   28  H2  UNL     1     -11.366  14.498  67.577  1.00  0.00     0.000 HD 
ENDBRANCH  20  23
ENDBRANCH  15  17
ENDBRANCH   5   8
TORSDOF 3
ENDMDL
MODEL       57
REMARK 921   NORMALIZED FREE ENERGY PREDICTED BY IDOCK:   -5.97 KCAL/MOL
REMARK 922        TOTAL FREE ENERGY PREDICTED BY IDOCK:   -7.69 KCAL/MOL
REMARK 923 INTER-LIGAND FREE ENERGY PREDICTED BY IDOCK:   -6.90 KCAL/MOL
REMARK 924 INTRA-LIGAND FREE ENERGY PREDICTED BY IDOCK:   -0.79 KCAL/MOL
REMARK 927      BINDING AFFINITY PREDICTED BY RF-SCORE:    0.00 PKD
ROOT
HETATM    1  C   UNL     1      -5.351   7.736  64.570  1.00  0.00    -0.029 C  
HETATM    2  C   UNL     1      -6.556   8.442  65.117  1.00  0.00    -0.063 A  
HETATM    3  C   UNL     1      -7.823   8.205  64.583  1.00  0.00    -0.136 A  
HETATM    4  C   UNL     1      -8.910   9.001  64.956  1.00  0.00    -0.213 A  
HETATM    5  C   UNL     1      -8.757  10.048  65.877  1.00  0.00    -0.154 A  
HETATM    6  C   UNL     1      -6.416   9.416  66.110  1.00  0.00    -0.069 A  
HETATM    7  C   UNL     1      -7.517  10.177  66.518  1.00  0.00    -0.109 A  
ENDROOT
BRANCH   5   8
HETATM    8  C   UNL     1      -9.870  10.987  66.107  1.00  0.00    -0.225 A  
HETATM    9  C   UNL     1     -10.178  12.128  65.383  1.00  0.00    -0.299 A  
HETATM   10  C   UNL     1     -11.356  12.666  65.944  1.00  0.00    -0.334 A  
HETATM   11  N   UNL     1     -11.812  11.870  66.925  1.00  0.00    -0.610 NA 
HETATM   12  C   UNL     1     -12.051  13.936  65.531  1.00  0.00    -0.407 C  
HETATM   13  F   UNL     1     -11.403  14.549  64.499  1.00  0.00    -0.363 F  
HETATM   14  F   UNL     1     -13.327  13.727  65.114  1.00  0.00    -0.337 F  
HETATM   15  N   UNL     1     -10.828  10.950  67.131  1.00  0.00    -0.274 NA 
HETATM   16  F   UNL     1     -12.102  14.846  66.540  1.00  0.00    -0.305 F  
BRANCH  15  17
HETATM   17  C   UNL     1     -10.905  10.137  68.304  1.00  0.00    -0.252 A  
HETATM   18  C   UNL     1     -10.502   8.792  68.233  1.00  0.00    -0.236 A  
HETATM   19  C   UNL     1     -10.461   8.005  69.389  1.00  0.00    -0.223 A  
HETATM   20  C   UNL     1     -10.835   8.563  70.613  1.00  0.00    -0.225 A  
HETATM   21  C   UNL     1     -11.326   9.868  70.680  1.00  0.00    -0.413 A  
HETATM   22  C   UNL     1     -11.375  10.647  69.521  1.00  0.00    -0.342 A  
BRANCH  20  23
HETATM   23  S   UNL     1     -10.713   7.604  72.102  1.00  0.00    -0.259 S  
HETATM   24  O   UNL     1      -9.896   8.333  73.041  1.00  0.00    -0.266 OA 
HETATM   25  O   UNL     1     -10.457   6.227  71.741  1.00  0.00    -0.204 OA 
HETATM   26  N   UNL     1     -12.292   7.670  72.653  1.00  0.00    -0.555 N  
HETATM   27  H1  UNL     1     -12.221   7.119  73.509  1.00  0.00     0.000 HD 
HETATM   28  H2  UNL     1     -13.103   8.134  72.245  1.00  0.00     0.000 HD 
ENDBRANCH  20  23
ENDBRANCH  15  17
ENDBRANCH   5   8
TORSDOF 3
ENDMDL
MODEL       58
REMARK 921   NORMALIZED FREE ENERGY PREDICTED BY IDOCK:   -5.97 KCAL/MOL
REMARK 922        TOTAL FREE ENERGY PREDICTED BY IDOCK:   -7.68 KCAL/MOL
REMARK 923 INTER-LIGAND FREE ENERGY PREDICTED BY IDOCK:   -7.13 KCAL/MOL
REMARK 924 INTRA-LIGAND FREE ENERGY PREDICTED BY IDOCK:   -0.55 KCAL/MOL
REMARK 927      BINDING AFFINITY PREDICTED BY RF-SCORE:    0.00 PKD
ROOT
HETATM    1  C   UNL     1     -11.782  16.191  71.890  1.00  0.00    -0.575 C  
HETATM    2  C   UNL     1     -11.494  15.505  70.588  1.00  0.00    -0.383 A  
HETATM    3  C   UNL     1     -12.528  14.956  69.828  1.00  0.00    -0.222 A  
HETATM    4  C   UNL     1     -12.244  14.151  68.721  1.00  0.00    -0.234 A  
HETATM    5  C   UNL     1     -10.921  13.882  68.344  1.00  0.00    -0.272 A  
HETATM    6  C   UNL     1     -10.176  15.325  70.159  1.00  0.00    -0.166 A  
HETATM    7  C   UNL     1      -9.898  14.561  69.020  1.00  0.00    -0.142 A  
ENDROOT
BRANCH   5   8
HETATM    8  C   UNL     1     -10.650  12.881  67.294  1.00  0.00    -0.234 A  
HETATM    9  C   UNL     1     -10.416  13.111  65.947  1.00  0.00    -0.288 A  
HETATM   10  C   UNL     1     -10.156  11.855  65.355  1.00  0.00    -0.253 A  
HETATM   11  N   UNL     1     -10.153  10.891  66.290  1.00  0.00    -0.226 NA 
HETATM   12  C   UNL     1      -9.898  11.584  63.898  1.00  0.00    -0.296 C  
HETATM   13  F   UNL     1      -9.933  12.731  63.161  1.00  0.00    -0.099 F  
HETATM   14  F   UNL     1      -8.682  11.021  63.674  1.00  0.00    -0.161 F  
HETATM   15  N   UNL     1     -10.613  11.485  67.426  1.00  0.00    -0.205 NA 
HETATM   16  F   UNL     1     -10.830  10.757  63.355  1.00  0.00    -0.318 F  
BRANCH  15  17
HETATM   17  C   UNL     1     -10.984  10.644  68.521  1.00  0.00    -0.248 A  
HETATM   18  C   UNL     1     -10.457   9.342  68.593  1.00  0.00    -0.236 A  
HETATM   19  C   UNL     1     -10.714   8.538  69.709  1.00  0.00    -0.213 A  
HETATM   20  C   UNL     1     -11.509   9.034  70.745  1.00  0.00    -0.282 A  
HETATM   21  C   UNL     1     -12.112  10.289  70.641  1.00  0.00    -0.433 A  
HETATM   22  C   UNL     1     -11.862  11.084  69.520  1.00  0.00    -0.404 A  
BRANCH  20  23
HETATM   23  S   UNL     1     -11.779   8.059  72.203  1.00  0.00    -0.368 S  
HETATM   24  O   UNL     1     -12.007   6.694  71.796  1.00  0.00    -0.318 OA 
HETATM   25  O   UNL     1     -12.679   8.780  73.076  1.00  0.00    -0.249 OA 
HETATM   26  N   UNL     1     -10.265   8.125  72.915  1.00  0.00    -0.306 N  
HETATM   27  H1  UNL     1     -10.421   7.565  73.753  1.00  0.00     0.000 HD 
HETATM   28  H2  UNL     1      -9.419   8.597  72.598  1.00  0.00     0.000 HD 
ENDBRANCH  20  23
ENDBRANCH  15  17
ENDBRANCH   5   8
TORSDOF 3
ENDMDL
MODEL       59
REMARK 921   NORMALIZED FREE ENERGY PREDICTED BY IDOCK:   -5.92 KCAL/MOL
REMARK 922        TOTAL FREE ENERGY PREDICTED BY IDOCK:   -7.63 KCAL/MOL
REMARK 923 INTER-LIGAND FREE ENERGY PREDICTED BY IDOCK:   -6.86 KCAL/MOL
REMARK 924 INTRA-LIGAND FREE ENERGY PREDICTED BY IDOCK:   -0.77 KCAL/MOL
REMARK 927      BINDING AFFINITY PREDICTED BY RF-SCORE:    0.00 PKD
ROOT
HETATM    1  C   UNL     1      -6.688   7.493  64.197  1.00  0.00    -0.052 C  
HETATM    2  C   UNL     1      -7.438   7.466  65.496  1.00  0.00    -0.088 A  
HETATM    3  C   UNL     1      -8.608   6.717  65.627  1.00  0.00    -0.126 A  
HETATM    4  C   UNL     1      -9.409   6.845  66.766  1.00  0.00    -0.190 A  
HETATM    5  C   UNL     1      -9.054   7.720  67.803  1.00  0.00    -0.136 A  
HETATM    6  C   UNL     1      -7.026   8.263  66.568  1.00  0.00    -0.068 A  
HETATM    7  C   UNL     1      -7.804   8.350  67.728  1.00  0.00    -0.107 A  
ENDROOT
BRANCH   5   8
HETATM    8  C   UNL     1     -10.007   7.977  68.899  1.00  0.00    -0.195 A  
HETATM    9  C   UNL     1     -10.345   7.129  69.942  1.00  0.00    -0.224 A  
HETATM   10  C   UNL     1     -11.252   7.831  70.766  1.00  0.00    -0.271 A  
HETATM   11  N   UNL     1     -11.424   9.082  70.309  1.00  0.00    -0.185 NA 
HETATM   12  C   UNL     1     -11.943   7.306  71.995  1.00  0.00    -0.296 C  
HETATM   13  F   UNL     1     -11.582   6.017  72.260  1.00  0.00    -0.308 F  
HETATM   14  F   UNL     1     -11.650   8.024  73.111  1.00  0.00    -0.451 F  
HETATM   15  N   UNL     1     -10.804   9.115  69.096  1.00  0.00    -0.165 NA 
HETATM   16  F   UNL     1     -13.296   7.302  71.864  1.00  0.00    -0.352 F  
BRANCH  15  17
HETATM   17  C   UNL     1     -11.056  10.234  68.243  1.00  0.00    -0.254 A  
HETATM   18  C   UNL     1     -11.651  11.387  68.784  1.00  0.00    -0.378 A  
HETATM   19  C   UNL     1     -11.807  12.535  68.000  1.00  0.00    -0.382 A  
HETATM   20  C   UNL     1     -11.377  12.523  66.671  1.00  0.00    -0.334 A  
HETATM   21  C   UNL     1     -10.871  11.355  66.098  1.00  0.00    -0.310 A  
HETATM   22  C   UNL     1     -10.728  10.207  66.882  1.00  0.00    -0.231 A  
BRANCH  20  23
HETATM   23  S   UNL     1     -11.492  13.994  65.686  1.00  0.00    -0.328 S  
HETATM   24  O   UNL     1     -12.847  14.108  65.203  1.00  0.00    -0.686 OA 
HETATM   25  O   UNL     1     -10.340  14.054  64.815  1.00  0.00    -0.423 OA 
HETATM   26  N   UNL     1     -11.274  15.176  66.852  1.00  0.00    -0.321 N  
HETATM   27  H1  UNL     1     -11.340  16.021  66.285  1.00  0.00     0.000 HD 
HETATM   28  H2  UNL     1     -11.117  15.077  67.854  1.00  0.00     0.000 HD 
ENDBRANCH  20  23
ENDBRANCH  15  17
ENDBRANCH   5   8
TORSDOF 3
ENDMDL
MODEL       60
REMARK 921   NORMALIZED FREE ENERGY PREDICTED BY IDOCK:   -5.87 KCAL/MOL
REMARK 922        TOTAL FREE ENERGY PREDICTED BY IDOCK:   -7.57 KCAL/MOL
REMARK 923 INTER-LIGAND FREE ENERGY PREDICTED BY IDOCK:   -6.83 KCAL/MOL
REMARK 924 INTRA-LIGAND FREE ENERGY PREDICTED BY IDOCK:   -0.74 KCAL/MOL
REMARK 927      BINDING AFFINITY PREDICTED BY RF-SCORE:    0.00 PKD
ROOT
HETATM    1  C   UNL     1     -13.120  14.233  72.859  1.00  0.00    -0.589 C  
HETATM    2  C   UNL     1     -12.721  13.580  71.570  1.00  0.00    -0.412 A  
HETATM    3  C   UNL     1     -12.806  12.195  71.417  1.00  0.00    -0.378 A  
HETATM    4  C   UNL     1     -12.255  11.570  70.294  1.00  0.00    -0.415 A  
HETATM    5  C   UNL     1     -11.612  12.316  69.296  1.00  0.00    -0.383 A  
HETATM    6  C   UNL     1     -12.173  14.338  70.531  1.00  0.00    -0.427 A  
HETATM    7  C   UNL     1     -11.668  13.714  69.386  1.00  0.00    -0.379 A  
ENDROOT
BRANCH   5   8
HETATM    8  C   UNL     1     -10.877  11.619  68.224  1.00  0.00    -0.219 A  
HETATM    9  C   UNL     1     -10.817  11.958  66.881  1.00  0.00    -0.305 A  
HETATM   10  C   UNL     1      -9.951  11.031  66.261  1.00  0.00    -0.224 A  
HETATM   11  N   UNL     1      -9.433  10.194  67.174  1.00  0.00    -0.156 NA 
HETATM   12  C   UNL     1      -9.612  10.956  64.796  1.00  0.00    -0.252 C  
HETATM   13  F   UNL     1     -10.249  11.930  64.085  1.00  0.00    -0.275 F  
HETATM   14  F   UNL     1      -8.284  11.111  64.555  1.00  0.00     0.031 F  
HETATM   15  N   UNL     1     -10.117  10.444  68.326  1.00  0.00    -0.149 NA 
HETATM   16  F   UNL     1      -9.987   9.774  64.240  1.00  0.00    -0.297 F  
BRANCH  15  17
HETATM   17  C   UNL     1      -9.980   9.515  69.404  1.00  0.00    -0.191 A  
HETATM   18  C   UNL     1      -8.886   9.638  70.278  1.00  0.00    -0.253 A  
HETATM   19  C   UNL     1      -8.787   8.815  71.405  1.00  0.00    -0.292 A  
HETATM   20  C   UNL     1      -9.778   7.860  71.647  1.00  0.00    -0.163 A  
HETATM   21  C   UNL     1     -10.817   7.667  70.735  1.00  0.00    -0.246 A  
HETATM   22  C   UNL     1     -10.906   8.484  69.606  1.00  0.00    -0.157 A  
BRANCH  20  23
HETATM   23  S   UNL     1      -9.711   6.862  73.112  1.00  0.00    -0.190 S  
HETATM   24  O   UNL     1      -9.466   5.497  72.717  1.00  0.00    -0.148 OA 
HETATM   25  O   UNL     1     -10.804   7.245  73.978  1.00  0.00    -0.212 OA 
HETATM   26  N   UNL     1      -8.310   7.437  73.826  1.00  0.00    -0.142 N  
HETATM   27  H1  UNL     1      -8.272   6.863  74.668  1.00  0.00     0.000 HD 
HETATM   28  H2  UNL     1      -7.670   8.163  73.505  1.00  0.00     0.000 HD 
ENDBRANCH  20  23
ENDBRANCH  15  17
ENDBRANCH   5   8
TORSDOF 3
ENDMDL
MODEL       61
REMARK 921   NORMALIZED FREE ENERGY PREDICTED BY IDOCK:   -5.81 KCAL/MOL
REMARK 922        TOTAL FREE ENERGY PREDICTED BY IDOCK:   -7.50 KCAL/MOL
REMARK 923 INTER-LIGAND FREE ENERGY PREDICTED BY IDOCK:   -6.98 KCAL/MOL
REMARK 924 INTRA-LIGAND FREE ENERGY PREDICTED BY IDOCK:   -0.51 KCAL/MOL
REMARK 927      BINDING AFFINITY PREDICTED BY RF-SCORE:    0.00 PKD
ROOT
HETATM    1  C   UNL     1     -13.340  14.431  71.298  1.00  0.00    -0.409 C  
HETATM    2  C   UNL     1     -12.978  12.984  71.135  1.00  0.00    -0.265 A  
HETATM    3  C   UNL     1     -13.535  12.013  71.968  1.00  0.00    -0.364 A  
HETATM    4  C   UNL     1     -13.054  10.700  71.947  1.00  0.00    -0.563 A  
HETATM    5  C   UNL     1     -12.010  10.327  71.089  1.00  0.00    -0.472 A  
HETATM    6  C   UNL     1     -12.008  12.597  70.206  1.00  0.00    -0.363 A  
HETATM    7  C   UNL     1     -11.565  11.272  70.153  1.00  0.00    -0.393 A  
ENDROOT
BRANCH   5   8
HETATM    8  C   UNL     1     -11.397   8.993  71.222  1.00  0.00    -0.319 A  
HETATM    9  C   UNL     1     -11.393   8.171  72.338  1.00  0.00    -0.456 A  
HETATM   10  C   UNL     1     -10.732   6.979  71.970  1.00  0.00    -0.215 A  
HETATM   11  N   UNL     1     -10.400   7.013  70.669  1.00  0.00    -0.206 NA 
HETATM   12  C   UNL     1     -10.433   5.804  72.861  1.00  0.00    -0.214 C  
HETATM   13  F   UNL     1     -10.893   6.006  74.129  1.00  0.00    -0.240 F  
HETATM   14  F   UNL     1     -11.005   4.652  72.424  1.00  0.00    -0.254 F  
HETATM   15  N   UNL     1     -10.652   8.289  70.263  1.00  0.00    -0.223 NA 
HETATM   16  F   UNL     1      -9.098   5.571  72.975  1.00  0.00    -0.126 F  
BRANCH  15  17
HETATM   17  C   UNL     1     -10.136   8.706  68.997  1.00  0.00    -0.199 A  
HETATM   18  C   UNL     1      -9.036   9.581  68.961  1.00  0.00    -0.144 A  
HETATM   19  C   UNL     1      -8.442   9.916  67.739  1.00  0.00    -0.118 A  
HETATM   20  C   UNL     1      -8.957   9.384  66.555  1.00  0.00    -0.148 A  
HETATM   21  C   UNL     1     -10.105   8.590  66.573  1.00  0.00    -0.328 A  
HETATM   22  C   UNL     1     -10.702   8.267  67.793  1.00  0.00    -0.165 A  
BRANCH  20  23
HETATM   23  S   UNL     1      -8.167   9.734  65.005  1.00  0.00    -0.153 S  
HETATM   24  O   UNL     1      -9.099  10.461  64.178  1.00  0.00    -0.201 OA 
HETATM   25  O   UNL     1      -7.486   8.539  64.558  1.00  0.00    -0.095 OA 
HETATM   26  N   UNL     1      -6.979  10.810  65.489  1.00  0.00    -0.349 N  
HETATM   27  H1  UNL     1      -6.526  11.011  64.598  1.00  0.00     0.000 HD 
HETATM   28  H2  UNL     1      -6.768  11.167  66.420  1.00  0.00     0.000 HD 
ENDBRANCH  20  23
ENDBRANCH  15  17
ENDBRANCH   5   8
TORSDOF 3
ENDMDL
MODEL       62
REMARK 921   NORMALIZED FREE ENERGY PREDICTED BY IDOCK:   -5.81 KCAL/MOL
REMARK 922        TOTAL FREE ENERGY PREDICTED BY IDOCK:   -7.49 KCAL/MOL
REMARK 923 INTER-LIGAND FREE ENERGY PREDICTED BY IDOCK:   -6.68 KCAL/MOL
REMARK 924 INTRA-LIGAND FREE ENERGY PREDICTED BY IDOCK:   -0.81 KCAL/MOL
REMARK 927      BINDING AFFINITY PREDICTED BY RF-SCORE:    0.00 PKD
ROOT
HETATM    1  C   UNL     1     -10.492   6.999  72.940  1.00  0.00    -0.283 C  
HETATM    2  C   UNL     1     -10.545   7.742  71.638  1.00  0.00    -0.252 A  
HETATM    3  C   UNL     1     -11.125   7.159  70.509  1.00  0.00    -0.299 A  
HETATM    4  C   UNL     1     -11.002   7.766  69.256  1.00  0.00    -0.007 A  
HETATM    5  C   UNL     1     -10.301   8.971  69.102  1.00  0.00    -0.229 A  
HETATM    6  C   UNL     1      -9.934   8.992  71.510  1.00  0.00    -0.391 A  
HETATM    7  C   UNL     1      -9.857   9.621  70.263  1.00  0.00    -0.321 A  
ENDROOT
BRANCH   5   8
HETATM    8  C   UNL     1     -10.025   9.488  67.749  1.00  0.00    -0.174 A  
HETATM    9  C   UNL     1      -9.433   8.815  66.691  1.00  0.00    -0.263 A  
HETATM   10  C   UNL     1      -9.430   9.699  65.591  1.00  0.00    -0.255 A  
HETATM   11  N   UNL     1     -10.051  10.845  65.912  1.00  0.00    -0.243 NA 
HETATM   12  C   UNL     1      -8.843   9.439  64.230  1.00  0.00    -0.184 C  
HETATM   13  F   UNL     1      -8.290   8.195  64.151  1.00  0.00    -0.163 F  
HETATM   14  F   UNL     1      -9.766   9.513  63.235  1.00  0.00    -0.090 F  
HETATM   15  N   UNL     1     -10.261  10.780  67.257  1.00  0.00    -0.196 NA 
HETATM   16  F   UNL     1      -7.850  10.315  63.921  1.00  0.00    -0.150 F  
BRANCH  15  17
HETATM   17  C   UNL     1     -10.655  11.976  67.934  1.00  0.00    -0.202 A  
HETATM   18  C   UNL     1     -11.881  12.001  68.622  1.00  0.00    -0.366 A  
HETATM   19  C   UNL     1     -12.239  13.118  69.385  1.00  0.00    -0.189 A  
HETATM   20  C   UNL     1     -11.375  14.213  69.447  1.00  0.00    -0.272 A  
HETATM   21  C   UNL     1     -10.200  14.236  68.693  1.00  0.00    -0.246 A  
HETATM   22  C   UNL     1      -9.851  13.123  67.924  1.00  0.00    -0.231 A  
BRANCH  20  23
HETATM   23  S   UNL     1     -11.775  15.604  70.473  1.00  0.00    -0.401 S  
HETATM   24  O   UNL     1     -13.208  15.646  70.636  1.00  0.00    -0.487 OA 
HETATM   25  O   UNL     1     -11.001  16.741  70.026  1.00  0.00    -0.275 OA 
HETATM   26  N   UNL     1     -11.118  15.121  71.935  1.00  0.00    -0.514 N  
HETATM   27  H1  UNL     1     -11.348  15.921  72.524  1.00  0.00     0.000 HD 
HETATM   28  H2  UNL     1     -10.622  14.262  72.171  1.00  0.00     0.000 HD 
ENDBRANCH  20  23
ENDBRANCH  15  17
ENDBRANCH   5   8
TORSDOF 3
ENDMDL
MODEL       63
REMARK 921   NORMALIZED FREE ENERGY PREDICTED BY IDOCK:   -5.79 KCAL/MOL
REMARK 922        TOTAL FREE ENERGY PREDICTED BY IDOCK:   -7.47 KCAL/MOL
REMARK 923 INTER-LIGAND FREE ENERGY PREDICTED BY IDOCK:   -6.88 KCAL/MOL
REMARK 924 INTRA-LIGAND FREE ENERGY PREDICTED BY IDOCK:   -0.58 KCAL/MOL
REMARK 927      BINDING AFFINITY PREDICTED BY RF-SCORE:    0.00 PKD
ROOT
HETATM    1  C   UNL     1     -13.534   9.103  72.591  1.00  0.00    -0.395 C  
HETATM    2  C   UNL     1     -12.678   9.892  71.645  1.00  0.00    -0.527 A  
HETATM    3  C   UNL     1     -12.957  11.234  71.383  1.00  0.00    -0.482 A  
HETATM    4  C   UNL     1     -12.285  11.911  70.361  1.00  0.00    -0.399 A  
HETATM    5  C   UNL     1     -11.315  11.265  69.582  1.00  0.00    -0.359 A  
HETATM    6  C   UNL     1     -11.642   9.270  70.941  1.00  0.00    -0.364 A  
HETATM    7  C   UNL     1     -10.937   9.967  69.954  1.00  0.00    -0.321 A  
ENDROOT
BRANCH   5   8
HETATM    8  C   UNL     1     -10.762  11.942  68.393  1.00  0.00    -0.220 A  
HETATM    9  C   UNL     1     -11.050  13.218  67.937  1.00  0.00    -0.287 A  
HETATM   10  C   UNL     1     -10.241  13.442  66.802  1.00  0.00    -0.259 A  
HETATM   11  N   UNL     1      -9.431  12.391  66.592  1.00  0.00    -0.227 NA 
HETATM   12  C   UNL     1     -10.236  14.667  65.927  1.00  0.00    -0.326 C  
HETATM   13  F   UNL     1     -11.131  15.598  66.365  1.00  0.00    -0.314 F  
HETATM   14  F   UNL     1      -9.026  15.284  65.892  1.00  0.00    -0.340 F  
HETATM   15  N   UNL     1      -9.862  11.424  67.450  1.00  0.00    -0.181 NA 
HETATM   16  F   UNL     1     -10.580  14.384  64.643  1.00  0.00    -0.403 F  
BRANCH  15  17
HETATM   17  C   UNL     1      -9.373  10.094  67.263  1.00  0.00    -0.152 A  
HETATM   18  C   UNL     1     -10.241   9.109  66.761  1.00  0.00    -0.331 A  
HETATM   19  C   UNL     1      -9.760   7.830  66.463  1.00  0.00    -0.265 A  
HETATM   20  C   UNL     1      -8.413   7.534  66.682  1.00  0.00    -0.130 A  
HETATM   21  C   UNL     1      -7.564   8.475  67.268  1.00  0.00    -0.097 A  
HETATM   22  C   UNL     1      -8.051   9.748  67.573  1.00  0.00    -0.114 A  
BRANCH  20  23
HETATM   23  S   UNL     1      -7.768   5.942  66.236  1.00  0.00    -0.104 S  
HETATM   24  O   UNL     1      -6.328   6.012  66.276  1.00  0.00    -0.039 OA 
HETATM   25  O   UNL     1      -8.499   5.457  65.087  1.00  0.00    -0.141 OA 
HETATM   26  N   UNL     1      -8.262   5.021  67.543  1.00  0.00    -0.106 N  
HETATM   27  H1  UNL     1      -7.891   4.106  67.286  1.00  0.00     0.000 HD 
HETATM   28  H2  UNL     1      -8.790   5.299  68.370  1.00  0.00     0.000 HD 
ENDBRANCH  20  23
ENDBRANCH  15  17
ENDBRANCH   5   8
TORSDOF 3
ENDMDL
MODEL       64
REMARK 921   NORMALIZED FREE ENERGY PREDICTED BY IDOCK:   -5.70 KCAL/MOL
REMARK 922        TOTAL FREE ENERGY PREDICTED BY IDOCK:   -7.37 KCAL/MOL
REMARK 923 INTER-LIGAND FREE ENERGY PREDICTED BY IDOCK:   -6.81 KCAL/MOL
REMARK 924 INTRA-LIGAND FREE ENERGY PREDICTED BY IDOCK:   -0.56 KCAL/MOL
REMARK 927      BINDING AFFINITY PREDICTED BY RF-SCORE:    0.00 PKD
ROOT
HETATM    1  C   UNL     1      -6.247  18.595  68.593  1.00  0.00    -0.228 C  
HETATM    2  C   UNL     1      -7.326  17.564  68.745  1.00  0.00    -0.260 A  
HETATM    3  C   UNL     1      -8.650  17.866  68.420  1.00  0.00    -0.296 A  
HETATM    4  C   UNL     1      -9.680  16.977  68.744  1.00  0.00    -0.273 A  
HETATM    5  C   UNL     1      -9.410  15.765  69.395  1.00  0.00    -0.269 A  
HETATM    6  C   UNL     1      -7.038  16.314  69.301  1.00  0.00    -0.222 A  
HETATM    7  C   UNL     1      -8.067  15.407  69.578  1.00  0.00    -0.207 A  
ENDROOT
BRANCH   5   8
HETATM    8  C   UNL     1     -10.526  14.939  69.893  1.00  0.00    -0.084 A  
HETATM    9  C   UNL     1     -11.126  14.993  71.141  1.00  0.00    -0.201 A  
HETATM   10  C   UNL     1     -12.178  14.051  71.132  1.00  0.00    -0.338 A  
HETATM   11  N   UNL     1     -12.285  13.483  69.920  1.00  0.00    -0.316 NA 
HETATM   12  C   UNL     1     -13.087  13.707  72.281  1.00  0.00    -0.395 C  
HETATM   13  F   UNL     1     -12.788  14.438  73.393  1.00  0.00    -0.564 F  
HETATM   14  F   UNL     1     -14.396  13.944  72.007  1.00  0.00    -0.505 F  
HETATM   15  N   UNL     1     -11.188  13.897  69.227  1.00  0.00    -0.258 NA 
HETATM   16  F   UNL     1     -12.984  12.402  72.647  1.00  0.00    -0.356 F  
BRANCH  15  17
HETATM   17  C   UNL     1     -10.881  13.234  67.998  1.00  0.00    -0.243 A  
HETATM   18  C   UNL     1     -10.004  13.851  67.088  1.00  0.00    -0.239 A  
HETATM   19  C   UNL     1      -9.599  13.177  65.931  1.00  0.00    -0.122 A  
HETATM   20  C   UNL     1     -10.082  11.891  65.680  1.00  0.00    -0.243 A  
HETATM   21  C   UNL     1     -11.025  11.308  66.528  1.00  0.00    -0.303 A  
HETATM   22  C   UNL     1     -11.435  11.989  67.677  1.00  0.00    -0.392 A  
BRANCH  20  23
HETATM   23  S   UNL     1      -9.517  10.991  64.260  1.00  0.00    -0.227 S  
HETATM   24  O   UNL     1      -8.115  11.275  64.074  1.00  0.00     0.479 OA 
HETATM   25  O   UNL     1     -10.495  11.138  63.204  1.00  0.00    -0.320 OA 
HETATM   26  N   UNL     1      -9.642   9.415  64.811  1.00  0.00    -0.425 N  
HETATM   27  H1  UNL     1      -9.317   8.898  63.995  1.00  0.00     0.000 HD 
HETATM   28  H2  UNL     1      -9.957   9.068  65.717  1.00  0.00     0.000 HD 
ENDBRANCH  20  23
ENDBRANCH  15  17
ENDBRANCH   5   8
TORSDOF 3
ENDMDL
MODEL       65
REMARK 921   NORMALIZED FREE ENERGY PREDICTED BY IDOCK:   -5.70 KCAL/MOL
REMARK 922        TOTAL FREE ENERGY PREDICTED BY IDOCK:   -7.36 KCAL/MOL
REMARK 923 INTER-LIGAND FREE ENERGY PREDICTED BY IDOCK:   -6.45 KCAL/MOL
REMARK 924 INTRA-LIGAND FREE ENERGY PREDICTED BY IDOCK:   -0.91 KCAL/MOL
REMARK 927      BINDING AFFINITY PREDICTED BY RF-SCORE:    0.00 PKD
ROOT
HETATM    1  C   UNL     1      -7.218  10.361  62.934  1.00  0.00    -0.102 C  
HETATM    2  C   UNL     1      -7.987   9.785  64.086  1.00  0.00    -0.143 A  
HETATM    3  C   UNL     1      -9.320  10.138  64.299  1.00  0.00    -0.349 A  
HETATM    4  C   UNL     1      -9.975   9.757  65.475  1.00  0.00    -0.329 A  
HETATM    5  C   UNL     1      -9.313   9.011  66.461  1.00  0.00    -0.246 A  
HETATM    6  C   UNL     1      -7.353   8.956  65.016  1.00  0.00    -0.095 A  
HETATM    7  C   UNL     1      -8.028   8.535  66.167  1.00  0.00    -0.102 A  
ENDROOT
BRANCH   5   8
HETATM    8  C   UNL     1      -9.962   8.788  67.766  1.00  0.00    -0.194 A  
HETATM    9  C   UNL     1     -10.319   7.577  68.337  1.00  0.00    -0.226 A  
HETATM   10  C   UNL     1     -10.859   7.865  69.610  1.00  0.00    -0.176 A  
HETATM   11  N   UNL     1     -10.781   9.182  69.862  1.00  0.00    -0.227 NA 
HETATM   12  C   UNL     1     -11.436   6.877  70.587  1.00  0.00    -0.336 C  
HETATM   13  F   UNL     1     -11.378   5.603  70.105  1.00  0.00    -0.382 F  
HETATM   14  F   UNL     1     -10.779   6.868  71.777  1.00  0.00    -0.226 F  
HETATM   15  N   UNL     1     -10.395   9.754  68.687  1.00  0.00    -0.193 NA 
HETATM   16  F   UNL     1     -12.746   7.121  70.854  1.00  0.00    -0.382 F  
BRANCH  15  17
HETATM   17  C   UNL     1     -10.495  11.175  68.567  1.00  0.00    -0.191 A  
HETATM   18  C   UNL     1     -11.756  11.785  68.695  1.00  0.00    -0.389 A  
HETATM   19  C   UNL     1     -11.868  13.180  68.693  1.00  0.00    -0.363 A  
HETATM   20  C   UNL     1     -10.719  13.961  68.551  1.00  0.00    -0.257 A  
HETATM   21  C   UNL     1      -9.476  13.365  68.330  1.00  0.00    -0.209 A  
HETATM   22  C   UNL     1      -9.370  11.972  68.321  1.00  0.00    -0.197 A  
BRANCH  20  23
HETATM   23  S   UNL     1     -10.832  15.730  68.627  1.00  0.00    -0.296 S  
HETATM   24  O   UNL     1     -11.707  16.079  69.720  1.00  0.00    -0.319 OA 
HETATM   25  O   UNL     1     -11.011  16.237  67.284  1.00  0.00    -0.264 OA 
HETATM   26  N   UNL     1      -9.272  16.130  69.086  1.00  0.00    -0.251 N  
HETATM   27  H1  UNL     1      -9.338  17.146  69.129  1.00  0.00     0.000 HD 
HETATM   28  H2  UNL     1      -8.475  15.522  69.271  1.00  0.00     0.000 HD 
ENDBRANCH  20  23
ENDBRANCH  15  17
ENDBRANCH   5   8
TORSDOF 3
ENDMDL
MODEL       66
REMARK 921   NORMALIZED FREE ENERGY PREDICTED BY IDOCK:   -5.64 KCAL/MOL
REMARK 922        TOTAL FREE ENERGY PREDICTED BY IDOCK:   -7.30 KCAL/MOL
REMARK 923 INTER-LIGAND FREE ENERGY PREDICTED BY IDOCK:   -6.23 KCAL/MOL
REMARK 924 INTRA-LIGAND FREE ENERGY PREDICTED BY IDOCK:   -1.07 KCAL/MOL
REMARK 927      BINDING AFFINITY PREDICTED BY RF-SCORE:    0.00 PKD
ROOT
HETATM    1  C   UNL     1      -5.203  13.207  69.204  1.00  0.00    -0.069 C  
HETATM    2  C   UNL     1      -5.874  11.937  68.773  1.00  0.00    -0.050 A  
HETATM    3  C   UNL     1      -5.836  11.529  67.438  1.00  0.00    -0.081 A  
HETATM    4  C   UNL     1      -6.620  10.457  67.002  1.00  0.00    -0.075 A  
HETATM    5  C   UNL     1      -7.456   9.765  67.890  1.00  0.00    -0.086 A  
HETATM    6  C   UNL     1      -6.625  11.189  69.684  1.00  0.00    -0.139 A  
HETATM    7  C   UNL     1      -7.369  10.085  69.253  1.00  0.00    -0.091 A  
ENDROOT
BRANCH   5   8
HETATM    8  C   UNL     1      -8.410   8.768  67.369  1.00  0.00    -0.109 A  
HETATM    9  C   UNL     1      -8.285   7.387  67.388  1.00  0.00    -0.113 A  
HETATM   10  C   UNL     1      -9.468   6.860  66.826  1.00  0.00    -0.165 A  
HETATM   11  N   UNL     1     -10.327   7.850  66.532  1.00  0.00    -0.187 NA 
HETATM   12  C   UNL     1      -9.779   5.408  66.581  1.00  0.00    -0.161 C  
HETATM   13  F   UNL     1      -8.756   4.602  66.986  1.00  0.00    -0.106 F  
HETATM   14  F   UNL     1     -10.886   4.987  67.248  1.00  0.00    -0.204 F  
HETATM   15  N   UNL     1      -9.623   9.004  66.706  1.00  0.00    -0.183 NA 
HETATM   16  F   UNL     1      -9.976   5.137  65.264  1.00  0.00    -0.110 F  
BRANCH  15  17
HETATM   17  C   UNL     1     -10.188  10.217  66.202  1.00  0.00    -0.215 A  
HETATM   18  C   UNL     1      -9.953  10.576  64.863  1.00  0.00    -0.401 A  
HETATM   19  C   UNL     1     -10.583  11.698  64.313  1.00  0.00    -0.394 A  
HETATM   20  C   UNL     1     -11.437  12.465  65.108  1.00  0.00    -0.334 A  
HETATM   21  C   UNL     1     -11.603  12.171  66.463  1.00  0.00    -0.425 A  
HETATM   22  C   UNL     1     -10.963  11.057  67.011  1.00  0.00    -0.333 A  
BRANCH  20  23
HETATM   23  S   UNL     1     -12.307  13.843  64.406  1.00  0.00    -0.313 S  
HETATM   24  O   UNL     1     -13.480  14.092  65.207  1.00  0.00    -0.622 OA 
HETATM   25  O   UNL     1     -12.358  13.670  62.971  1.00  0.00    -0.672 OA 
HETATM   26  N   UNL     1     -11.224  15.086  64.700  1.00  0.00    -0.588 N  
HETATM   27  H1  UNL     1     -11.724  15.878  64.296  1.00  0.00     0.000 HD 
HETATM   28  H2  UNL     1     -10.314  15.058  65.158  1.00  0.00     0.000 HD 
ENDBRANCH  20  23
ENDBRANCH  15  17
ENDBRANCH   5   8
TORSDOF 3
ENDMDL
MODEL       67
REMARK 921   NORMALIZED FREE ENERGY PREDICTED BY IDOCK:   -5.57 KCAL/MOL
REMARK 922        TOTAL FREE ENERGY PREDICTED BY IDOCK:   -7.21 KCAL/MOL
REMARK 923 INTER-LIGAND FREE ENERGY PREDICTED BY IDOCK:   -6.29 KCAL/MOL
REMARK 924 INTRA-LIGAND FREE ENERGY PREDICTED BY IDOCK:   -0.92 KCAL/MOL
REMARK 927      BINDING AFFINITY PREDICTED BY RF-SCORE:    0.00 PKD
ROOT
HETATM    1  C   UNL     1     -11.991  15.417  69.529  1.00  0.00    -0.358 C  
HETATM    2  C   UNL     1     -11.318  14.427  68.624  1.00  0.00    -0.298 A  
HETATM    3  C   UNL     1     -12.070  13.508  67.890  1.00  0.00    -0.304 A  
HETATM    4  C   UNL     1     -11.440  12.466  67.203  1.00  0.00    -0.423 A  
HETATM    5  C   UNL     1     -10.046  12.322  67.229  1.00  0.00    -0.212 A  
HETATM    6  C   UNL     1      -9.923  14.351  68.571  1.00  0.00    -0.237 A  
HETATM    7  C   UNL     1      -9.296  13.336  67.841  1.00  0.00    -0.214 A  
ENDROOT
BRANCH   5   8
HETATM    8  C   UNL     1      -9.426  11.111  66.658  1.00  0.00    -0.183 A  
HETATM    9  C   UNL     1      -8.872  10.960  65.396  1.00  0.00    -0.192 A  
HETATM   10  C   UNL     1      -8.359   9.646  65.327  1.00  0.00    -0.134 A  
HETATM   11  N   UNL     1      -8.514   9.023  66.507  1.00  0.00    -0.117 NA 
HETATM   12  C   UNL     1      -7.710   8.995  64.136  1.00  0.00    -0.124 C  
HETATM   13  F   UNL     1      -7.652   9.845  63.070  1.00  0.00    -0.116 F  
HETATM   14  F   UNL     1      -6.433   8.601  64.382  1.00  0.00    -0.065 F  
HETATM   15  N   UNL     1      -9.302   9.847  67.252  1.00  0.00    -0.143 NA 
HETATM   16  F   UNL     1      -8.393   7.900  63.711  1.00  0.00    -0.135 F  
BRANCH  15  17
HETATM   17  C   UNL     1      -9.870   9.325  68.456  1.00  0.00    -0.158 A  
HETATM   18  C   UNL     1     -10.386   8.017  68.459  1.00  0.00    -0.229 A  
HETATM   19  C   UNL     1     -10.845   7.442  69.649  1.00  0.00    -0.222 A  
HETATM   20  C   UNL     1     -10.797   8.182  70.832  1.00  0.00    -0.230 A  
HETATM   21  C   UNL     1     -10.374   9.513  70.823  1.00  0.00    -0.377 A  
HETATM   22  C   UNL     1      -9.927  10.087  69.630  1.00  0.00    -0.263 A  
BRANCH  20  23
HETATM   23  S   UNL     1     -11.300   7.442  72.365  1.00  0.00    -0.307 S  
HETATM   24  O   UNL     1     -10.336   7.802  73.376  1.00  0.00    -0.332 OA 
HETATM   25  O   UNL     1     -11.693   6.075  72.106  1.00  0.00    -0.311 OA 
HETATM   26  N   UNL     1     -12.705   8.293  72.684  1.00  0.00    -0.607 N  
HETATM   27  H1  UNL     1     -12.993   7.868  73.565  1.00  0.00     0.000 HD 
HETATM   28  H2  UNL     1     -13.151   9.035  72.145  1.00  0.00     0.000 HD 
ENDBRANCH  20  23
ENDBRANCH  15  17
ENDBRANCH   5   8
TORSDOF 3
ENDMDL
MODEL       68
REMARK 921   NORMALIZED FREE ENERGY PREDICTED BY IDOCK:   -5.55 KCAL/MOL
REMARK 922        TOTAL FREE ENERGY PREDICTED BY IDOCK:   -7.19 KCAL/MOL
REMARK 923 INTER-LIGAND FREE ENERGY PREDICTED BY IDOCK:   -6.20 KCAL/MOL
REMARK 924 INTRA-LIGAND FREE ENERGY PREDICTED BY IDOCK:   -1.00 KCAL/MOL
REMARK 927      BINDING AFFINITY PREDICTED BY RF-SCORE:    0.00 PKD
ROOT
HETATM    1  C   UNL     1     -10.894   5.776  72.117  1.00  0.00    -0.296 C  
HETATM    2  C   UNL     1     -10.666   6.536  70.845  1.00  0.00    -0.289 A  
HETATM    3  C   UNL     1     -11.235   6.104  69.645  1.00  0.00    -0.488 A  
HETATM    4  C   UNL     1     -10.868   6.695  68.433  1.00  0.00    -0.320 A  
HETATM    5  C   UNL     1      -9.928   7.735  68.392  1.00  0.00    -0.195 A  
HETATM    6  C   UNL     1      -9.807   7.639  70.822  1.00  0.00    -0.177 A  
HETATM    7  C   UNL     1      -9.480   8.260  69.612  1.00  0.00    -0.163 A  
ENDROOT
BRANCH   5   8
HETATM    8  C   UNL     1      -9.418   8.208  67.091  1.00  0.00    -0.161 A  
HETATM    9  C   UNL     1      -8.695   7.487  66.153  1.00  0.00    -0.174 A  
HETATM   10  C   UNL     1      -8.481   8.344  65.051  1.00  0.00    -0.141 A  
HETATM   11  N   UNL     1      -9.097   9.521  65.250  1.00  0.00    -0.209 NA 
HETATM   12  C   UNL     1      -7.696   8.030  63.806  1.00  0.00    -0.135 C  
HETATM   13  F   UNL     1      -7.191   6.763  63.839  1.00  0.00    -0.052 F  
HETATM   14  F   UNL     1      -8.446   8.115  62.676  1.00  0.00    -0.179 F  
HETATM   15  N   UNL     1      -9.520   9.496  66.544  1.00  0.00    -0.169 NA 
HETATM   16  F   UNL     1      -6.631   8.859  63.645  1.00  0.00    -0.086 F  
BRANCH  15  17
HETATM   17  C   UNL     1      -9.966  10.722  67.129  1.00  0.00    -0.194 A  
HETATM   18  C   UNL     1     -11.327  10.873  67.447  1.00  0.00    -0.273 A  
HETATM   19  C   UNL     1     -11.771  12.016  68.121  1.00  0.00    -0.398 A  
HETATM   20  C   UNL     1     -10.853  13.012  68.464  1.00  0.00    -0.258 A  
HETATM   21  C   UNL     1      -9.517  12.914  68.070  1.00  0.00    -0.213 A  
HETATM   22  C   UNL     1      -9.080  11.776  67.388  1.00  0.00    -0.175 A  
BRANCH  20  23
HETATM   23  S   UNL     1     -11.385  14.430  69.389  1.00  0.00    -0.291 S  
HETATM   24  O   UNL     1     -12.175  13.970  70.504  1.00  0.00    -0.320 OA 
HETATM   25  O   UNL     1     -11.848  15.436  68.459  1.00  0.00    -0.345 OA 
HETATM   26  N   UNL     1      -9.925  14.977  69.999  1.00  0.00    -0.491 N  
HETATM   27  H1  UNL     1     -10.230  15.792  70.530  1.00  0.00     0.000 HD 
HETATM   28  H2  UNL     1      -8.987  14.598  69.873  1.00  0.00     0.000 HD 
ENDBRANCH  20  23
ENDBRANCH  15  17
ENDBRANCH   5   8
TORSDOF 3
ENDMDL
MODEL       69
REMARK 921   NORMALIZED FREE ENERGY PREDICTED BY IDOCK:   -5.54 KCAL/MOL
REMARK 922        TOTAL FREE ENERGY PREDICTED BY IDOCK:   -7.18 KCAL/MOL
REMARK 923 INTER-LIGAND FREE ENERGY PREDICTED BY IDOCK:   -6.15 KCAL/MOL
REMARK 924 INTRA-LIGAND FREE ENERGY PREDICTED BY IDOCK:   -1.03 KCAL/MOL
REMARK 927      BINDING AFFINITY PREDICTED BY RF-SCORE:    0.00 PKD
ROOT
HETATM    1  C   UNL     1     -13.013  11.720  62.862  1.00  0.00     0.522 C  
HETATM    2  C   UNL     1     -12.087  12.646  63.594  1.00  0.00    -0.632 A  
HETATM    3  C   UNL     1     -10.820  12.217  63.992  1.00  0.00    -0.439 A  
HETATM    4  C   UNL     1     -10.038  13.009  64.839  1.00  0.00    -0.233 A  
HETATM    5  C   UNL     1     -10.502  14.248  65.302  1.00  0.00    -0.408 A  
HETATM    6  C   UNL     1     -12.513  13.924  63.967  1.00  0.00    -0.263 A  
HETATM    7  C   UNL     1     -11.706  14.734  64.773  1.00  0.00    -0.422 A  
ENDROOT
BRANCH   5   8
HETATM    8  C   UNL     1      -9.743  14.971  66.339  1.00  0.00    -0.283 A  
HETATM    9  C   UNL     1      -9.183  16.236  66.251  1.00  0.00    -0.363 A  
HETATM   10  C   UNL     1      -8.606  16.520  67.508  1.00  0.00    -0.177 A  
HETATM   11  N   UNL     1      -8.849  15.518  68.369  1.00  0.00    -0.178 NA 
HETATM   12  C   UNL     1      -7.833  17.754  67.886  1.00  0.00    -0.231 C  
HETATM   13  F   UNL     1      -7.745  18.629  66.843  1.00  0.00    -0.214 F  
HETATM   14  F   UNL     1      -8.401  18.438  68.913  1.00  0.00    -0.319 F  
HETATM   15  N   UNL     1      -9.389  14.517  67.619  1.00  0.00    -0.198 NA 
HETATM   16  F   UNL     1      -6.555  17.471  68.251  1.00  0.00    -0.169 F  
BRANCH  15  17
HETATM   17  C   UNL     1      -9.496  13.219  68.208  1.00  0.00    -0.209 A  
HETATM   18  C   UNL     1     -10.685  12.862  68.867  1.00  0.00    -0.195 A  
HETATM   19  C   UNL     1     -10.859  11.562  69.354  1.00  0.00    -0.180 A  
HETATM   20  C   UNL     1      -9.836  10.625  69.192  1.00  0.00    -0.200 A  
HETATM   21  C   UNL     1      -8.616  10.995  68.623  1.00  0.00    -0.157 A  
HETATM   22  C   UNL     1      -8.443  12.297  68.148  1.00  0.00    -0.176 A  
BRANCH  20  23
HETATM   23  S   UNL     1     -10.070   8.951  69.732  1.00  0.00    -0.207 S  
HETATM   24  O   UNL     1      -9.331   8.765  70.957  1.00  0.00    -0.181 OA 
HETATM   25  O   UNL     1      -9.929   8.077  68.589  1.00  0.00    -0.178 OA 
HETATM   26  N   UNL     1     -11.697   8.968  70.125  1.00  0.00    -0.463 N  
HETATM   27  H1  UNL     1     -11.831   8.006  70.435  1.00  0.00     0.000 HD 
HETATM   28  H2  UNL     1     -12.370   9.732  70.069  1.00  0.00     0.000 HD 
ENDBRANCH  20  23
ENDBRANCH  15  17
ENDBRANCH   5   8
TORSDOF 3
ENDMDL
MODEL       70
REMARK 921   NORMALIZED FREE ENERGY PREDICTED BY IDOCK:   -5.51 KCAL/MOL
REMARK 922        TOTAL FREE ENERGY PREDICTED BY IDOCK:   -7.15 KCAL/MOL
REMARK 923 INTER-LIGAND FREE ENERGY PREDICTED BY IDOCK:   -6.13 KCAL/MOL
REMARK 924 INTRA-LIGAND FREE ENERGY PREDICTED BY IDOCK:   -1.01 KCAL/MOL
REMARK 927      BINDING AFFINITY PREDICTED BY RF-SCORE:    0.00 PKD
ROOT
HETATM    1  C   UNL     1     -11.518  14.914  68.455  1.00  0.00    -0.336 C  
HETATM    2  C   UNL     1     -10.929  13.758  67.702  1.00  0.00    -0.278 A  
HETATM    3  C   UNL     1     -11.740  12.715  67.251  1.00  0.00    -0.435 A  
HETATM    4  C   UNL     1     -11.171  11.551  66.725  1.00  0.00    -0.350 A  
HETATM    5  C   UNL     1      -9.779  11.406  66.632  1.00  0.00    -0.224 A  
HETATM    6  C   UNL     1      -9.547  13.663  67.519  1.00  0.00    -0.220 A  
HETATM    7  C   UNL     1      -8.984  12.518  66.945  1.00  0.00    -0.212 A  
ENDROOT
BRANCH   5   8
HETATM    8  C   UNL     1      -9.205  10.101  66.254  1.00  0.00    -0.157 A  
HETATM    9  C   UNL     1      -8.671   9.736  65.028  1.00  0.00    -0.198 A  
HETATM   10  C   UNL     1      -8.200   8.411  65.162  1.00  0.00    -0.157 A  
HETATM   11  N   UNL     1      -8.362   7.985  66.426  1.00  0.00    -0.118 NA 
HETATM   12  C   UNL     1      -7.586   7.561  64.084  1.00  0.00    -0.109 C  
HETATM   13  F   UNL     1      -7.513   8.231  62.898  1.00  0.00    -0.096 F  
HETATM   14  F   UNL     1      -6.320   7.167  64.381  1.00  0.00    -0.035 F  
HETATM   15  N   UNL     1      -9.116   8.941  67.038  1.00  0.00    -0.132 NA 
HETATM   16  F   UNL     1      -8.309   6.437  63.839  1.00  0.00    -0.103 F  
BRANCH  15  17
HETATM   17  C   UNL     1      -9.686   8.633  68.312  1.00  0.00    -0.155 A  
HETATM   18  C   UNL     1      -9.426   9.483  69.401  1.00  0.00    -0.182 A  
HETATM   19  C   UNL     1     -10.060   9.269  70.630  1.00  0.00    -0.339 A  
HETATM   20  C   UNL     1     -10.943   8.196  70.770  1.00  0.00    -0.244 A  
HETATM   21  C   UNL     1     -11.135   7.292  69.723  1.00  0.00    -0.203 A  
HETATM   22  C   UNL     1     -10.492   7.504  68.501  1.00  0.00    -0.211 A  
BRANCH  20  23
HETATM   23  S   UNL     1     -11.816   7.956  72.296  1.00  0.00    -0.350 S  
HETATM   24  O   UNL     1     -12.811   8.994  72.413  1.00  0.00    -0.401 OA 
HETATM   25  O   UNL     1     -10.853   7.670  73.335  1.00  0.00    -0.380 OA 
HETATM   26  N   UNL     1     -12.621   6.522  71.980  1.00  0.00    -0.508 N  
HETATM   27  H1  UNL     1     -13.122   6.384  72.857  1.00  0.00     0.000 HD 
HETATM   28  H2  UNL     1     -12.611   5.944  71.140  1.00  0.00     0.000 HD 
ENDBRANCH  20  23
ENDBRANCH  15  17
ENDBRANCH   5   8
TORSDOF 3
ENDMDL
MODEL       71
REMARK 921   NORMALIZED FREE ENERGY PREDICTED BY IDOCK:   -5.49 KCAL/MOL
REMARK 922        TOTAL FREE ENERGY PREDICTED BY IDOCK:   -7.12 KCAL/MOL
REMARK 923 INTER-LIGAND FREE ENERGY PREDICTED BY IDOCK:   -6.62 KCAL/MOL
REMARK 924 INTRA-LIGAND FREE ENERGY PREDICTED BY IDOCK:   -0.50 KCAL/MOL
REMARK 927      BINDING AFFINITY PREDICTED BY RF-SCORE:    0.00 PKD
ROOT
HETATM    1  C   UNL     1      -5.256   4.953  67.152  1.00  0.00    -0.008 C  
HETATM    2  C   UNL     1      -6.465   5.769  67.500  1.00  0.00    -0.047 A  
HETATM    3  C   UNL     1      -6.330   7.028  68.086  1.00  0.00    -0.039 A  
HETATM    4  C   UNL     1      -7.449   7.701  68.586  1.00  0.00    -0.103 A  
HETATM    5  C   UNL     1      -8.729   7.133  68.507  1.00  0.00    -0.126 A  
HETATM    6  C   UNL     1      -7.749   5.242  67.326  1.00  0.00    -0.096 A  
HETATM    7  C   UNL     1      -8.871   5.941  67.783  1.00  0.00    -0.109 A  
ENDROOT
BRANCH   5   8
HETATM    8  C   UNL     1      -9.857   7.773  69.210  1.00  0.00    -0.173 A  
HETATM    9  C   UNL     1     -10.497   7.334  70.358  1.00  0.00    -0.232 A  
HETATM   10  C   UNL     1     -11.475   8.300  70.679  1.00  0.00    -0.225 A  
HETATM   11  N   UNL     1     -11.409   9.332  69.822  1.00  0.00    -0.084 NA 
HETATM   12  C   UNL     1     -12.462   8.239  71.814  1.00  0.00    -0.332 C  
HETATM   13  F   UNL     1     -12.309   7.102  72.551  1.00  0.00    -0.210 F  
HETATM   14  F   UNL     1     -12.333   9.278  72.680  1.00  0.00    -0.353 F  
HETATM   15  N   UNL     1     -10.549   8.937  68.843  1.00  0.00    -0.200 NA 
HETATM   16  F   UNL     1     -13.749   8.237  71.377  1.00  0.00    -0.351 F  
BRANCH  15  17
HETATM   17  C   UNL     1     -10.491   9.715  67.645  1.00  0.00    -0.261 A  
HETATM   18  C   UNL     1      -9.724   9.249  66.563  1.00  0.00    -0.305 A  
HETATM   19  C   UNL     1      -9.739   9.932  65.342  1.00  0.00    -0.375 A  
HETATM   20  C   UNL     1     -10.513  11.088  65.210  1.00  0.00    -0.251 A  
HETATM   21  C   UNL     1     -11.203  11.610  66.306  1.00  0.00    -0.332 A  
HETATM   22  C   UNL     1     -11.176  10.931  67.526  1.00  0.00    -0.364 A  
BRANCH  20  23
HETATM   23  S   UNL     1     -10.607  11.921  63.647  1.00  0.00    -0.480 S  
HETATM   24  O   UNL     1      -9.567  11.399  62.794  1.00  0.00    -0.357 OA 
HETATM   25  O   UNL     1     -10.787  13.335  63.891  1.00  0.00    -0.331 OA 
HETATM   26  N   UNL     1     -12.068  11.346  63.067  1.00  0.00    -0.873 N  
HETATM   27  H1  UNL     1     -12.122  11.825  62.169  1.00  0.00     0.000 HD 
HETATM   28  H2  UNL     1     -12.725  10.694  63.496  1.00  0.00     0.000 HD 
ENDBRANCH  20  23
ENDBRANCH  15  17
ENDBRANCH   5   8
TORSDOF 3
ENDMDL
MODEL       72
REMARK 921   NORMALIZED FREE ENERGY PREDICTED BY IDOCK:   -5.48 KCAL/MOL
REMARK 922        TOTAL FREE ENERGY PREDICTED BY IDOCK:   -7.11 KCAL/MOL
REMARK 923 INTER-LIGAND FREE ENERGY PREDICTED BY IDOCK:   -6.10 KCAL/MOL
REMARK 924 INTRA-LIGAND FREE ENERGY PREDICTED BY IDOCK:   -1.01 KCAL/MOL
REMARK 927      BINDING AFFINITY PREDICTED BY RF-SCORE:    0.00 PKD
ROOT
HETATM    1  C   UNL     1      -5.733   7.906  65.913  1.00  0.00    -0.037 C  
HETATM    2  C   UNL     1      -6.940   8.506  66.569  1.00  0.00    -0.075 A  
HETATM    3  C   UNL     1      -6.801   9.423  67.613  1.00  0.00    -0.076 A  
HETATM    4  C   UNL     1      -7.916   9.832  68.351  1.00  0.00    -0.089 A  
HETATM    5  C   UNL     1      -9.196   9.338  68.059  1.00  0.00    -0.138 A  
HETATM    6  C   UNL     1      -8.224   8.089  66.207  1.00  0.00    -0.116 A  
HETATM    7  C   UNL     1      -9.343   8.540  66.916  1.00  0.00    -0.219 A  
ENDROOT
BRANCH   5   8
HETATM    8  C   UNL     1     -10.318   9.636  68.968  1.00  0.00    -0.205 A  
HETATM    9  C   UNL     1     -10.969   8.761  69.823  1.00  0.00    -0.146 A  
HETATM   10  C   UNL     1     -11.935   9.513  70.526  1.00  0.00    -0.134 A  
HETATM   11  N   UNL     1     -11.852  10.810  70.187  1.00  0.00    -0.312 NA 
HETATM   12  C   UNL     1     -12.928   8.991  71.529  1.00  0.00    -0.337 C  
HETATM   13  F   UNL     1     -12.793   7.646  71.714  1.00  0.00    -0.316 F  
HETATM   14  F   UNL     1     -12.790   9.563  72.754  1.00  0.00    -0.378 F  
HETATM   15  N   UNL     1     -10.993  10.855  69.131  1.00  0.00    -0.221 NA 
HETATM   16  F   UNL     1     -14.213   9.192  71.135  1.00  0.00    -0.403 F  
BRANCH  15  17
HETATM   17  C   UNL     1     -10.920  12.067  68.375  1.00  0.00    -0.237 A  
HETATM   18  C   UNL     1     -10.697  13.281  69.049  1.00  0.00    -0.156 A  
HETATM   19  C   UNL     1     -10.510  14.464  68.326  1.00  0.00    -0.245 A  
HETATM   20  C   UNL     1     -10.559  14.433  66.931  1.00  0.00    -0.278 A  
HETATM   21  C   UNL     1     -10.873  13.251  66.257  1.00  0.00    -0.293 A  
HETATM   22  C   UNL     1     -11.070  12.074  66.983  1.00  0.00    -0.351 A  
BRANCH  20  23
HETATM   23  S   UNL     1     -10.245  15.908  65.996  1.00  0.00    -0.355 S  
HETATM   24  O   UNL     1     -10.687  17.038  66.776  1.00  0.00    -0.234 OA 
HETATM   25  O   UNL     1     -10.664  15.683  64.630  1.00  0.00    -0.431 OA 
HETATM   26  N   UNL     1      -8.571  15.928  65.987  1.00  0.00    -0.316 N  
HETATM   27  H1  UNL     1      -8.391  16.776  65.450  1.00  0.00     0.000 HD 
HETATM   28  H2  UNL     1      -7.912  15.272  66.405  1.00  0.00     0.000 HD 
ENDBRANCH  20  23
ENDBRANCH  15  17
ENDBRANCH   5   8
TORSDOF 3
ENDMDL
MODEL       73
REMARK 921   NORMALIZED FREE ENERGY PREDICTED BY IDOCK:   -5.48 KCAL/MOL
REMARK 922        TOTAL FREE ENERGY PREDICTED BY IDOCK:   -7.10 KCAL/MOL
REMARK 923 INTER-LIGAND FREE ENERGY PREDICTED BY IDOCK:   -6.04 KCAL/MOL
REMARK 924 INTRA-LIGAND FREE ENERGY PREDICTED BY IDOCK:   -1.06 KCAL/MOL
REMARK 927      BINDING AFFINITY PREDICTED BY RF-SCORE:    0.00 PKD
ROOT
HETATM    1  C   UNL     1     -13.147  12.024  63.148  1.00  0.00     0.129 C  
HETATM    2  C   UNL     1     -12.039  12.273  64.127  1.00  0.00    -0.525 A  
HETATM    3  C   UNL     1     -10.710  12.030  63.775  1.00  0.00    -0.478 A  
HETATM    4  C   UNL     1      -9.701  12.074  64.742  1.00  0.00    -0.108 A  
HETATM    5  C   UNL     1      -9.996  12.367  66.081  1.00  0.00    -0.267 A  
HETATM    6  C   UNL     1     -12.326  12.666  65.438  1.00  0.00    -0.499 A  
HETATM    7  C   UNL     1     -11.306  12.758  66.391  1.00  0.00    -0.369 A  
ENDROOT
BRANCH   5   8
HETATM    8  C   UNL     1      -8.948  12.220  67.109  1.00  0.00    -0.192 A  
HETATM    9  C   UNL     1      -8.397  11.043  67.592  1.00  0.00    -0.117 A  
HETATM   10  C   UNL     1      -7.399  11.408  68.522  1.00  0.00    -0.105 A  
HETATM   11  N   UNL     1      -7.274  12.744  68.572  1.00  0.00    -0.109 NA 
HETATM   12  C   UNL     1      -6.558  10.475  69.351  1.00  0.00    -0.069 C  
HETATM   13  F   UNL     1      -6.862   9.170  69.100  1.00  0.00    -0.048 F  
HETATM   14  F   UNL     1      -5.228  10.613  69.113  1.00  0.00    -0.042 F  
HETATM   15  N   UNL     1      -8.318  13.233  67.846  1.00  0.00    -0.150 NA 
HETATM   16  F   UNL     1      -6.748  10.658  70.685  1.00  0.00    -0.132 F  
BRANCH  15  17
HETATM   17  C   UNL     1      -8.611  14.629  67.948  1.00  0.00    -0.165 A  
HETATM   18  C   UNL     1      -8.089  15.510  66.985  1.00  0.00    -0.272 A  
HETATM   19  C   UNL     1      -8.451  16.862  66.996  1.00  0.00    -0.228 A  
HETATM   20  C   UNL     1      -9.324  17.332  67.979  1.00  0.00    -0.264 A  
HETATM   21  C   UNL     1      -9.774  16.485  68.994  1.00  0.00    -0.258 A  
HETATM   22  C   UNL     1      -9.402  15.139  68.986  1.00  0.00    -0.219 A  
BRANCH  20  23
HETATM   23  S   UNL     1      -9.856  19.024  67.961  1.00  0.00    -0.374 S  
HETATM   24  O   UNL     1      -9.849  19.513  69.318  1.00  0.00    -0.417 OA 
HETATM   25  O   UNL     1     -11.007  19.134  67.092  1.00  0.00    -0.453 OA 
HETATM   26  N   UNL     1      -8.579  19.750  67.158  1.00  0.00    -0.309 N  
HETATM   27  H1  UNL     1      -8.885  20.723  67.148  1.00  0.00     0.000 HD 
HETATM   28  H2  UNL     1      -7.728  19.334  66.782  1.00  0.00     0.000 HD 
ENDBRANCH  20  23
ENDBRANCH  15  17
ENDBRANCH   5   8
TORSDOF 3
ENDMDL
MODEL       74
REMARK 921   NORMALIZED FREE ENERGY PREDICTED BY IDOCK:   -5.44 KCAL/MOL
REMARK 922        TOTAL FREE ENERGY PREDICTED BY IDOCK:   -7.06 KCAL/MOL
REMARK 923 INTER-LIGAND FREE ENERGY PREDICTED BY IDOCK:   -6.03 KCAL/MOL
REMARK 924 INTRA-LIGAND FREE ENERGY PREDICTED BY IDOCK:   -1.03 KCAL/MOL
REMARK 927      BINDING AFFINITY PREDICTED BY RF-SCORE:    0.00 PKD
ROOT
HETATM    1  C   UNL     1     -12.379  13.294  63.081  1.00  0.00    -0.163 C  
HETATM    2  C   UNL     1     -11.909  12.513  64.272  1.00  0.00    -0.468 A  
HETATM    3  C   UNL     1     -12.349  12.840  65.555  1.00  0.00    -0.495 A  
HETATM    4  C   UNL     1     -11.765  12.244  66.678  1.00  0.00    -0.417 A  
HETATM    5  C   UNL     1     -10.732  11.305  66.542  1.00  0.00    -0.323 A  
HETATM    6  C   UNL     1     -10.953  11.504  64.124  1.00  0.00    -0.434 A  
HETATM    7  C   UNL     1     -10.407  10.875  65.248  1.00  0.00    -0.334 A  
ENDROOT
BRANCH   5   8
HETATM    8  C   UNL     1     -10.008  10.837  67.739  1.00  0.00    -0.171 A  
HETATM    9  C   UNL     1     -10.217   9.666  68.450  1.00  0.00    -0.214 A  
HETATM   10  C   UNL     1      -9.250   9.631  69.479  1.00  0.00    -0.203 A  
HETATM   11  N   UNL     1      -8.427  10.688  69.380  1.00  0.00    -0.099 NA 
HETATM   12  C   UNL     1      -9.109   8.580  70.546  1.00  0.00    -0.156 C  
HETATM   13  F   UNL     1     -10.051   7.603  70.414  1.00  0.00    -0.187 F  
HETATM   14  F   UNL     1      -7.902   7.957  70.515  1.00  0.00    -0.087 F  
HETATM   15  N   UNL     1      -8.985  11.496  68.436  1.00  0.00    -0.173 NA 
HETATM   16  F   UNL     1      -9.266   9.090  71.796  1.00  0.00    -0.313 F  
BRANCH  15  17
HETATM   17  C   UNL     1      -8.483  12.829  68.312  1.00  0.00    -0.161 A  
HETATM   18  C   UNL     1      -7.147  13.024  67.922  1.00  0.00    -0.128 A  
HETATM   19  C   UNL     1      -6.662  14.316  67.685  1.00  0.00    -0.188 A  
HETATM   20  C   UNL     1      -7.513  15.410  67.852  1.00  0.00    -0.140 A  
HETATM   21  C   UNL     1      -8.814  15.234  68.329  1.00  0.00    -0.171 A  
HETATM   22  C   UNL     1      -9.290  13.944  68.575  1.00  0.00    -0.164 A  
BRANCH  20  23
HETATM   23  S   UNL     1      -6.940  17.047  67.479  1.00  0.00    -0.154 S  
HETATM   24  O   UNL     1      -7.375  17.384  66.145  1.00  0.00    -0.290 OA 
HETATM   25  O   UNL     1      -5.563  17.160  67.908  1.00  0.00    -0.112 OA 
HETATM   26  N   UNL     1      -7.851  17.956  68.549  1.00  0.00    -0.292 N  
HETATM   27  H1  UNL     1      -7.522  18.897  68.334  1.00  0.00     0.000 HD 
HETATM   28  H2  UNL     1      -8.547  17.651  69.230  1.00  0.00     0.000 HD 
ENDBRANCH  20  23
ENDBRANCH  15  17
ENDBRANCH   5   8
TORSDOF 3
ENDMDL
MODEL       75
REMARK 921   NORMALIZED FREE ENERGY PREDICTED BY IDOCK:   -5.43 KCAL/MOL
REMARK 922        TOTAL FREE ENERGY PREDICTED BY IDOCK:   -7.05 KCAL/MOL
REMARK 923 INTER-LIGAND FREE ENERGY PREDICTED BY IDOCK:   -6.04 KCAL/MOL
REMARK 924 INTRA-LIGAND FREE ENERGY PREDICTED BY IDOCK:   -1.01 KCAL/MOL
REMARK 927      BINDING AFFINITY PREDICTED BY RF-SCORE:    0.00 PKD
ROOT
HETATM    1  C   UNL     1     -10.554  15.942  66.643  1.00  0.00    -0.305 C  
HETATM    2  C   UNL     1     -10.664  14.535  67.150  1.00  0.00    -0.286 A  
HETATM    3  C   UNL     1     -11.896  13.880  67.172  1.00  0.00    -0.445 A  
HETATM    4  C   UNL     1     -12.034  12.649  67.821  1.00  0.00    -0.303 A  
HETATM    5  C   UNL     1     -10.942  12.042  68.458  1.00  0.00    -0.280 A  
HETATM    6  C   UNL     1      -9.549  13.889  67.694  1.00  0.00    -0.215 A  
HETATM    7  C   UNL     1      -9.681  12.634  68.298  1.00  0.00    -0.216 A  
ENDROOT
BRANCH   5   8
HETATM    8  C   UNL     1     -11.156  10.846  69.293  1.00  0.00    -0.248 A  
HETATM    9  C   UNL     1     -11.868  10.759  70.480  1.00  0.00    -0.453 A  
HETATM   10  C   UNL     1     -11.838   9.405  70.879  1.00  0.00    -0.294 A  
HETATM   11  N   UNL     1     -11.204   8.661  69.959  1.00  0.00    -0.160 NA 
HETATM   12  C   UNL     1     -12.428   8.825  72.136  1.00  0.00    -0.393 C  
HETATM   13  F   UNL     1     -13.038   9.782  72.892  1.00  0.00    -0.261 F  
HETATM   14  F   UNL     1     -13.369   7.876  71.887  1.00  0.00    -0.317 F  
HETATM   15  N   UNL     1     -10.651   9.553  69.089  1.00  0.00    -0.219 NA 
HETATM   16  F   UNL     1     -11.486   8.256  72.933  1.00  0.00    -0.443 F  
BRANCH  15  17
HETATM   17  C   UNL     1      -9.681   9.070  68.157  1.00  0.00    -0.152 A  
HETATM   18  C   UNL     1      -8.316   9.152  68.486  1.00  0.00    -0.123 A  
HETATM   19  C   UNL     1      -7.353   8.586  67.644  1.00  0.00    -0.089 A  
HETATM   20  C   UNL     1      -7.756   7.950  66.468  1.00  0.00    -0.097 A  
HETATM   21  C   UNL     1      -9.099   7.945  66.086  1.00  0.00    -0.210 A  
HETATM   22  C   UNL     1     -10.057   8.521  66.924  1.00  0.00    -0.364 A  
BRANCH  20  23
HETATM   23  S   UNL     1      -6.555   7.158  65.429  1.00  0.00    -0.048 S  
HETATM   24  O   UNL     1      -6.713   7.667  64.088  1.00  0.00    -0.051 OA 
HETATM   25  O   UNL     1      -6.544   5.745  65.737  1.00  0.00    -0.042 OA 
HETATM   26  N   UNL     1      -5.134   7.794  66.043  1.00  0.00    -0.024 N  
HETATM   27  H1  UNL     1      -4.444   7.338  65.446  1.00  0.00     0.000 HD 
HETATM   28  H2  UNL     1      -4.996   8.456  66.806  1.00  0.00     0.000 HD 
ENDBRANCH  20  23
ENDBRANCH  15  17
ENDBRANCH   5   8
TORSDOF 3
ENDMDL
MODEL       76
REMARK 921   NORMALIZED FREE ENERGY PREDICTED BY IDOCK:   -5.39 KCAL/MOL
REMARK 922        TOTAL FREE ENERGY PREDICTED BY IDOCK:   -7.00 KCAL/MOL
REMARK 923 INTER-LIGAND FREE ENERGY PREDICTED BY IDOCK:   -5.91 KCAL/MOL
REMARK 924 INTRA-LIGAND FREE ENERGY PREDICTED BY IDOCK:   -1.10 KCAL/MOL
REMARK 927      BINDING AFFINITY PREDICTED BY RF-SCORE:    0.00 PKD
ROOT
HETATM    1  C   UNL     1     -12.501  13.190  63.080  1.00  0.00    -0.115 C  
HETATM    2  C   UNL     1     -11.781  12.495  64.198  1.00  0.00    -0.471 A  
HETATM    3  C   UNL     1     -12.233  12.607  65.514  1.00  0.00    -0.501 A  
HETATM    4  C   UNL     1     -11.458  12.124  66.573  1.00  0.00    -0.430 A  
HETATM    5  C   UNL     1     -10.217  11.514  66.340  1.00  0.00    -0.261 A  
HETATM    6  C   UNL     1     -10.595  11.797  63.951  1.00  0.00    -0.445 A  
HETATM    7  C   UNL     1      -9.847  11.271  65.010  1.00  0.00    -0.307 A  
ENDROOT
BRANCH   5   8
HETATM    8  C   UNL     1      -9.338  11.188  67.479  1.00  0.00    -0.168 A  
HETATM    9  C   UNL     1      -9.234   9.979  68.148  1.00  0.00    -0.130 A  
HETATM   10  C   UNL     1      -8.228  10.135  69.126  1.00  0.00    -0.145 A  
HETATM   11  N   UNL     1      -7.674  11.355  69.035  1.00  0.00    -0.103 NA 
HETATM   12  C   UNL     1      -7.790   9.111  70.138  1.00  0.00    -0.113 C  
HETATM   13  F   UNL     1      -8.490   7.948  70.009  1.00  0.00    -0.124 F  
HETATM   14  F   UNL     1      -6.476   8.784  70.022  1.00  0.00    -0.036 F  
HETATM   15  N   UNL     1      -8.455  12.043  68.155  1.00  0.00    -0.165 NA 
HETATM   16  F   UNL     1      -7.988   9.532  71.416  1.00  0.00    -0.081 F  
BRANCH  15  17
HETATM   17  C   UNL     1      -8.279  13.459  68.066  1.00  0.00    -0.161 A  
HETATM   18  C   UNL     1      -7.081  13.968  67.534  1.00  0.00    -0.179 A  
HETATM   19  C   UNL     1      -6.927  15.344  67.331  1.00  0.00    -0.222 A  
HETATM   20  C   UNL     1      -7.968  16.209  67.674  1.00  0.00    -0.145 A  
HETATM   21  C   UNL     1      -9.123  15.723  68.290  1.00  0.00    -0.187 A  
HETATM   22  C   UNL     1      -9.268  14.350  68.500  1.00  0.00    -0.198 A  
BRANCH  20  23
HETATM   23  S   UNL     1      -7.822  17.948  67.351  1.00  0.00    -0.210 S  
HETATM   24  O   UNL     1      -7.872  18.146  65.923  1.00  0.00    -0.503 OA 
HETATM   25  O   UNL     1      -6.765  18.481  68.181  1.00  0.00    -0.215 OA 
HETATM   26  N   UNL     1      -9.263  18.512  67.988  1.00  0.00    -0.290 N  
HETATM   27  H1  UNL     1      -9.179  19.511  67.802  1.00  0.00     0.000 HD 
HETATM   28  H2  UNL     1     -10.019  17.997  68.439  1.00  0.00     0.000 HD 
ENDBRANCH  20  23
ENDBRANCH  15  17
ENDBRANCH   5   8
TORSDOF 3
ENDMDL
MODEL       77
REMARK 921   NORMALIZED FREE ENERGY PREDICTED BY IDOCK:   -5.38 KCAL/MOL
REMARK 922        TOTAL FREE ENERGY PREDICTED BY IDOCK:   -6.99 KCAL/MOL
REMARK 923 INTER-LIGAND FREE ENERGY PREDICTED BY IDOCK:   -5.93 KCAL/MOL
REMARK 924 INTRA-LIGAND FREE ENERGY PREDICTED BY IDOCK:   -1.06 KCAL/MOL
REMARK 927      BINDING AFFINITY PREDICTED BY RF-SCORE:    0.00 PKD
ROOT
HETATM    1  C   UNL     1     -11.225   7.918  72.658  1.00  0.00    -0.459 C  
HETATM    2  C   UNL     1     -10.693   8.203  71.285  1.00  0.00    -0.270 A  
HETATM    3  C   UNL     1     -11.127   7.463  70.184  1.00  0.00    -0.265 A  
HETATM    4  C   UNL     1     -10.492   7.594  68.946  1.00  0.00    -0.211 A  
HETATM    5  C   UNL     1      -9.413   8.473  68.777  1.00  0.00    -0.143 A  
HETATM    6  C   UNL     1      -9.685   9.154  71.100  1.00  0.00    -0.360 A  
HETATM    7  C   UNL     1      -9.086   9.319  69.846  1.00  0.00    -0.203 A  
ENDROOT
BRANCH   5   8
HETATM    8  C   UNL     1      -8.643   8.451  67.519  1.00  0.00    -0.129 A  
HETATM    9  C   UNL     1      -7.630   7.575  67.162  1.00  0.00    -0.107 A  
HETATM   10  C   UNL     1      -7.237   7.914  65.849  1.00  0.00    -0.072 A  
HETATM   11  N   UNL     1      -8.009   8.905  65.372  1.00  0.00    -0.105 NA 
HETATM   12  C   UNL     1      -6.132   7.280  65.049  1.00  0.00    -0.038 C  
HETATM   13  F   UNL     1      -5.515   6.284  65.747  1.00  0.00    -0.012 F  
HETATM   14  F   UNL     1      -6.573   6.721  63.891  1.00  0.00    -0.041 F  
HETATM   15  N   UNL     1      -8.743   9.337  66.435  1.00  0.00    -0.129 NA 
HETATM   16  F   UNL     1      -5.158   8.170  64.719  1.00  0.00    -0.033 F  
BRANCH  15  17
HETATM   17  C   UNL     1      -9.454  10.569  66.304  1.00  0.00    -0.177 A  
HETATM   18  C   UNL     1     -10.533  10.644  65.405  1.00  0.00    -0.254 A  
HETATM   19  C   UNL     1     -11.316  11.802  65.337  1.00  0.00    -0.284 A  
HETATM   20  C   UNL     1     -11.010  12.887  66.160  1.00  0.00    -0.281 A  
HETATM   21  C   UNL     1      -9.886  12.858  66.988  1.00  0.00    -0.233 A  
HETATM   22  C   UNL     1      -9.100  11.704  67.044  1.00  0.00    -0.179 A  
BRANCH  20  23
HETATM   23  S   UNL     1     -12.040  14.332  66.146  1.00  0.00    -0.379 S  
HETATM   24  O   UNL     1     -13.310  13.975  65.561  1.00  0.00    -0.673 OA 
HETATM   25  O   UNL     1     -11.251  15.453  65.685  1.00  0.00    -0.300 OA 
HETATM   26  N   UNL     1     -12.289  14.562  67.785  1.00  0.00    -0.595 N  
HETATM   27  H1  UNL     1     -12.881  15.393  67.776  1.00  0.00     0.000 HD 
HETATM   28  H2  UNL     1     -11.943  14.020  68.576  1.00  0.00     0.000 HD 
ENDBRANCH  20  23
ENDBRANCH  15  17
ENDBRANCH   5   8
TORSDOF 3
ENDMDL
MODEL       78
REMARK 921   NORMALIZED FREE ENERGY PREDICTED BY IDOCK:   -5.33 KCAL/MOL
REMARK 922        TOTAL FREE ENERGY PREDICTED BY IDOCK:   -6.93 KCAL/MOL
REMARK 923 INTER-LIGAND FREE ENERGY PREDICTED BY IDOCK:   -6.34 KCAL/MOL
REMARK 924 INTRA-LIGAND FREE ENERGY PREDICTED BY IDOCK:   -0.59 KCAL/MOL
REMARK 927      BINDING AFFINITY PREDICTED BY RF-SCORE:    0.00 PKD
ROOT
HETATM    1  C   UNL     1     -11.234  13.304  67.158  1.00  0.00    -0.327 C  
HETATM    2  C   UNL     1     -11.329  11.967  67.831  1.00  0.00    -0.369 A  
HETATM    3  C   UNL     1     -11.860  11.854  69.117  1.00  0.00    -0.371 A  
HETATM    4  C   UNL     1     -11.769  10.647  69.817  1.00  0.00    -0.385 A  
HETATM    5  C   UNL     1     -11.151   9.525  69.247  1.00  0.00    -0.109 A  
HETATM    6  C   UNL     1     -10.803  10.827  67.217  1.00  0.00    -0.344 A  
HETATM    7  C   UNL     1     -10.760   9.608  67.903  1.00  0.00    -0.302 A  
ENDROOT
BRANCH   5   8
HETATM    8  C   UNL     1     -10.900   8.330  70.074  1.00  0.00    -0.232 A  
HETATM    9  C   UNL     1     -10.943   8.234  71.456  1.00  0.00    -0.312 A  
HETATM   10  C   UNL     1     -10.686   6.884  71.782  1.00  0.00    -0.221 A  
HETATM   11  N   UNL     1     -10.560   6.150  70.665  1.00  0.00    -0.234 NA 
HETATM   12  C   UNL     1     -10.575   6.298  73.164  1.00  0.00    -0.250 C  
HETATM   13  F   UNL     1     -10.766   7.245  74.127  1.00  0.00    -0.369 F  
HETATM   14  F   UNL     1     -11.492   5.323  73.398  1.00  0.00    -0.341 F  
HETATM   15  N   UNL     1     -10.524   7.049  69.642  1.00  0.00    -0.215 NA 
HETATM   16  F   UNL     1      -9.349   5.761  73.399  1.00  0.00    -0.135 F  
BRANCH  15  17
HETATM   17  C   UNL     1     -10.117   6.584  68.353  1.00  0.00    -0.160 A  
HETATM   18  C   UNL     1      -8.803   6.834  67.919  1.00  0.00    -0.118 A  
HETATM   19  C   UNL     1      -8.344   6.295  66.712  1.00  0.00    -0.110 A  
HETATM   20  C   UNL     1      -9.205   5.518  65.935  1.00  0.00    -0.147 A  
HETATM   21  C   UNL     1     -10.539   5.342  66.311  1.00  0.00    -0.308 A  
HETATM   22  C   UNL     1     -10.996   5.891  67.511  1.00  0.00    -0.249 A  
BRANCH  20  23
HETATM   23  S   UNL     1      -8.617   4.761  64.442  1.00  0.00    -0.145 S  
HETATM   24  O   UNL     1      -7.992   3.507  64.789  1.00  0.00    -0.088 OA 
HETATM   25  O   UNL     1      -7.960   5.771  63.643  1.00  0.00    -0.111 OA 
HETATM   26  N   UNL     1     -10.061   4.406  63.674  1.00  0.00    -0.385 N  
HETATM   27  H1  UNL     1      -9.722   3.971  62.816  1.00  0.00     0.000 HD 
HETATM   28  H2  UNL     1     -11.018   4.579  63.981  1.00  0.00     0.000 HD 
ENDBRANCH  20  23
ENDBRANCH  15  17
ENDBRANCH   5   8
TORSDOF 3
ENDMDL
MODEL       79
REMARK 921   NORMALIZED FREE ENERGY PREDICTED BY IDOCK:   -5.32 KCAL/MOL
REMARK 922        TOTAL FREE ENERGY PREDICTED BY IDOCK:   -6.92 KCAL/MOL
REMARK 923 INTER-LIGAND FREE ENERGY PREDICTED BY IDOCK:   -6.26 KCAL/MOL
REMARK 924 INTRA-LIGAND FREE ENERGY PREDICTED BY IDOCK:   -0.66 KCAL/MOL
REMARK 927      BINDING AFFINITY PREDICTED BY RF-SCORE:    0.00 PKD
ROOT
HETATM    1  C   UNL     1      -5.880   8.707  63.215  1.00  0.00    -0.077 C  
HETATM    2  C   UNL     1      -6.583   8.301  64.476  1.00  0.00    -0.065 A  
HETATM    3  C   UNL     1      -7.790   7.602  64.425  1.00  0.00    -0.137 A  
HETATM    4  C   UNL     1      -8.540   7.396  65.587  1.00  0.00    -0.128 A  
HETATM    5  C   UNL     1      -8.098   7.879  66.827  1.00  0.00    -0.108 A  
HETATM    6  C   UNL     1      -6.087   8.696  65.722  1.00  0.00    -0.052 A  
HETATM    7  C   UNL     1      -6.816   8.443  66.889  1.00  0.00    -0.069 A  
ENDROOT
BRANCH   5   8
HETATM    8  C   UNL     1      -8.994   7.816  67.997  1.00  0.00    -0.126 A  
HETATM    9  C   UNL     1      -9.086   6.802  68.937  1.00  0.00    -0.133 A  
HETATM   10  C   UNL     1     -10.042   7.212  69.893  1.00  0.00    -0.191 A  
HETATM   11  N   UNL     1     -10.478   8.451  69.613  1.00  0.00    -0.220 NA 
HETATM   12  C   UNL     1     -10.525   6.422  71.079  1.00  0.00    -0.223 C  
HETATM   13  F   UNL     1      -9.912   5.206  71.154  1.00  0.00    -0.219 F  
HETATM   14  F   UNL     1     -10.285   7.047  72.261  1.00  0.00    -0.185 F  
HETATM   15  N   UNL     1      -9.971   8.745  68.383  1.00  0.00    -0.173 NA 
HETATM   16  F   UNL     1     -11.860   6.171  71.021  1.00  0.00    -0.378 F  
BRANCH  15  17
HETATM   17  C   UNL     1     -10.491   9.887  67.697  1.00  0.00    -0.244 A  
HETATM   18  C   UNL     1     -11.119  10.903  68.439  1.00  0.00    -0.320 A  
HETATM   19  C   UNL     1     -11.537  12.080  67.809  1.00  0.00    -0.400 A  
HETATM   20  C   UNL     1     -11.338  12.233  66.435  1.00  0.00    -0.354 A  
HETATM   21  C   UNL     1     -10.802  11.192  65.674  1.00  0.00    -0.206 A  
HETATM   22  C   UNL     1     -10.396  10.014  66.306  1.00  0.00    -0.235 A  
BRANCH  20  23
HETATM   23  S   UNL     1     -11.789  13.750  65.634  1.00  0.00    -0.387 S  
HETATM   24  O   UNL     1     -11.196  14.841  66.369  1.00  0.00    -0.336 OA 
HETATM   25  O   UNL     1     -13.197  13.696  65.308  1.00  0.00    -0.724 OA 
HETATM   26  N   UNL     1     -10.956  13.607  64.189  1.00  0.00    -0.572 N  
HETATM   27  H1  UNL     1     -11.216  14.480  63.729  1.00  0.00     0.000 HD 
HETATM   28  H2  UNL     1     -10.355  12.853  63.859  1.00  0.00     0.000 HD 
ENDBRANCH  20  23
ENDBRANCH  15  17
ENDBRANCH   5   8
TORSDOF 3
ENDMDL
MODEL       80
REMARK 921   NORMALIZED FREE ENERGY PREDICTED BY IDOCK:   -5.31 KCAL/MOL
REMARK 922        TOTAL FREE ENERGY PREDICTED BY IDOCK:   -6.91 KCAL/MOL
REMARK 923 INTER-LIGAND FREE ENERGY PREDICTED BY IDOCK:   -6.05 KCAL/MOL
REMARK 924 INTRA-LIGAND FREE ENERGY PREDICTED BY IDOCK:   -0.85 KCAL/MOL
REMARK 927      BINDING AFFINITY PREDICTED BY RF-SCORE:    0.00 PKD
ROOT
HETATM    1  C   UNL     1      -8.176   8.085  74.520  1.00  0.00    -0.242 C  
HETATM    2  C   UNL     1      -8.662   8.070  73.102  1.00  0.00    -0.300 A  
HETATM    3  C   UNL     1      -9.947   7.619  72.794  1.00  0.00    -0.298 A  
HETATM    4  C   UNL     1     -10.329   7.422  71.464  1.00  0.00    -0.216 A  
HETATM    5  C   UNL     1      -9.439   7.677  70.411  1.00  0.00    -0.164 A  
HETATM    6  C   UNL     1      -7.805   8.424  72.056  1.00  0.00    -0.171 A  
HETATM    7  C   UNL     1      -8.210   8.273  70.725  1.00  0.00    -0.115 A  
ENDROOT
BRANCH   5   8
HETATM    8  C   UNL     1      -9.801   7.281  69.037  1.00  0.00    -0.165 A  
HETATM    9  C   UNL     1      -9.563   6.064  68.417  1.00  0.00    -0.130 A  
HETATM   10  C   UNL     1     -10.136   6.140  67.129  1.00  0.00    -0.170 A  
HETATM   11  N   UNL     1     -10.766   7.315  66.967  1.00  0.00    -0.355 NA 
HETATM   12  C   UNL     1     -10.089   5.082  66.060  1.00  0.00    -0.209 C  
HETATM   13  F   UNL     1      -9.411   3.975  66.479  1.00  0.00    -0.135 F  
HETATM   14  F   UNL     1     -11.324   4.656  65.686  1.00  0.00    -0.272 F  
HETATM   15  N   UNL     1     -10.423   8.063  68.052  1.00  0.00    -0.207 NA 
HETATM   16  F   UNL     1      -9.456   5.511  64.936  1.00  0.00     0.002 F  
BRANCH  15  17
HETATM   17  C   UNL     1     -10.716   9.462  68.024  1.00  0.00    -0.190 A  
HETATM   18  C   UNL     1     -11.283  10.066  69.160  1.00  0.00    -0.197 A  
HETATM   19  C   UNL     1     -11.477  11.451  69.200  1.00  0.00    -0.365 A  
HETATM   20  C   UNL     1     -11.116  12.228  68.097  1.00  0.00    -0.240 A  
HETATM   21  C   UNL     1     -10.640  11.628  66.930  1.00  0.00    -0.276 A  
HETATM   22  C   UNL     1     -10.458  10.243  66.890  1.00  0.00    -0.291 A  
BRANCH  20  23
HETATM   23  S   UNL     1     -11.280  13.993  68.161  1.00  0.00    -0.291 S  
HETATM   24  O   UNL     1     -10.044  14.578  67.701  1.00  0.00    -0.227 OA 
HETATM   25  O   UNL     1     -11.898  14.351  69.419  1.00  0.00    -0.287 OA 
HETATM   26  N   UNL     1     -12.430  14.249  66.972  1.00  0.00    -0.543 N  
HETATM   27  H1  UNL     1     -12.524  15.264  67.009  1.00  0.00     0.000 HD 
HETATM   28  H2  UNL     1     -12.906  13.574  66.374  1.00  0.00     0.000 HD 
ENDBRANCH  20  23
ENDBRANCH  15  17
ENDBRANCH   5   8
TORSDOF 3
ENDMDL
MODEL       81
REMARK 921   NORMALIZED FREE ENERGY PREDICTED BY IDOCK:   -5.18 KCAL/MOL
REMARK 922        TOTAL FREE ENERGY PREDICTED BY IDOCK:   -6.76 KCAL/MOL
REMARK 923 INTER-LIGAND FREE ENERGY PREDICTED BY IDOCK:   -5.88 KCAL/MOL
REMARK 924 INTRA-LIGAND FREE ENERGY PREDICTED BY IDOCK:   -0.88 KCAL/MOL
REMARK 927      BINDING AFFINITY PREDICTED BY RF-SCORE:    0.00 PKD
ROOT
HETATM    1  C   UNL     1      -8.440  10.842  62.459  1.00  0.00    -0.276 C  
HETATM    2  C   UNL     1      -9.036  10.236  63.694  1.00  0.00    -0.284 A  
HETATM    3  C   UNL     1     -10.190  10.776  64.266  1.00  0.00    -0.422 A  
HETATM    4  C   UNL     1     -10.632  10.338  65.518  1.00  0.00    -0.025 A  
HETATM    5  C   UNL     1      -9.935   9.346  66.224  1.00  0.00    -0.353 A  
HETATM    6  C   UNL     1      -8.395   9.178  64.344  1.00  0.00    -0.180 A  
HETATM    7  C   UNL     1      -8.870   8.707  65.573  1.00  0.00    -0.220 A  
ENDROOT
BRANCH   5   8
HETATM    8  C   UNL     1     -10.312   9.041  67.617  1.00  0.00    -0.257 A  
HETATM    9  C   UNL     1     -10.723   9.931  68.597  1.00  0.00    -0.256 A  
HETATM   10  C   UNL     1     -11.023   9.167  69.746  1.00  0.00    -0.181 A  
HETATM   11  N   UNL     1     -10.879   7.858  69.487  1.00  0.00    -0.187 NA 
HETATM   12  C   UNL     1     -11.458   9.694  71.087  1.00  0.00    -0.384 C  
HETATM   13  F   UNL     1     -11.550  11.054  71.086  1.00  0.00    -0.338 F  
HETATM   14  F   UNL     1     -12.677   9.227  71.466  1.00  0.00    -0.329 F  
HETATM   15  N   UNL     1     -10.293   7.793  68.258  1.00  0.00    -0.201 NA 
HETATM   16  F   UNL     1     -10.581   9.375  72.076  1.00  0.00    -0.399 F  
BRANCH  15  17
HETATM   17  C   UNL     1      -9.761   6.536  67.833  1.00  0.00    -0.122 A  
HETATM   18  C   UNL     1     -10.557   5.688  67.043  1.00  0.00    -0.358 A  
HETATM   19  C   UNL     1     -10.024   4.505  66.521  1.00  0.00    -0.263 A  
HETATM   20  C   UNL     1      -8.699   4.166  66.801  1.00  0.00    -0.114 A  
HETATM   21  C   UNL     1      -7.930   4.953  67.660  1.00  0.00    -0.094 A  
HETATM   22  C   UNL     1      -8.469   6.128  68.189  1.00  0.00    -0.116 A  
BRANCH  20  23
HETATM   23  S   UNL     1      -7.982   2.710  66.082  1.00  0.00    -0.084 S  
HETATM   24  O   UNL     1      -6.916   2.261  66.943  1.00  0.00    -0.042 OA 
HETATM   25  O   UNL     1      -7.805   2.939  64.665  1.00  0.00    -0.076 OA 
HETATM   26  N   UNL     1      -9.246   1.623  66.238  1.00  0.00    -0.313 N  
HETATM   27  H1  UNL     1      -8.834   0.787  65.824  1.00  0.00     0.000 HD 
HETATM   28  H2  UNL     1     -10.174   1.760  66.636  1.00  0.00     0.000 HD 
ENDBRANCH  20  23
ENDBRANCH  15  17
ENDBRANCH   5   8
TORSDOF 3
ENDMDL
MODEL       82
REMARK 921   NORMALIZED FREE ENERGY PREDICTED BY IDOCK:   -5.17 KCAL/MOL
REMARK 922        TOTAL FREE ENERGY PREDICTED BY IDOCK:   -6.74 KCAL/MOL
REMARK 923 INTER-LIGAND FREE ENERGY PREDICTED BY IDOCK:   -6.09 KCAL/MOL
REMARK 924 INTRA-LIGAND FREE ENERGY PREDICTED BY IDOCK:   -0.65 KCAL/MOL
REMARK 927      BINDING AFFINITY PREDICTED BY RF-SCORE:    0.00 PKD
ROOT
HETATM    1  C   UNL     1     -11.732   7.743  72.196  1.00  0.00    -0.368 C  
HETATM    2  C   UNL     1     -10.996   7.300  70.967  1.00  0.00    -0.272 A  
HETATM    3  C   UNL     1      -9.674   7.693  70.748  1.00  0.00    -0.173 A  
HETATM    4  C   UNL     1      -9.055   7.444  69.519  1.00  0.00    -0.143 A  
HETATM    5  C   UNL     1      -9.740   6.793  68.484  1.00  0.00    -0.133 A  
HETATM    6  C   UNL     1     -11.650   6.560  69.977  1.00  0.00    -0.455 A  
HETATM    7  C   UNL     1     -11.009   6.270  68.768  1.00  0.00    -0.424 A  
ENDROOT
BRANCH   5   8
HETATM    8  C   UNL     1      -9.132   6.714  67.142  1.00  0.00    -0.128 A  
HETATM    9  C   UNL     1      -8.365   5.685  66.620  1.00  0.00    -0.112 A  
HETATM   10  C   UNL     1      -8.056   6.037  65.288  1.00  0.00    -0.134 A  
HETATM   11  N   UNL     1      -8.655   7.194  64.960  1.00  0.00     0.037 NA 
HETATM   12  C   UNL     1      -7.197   5.259  64.328  1.00  0.00    -0.054 C  
HETATM   13  F   UNL     1      -6.726   4.111  64.894  1.00  0.00    -0.043 F  
HETATM   14  F   UNL     1      -7.866   4.887  63.205  1.00  0.00    -0.062 F  
HETATM   15  N   UNL     1      -9.165   7.681  66.126  1.00  0.00    -0.152 NA 
HETATM   16  F   UNL     1      -6.103   5.961  63.929  1.00  0.00    -0.023 F  
BRANCH  15  17
HETATM   17  C   UNL     1      -9.618   9.036  66.145  1.00  0.00    -0.272 A  
HETATM   18  C   UNL     1      -9.268   9.891  65.085  1.00  0.00    -0.288 A  
HETATM   19  C   UNL     1      -9.790  11.188  65.022  1.00  0.00    -0.315 A  
HETATM   20  C   UNL     1     -10.651  11.631  66.028  1.00  0.00    -0.258 A  
HETATM   21  C   UNL     1     -10.931  10.824  67.132  1.00  0.00    -0.324 A  
HETATM   22  C   UNL     1     -10.399   9.534  67.197  1.00  0.00    -0.320 A  
BRANCH  20  23
HETATM   23  S   UNL     1     -11.385  13.243  65.922  1.00  0.00    -0.319 S  
HETATM   24  O   UNL     1     -11.157  13.925  67.173  1.00  0.00    -0.290 OA 
HETATM   25  O   UNL     1     -12.697  13.112  65.327  1.00  0.00    -0.551 OA 
HETATM   26  N   UNL     1     -10.406  13.964  64.772  1.00  0.00    -0.515 N  
HETATM   27  H1  UNL     1     -10.828  14.891  64.712  1.00  0.00     0.000 HD 
HETATM   28  H2  UNL     1      -9.607  13.581  64.269  1.00  0.00     0.000 HD 
ENDBRANCH  20  23
ENDBRANCH  15  17
ENDBRANCH   5   8
TORSDOF 3
ENDMDL
MODEL       83
REMARK 921   NORMALIZED FREE ENERGY PREDICTED BY IDOCK:   -5.04 KCAL/MOL
REMARK 922        TOTAL FREE ENERGY PREDICTED BY IDOCK:   -6.60 KCAL/MOL
REMARK 923 INTER-LIGAND FREE ENERGY PREDICTED BY IDOCK:   -5.54 KCAL/MOL
REMARK 924 INTRA-LIGAND FREE ENERGY PREDICTED BY IDOCK:   -1.06 KCAL/MOL
REMARK 927      BINDING AFFINITY PREDICTED BY RF-SCORE:    0.00 PKD
ROOT
HETATM    1  C   UNL     1     -10.777   7.110  73.339  1.00  0.00    -0.410 C  
HETATM    2  C   UNL     1     -10.306   7.021  71.917  1.00  0.00    -0.213 A  
HETATM    3  C   UNL     1      -8.955   7.180  71.604  1.00  0.00    -0.136 A  
HETATM    4  C   UNL     1      -8.545   7.292  70.271  1.00  0.00    -0.142 A  
HETATM    5  C   UNL     1      -9.475   7.242  69.223  1.00  0.00    -0.153 A  
HETATM    6  C   UNL     1     -11.225   6.868  70.875  1.00  0.00    -0.332 A  
HETATM    7  C   UNL     1     -10.804   6.930  69.543  1.00  0.00    -0.287 A  
ENDROOT
BRANCH   5   8
HETATM    8  C   UNL     1      -9.042   7.553  67.848  1.00  0.00    -0.130 A  
HETATM    9  C   UNL     1      -8.302   6.751  66.993  1.00  0.00    -0.114 A  
HETATM   10  C   UNL     1      -8.183   7.451  65.772  1.00  0.00    -0.135 A  
HETATM   11  N   UNL     1      -8.872   8.602  65.826  1.00  0.00    -0.183 NA 
HETATM   12  C   UNL     1      -7.419   7.010  64.553  1.00  0.00    -0.099 C  
HETATM   13  F   UNL     1      -6.826   5.797  64.745  1.00  0.00    -0.045 F  
HETATM   14  F   UNL     1      -8.209   6.882  63.455  1.00  0.00    -0.112 F  
HETATM   15  N   UNL     1      -9.250   8.739  67.128  1.00  0.00    -0.134 NA 
HETATM   16  F   UNL     1      -6.420   7.873  64.230  1.00  0.00    -0.054 F  
BRANCH  15  17
HETATM   17  C   UNL     1      -9.760  10.006  67.550  1.00  0.00    -0.159 A  
HETATM   18  C   UNL     1      -8.860  11.055  67.806  1.00  0.00    -0.133 A  
HETATM   19  C   UNL     1      -9.337  12.335  68.111  1.00  0.00    -0.205 A  
HETATM   20  C   UNL     1     -10.715  12.558  68.173  1.00  0.00    -0.227 A  
HETATM   21  C   UNL     1     -11.614  11.502  68.013  1.00  0.00    -0.370 A  
HETATM   22  C   UNL     1     -11.134  10.224  67.719  1.00  0.00    -0.335 A  
BRANCH  20  23
HETATM   23  S   UNL     1     -11.338  14.191  68.479  1.00  0.00    -0.303 S  
HETATM   24  O   UNL     1     -10.230  15.114  68.422  1.00  0.00    -0.215 OA 
HETATM   25  O   UNL     1     -12.253  14.130  69.597  1.00  0.00    -0.326 OA 
HETATM   26  N   UNL     1     -12.269  14.439  67.111  1.00  0.00    -0.584 N  
HETATM   27  H1  UNL     1     -12.627  15.377  67.287  1.00  0.00     0.000 HD 
HETATM   28  H2  UNL     1     -12.433  13.820  66.317  1.00  0.00     0.000 HD 
ENDBRANCH  20  23
ENDBRANCH  15  17
ENDBRANCH   5   8
TORSDOF 3
ENDMDL
MODEL       84
REMARK 921   NORMALIZED FREE ENERGY PREDICTED BY IDOCK:   -4.98 KCAL/MOL
REMARK 922        TOTAL FREE ENERGY PREDICTED BY IDOCK:   -6.52 KCAL/MOL
REMARK 923 INTER-LIGAND FREE ENERGY PREDICTED BY IDOCK:   -5.64 KCAL/MOL
REMARK 924 INTRA-LIGAND FREE ENERGY PREDICTED BY IDOCK:   -0.88 KCAL/MOL
REMARK 927      BINDING AFFINITY PREDICTED BY RF-SCORE:    0.00 PKD
ROOT
HETATM    1  C   UNL     1      -9.484  14.072  67.444  1.00  0.00    -0.225 C  
HETATM    2  C   UNL     1      -9.222  12.688  66.928  1.00  0.00    -0.216 A  
HETATM    3  C   UNL     1     -10.211  11.987  66.237  1.00  0.00    -0.251 A  
HETATM    4  C   UNL     1     -10.037  10.635  65.928  1.00  0.00    -0.321 A  
HETATM    5  C   UNL     1      -8.869   9.954  66.297  1.00  0.00    -0.160 A  
HETATM    6  C   UNL     1      -8.013  12.044  67.209  1.00  0.00    -0.174 A  
HETATM    7  C   UNL     1      -7.823  10.705  66.853  1.00  0.00    -0.121 A  
ENDROOT
BRANCH   5   8
HETATM    8  C   UNL     1      -8.792   8.490  66.130  1.00  0.00    -0.167 A  
HETATM    9  C   UNL     1      -8.385   7.788  65.007  1.00  0.00    -0.094 A  
HETATM   10  C   UNL     1      -8.430   6.417  65.340  1.00  0.00    -0.123 A  
HETATM   11  N   UNL     1      -8.777   6.261  66.628  1.00  0.00    -0.122 NA 
HETATM   12  C   UNL     1      -8.129   5.258  64.428  1.00  0.00    -0.121 C  
HETATM   13  F   UNL     1      -7.778   5.682  63.180  1.00  0.00    -0.060 F  
HETATM   14  F   UNL     1      -7.101   4.490  64.875  1.00  0.00    -0.056 F  
HETATM   15  N   UNL     1      -9.154   7.499  67.054  1.00  0.00    -0.130 NA 
HETATM   16  F   UNL     1      -9.201   4.439  64.264  1.00  0.00    -0.143 F  
BRANCH  15  17
HETATM   17  C   UNL     1      -9.840   7.599  68.305  1.00  0.00    -0.166 A  
HETATM   18  C   UNL     1     -10.803   6.630  68.637  1.00  0.00    -0.319 A  
HETATM   19  C   UNL     1     -11.407   6.640  69.899  1.00  0.00    -0.422 A  
HETATM   20  C   UNL     1     -11.056   7.627  70.822  1.00  0.00    -0.264 A  
HETATM   21  C   UNL     1     -10.171   8.648  70.469  1.00  0.00    -0.229 A  
HETATM   22  C   UNL     1      -9.578   8.641  69.204  1.00  0.00    -0.163 A  
BRANCH  20  23
HETATM   23  S   UNL     1     -11.753   7.608  72.453  1.00  0.00    -0.297 S  
HETATM   24  O   UNL     1     -12.770   8.628  72.521  1.00  0.00    -0.385 OA 
HETATM   25  O   UNL     1     -10.674   7.509  73.411  1.00  0.00    -0.387 OA 
HETATM   26  N   UNL     1     -12.528   6.124  72.451  1.00  0.00    -0.524 N  
HETATM   27  H1  UNL     1     -12.928   6.113  73.389  1.00  0.00     0.000 HD 
HETATM   28  H2  UNL     1     -12.584   5.423  71.712  1.00  0.00     0.000 HD 
ENDBRANCH  20  23
ENDBRANCH  15  17
ENDBRANCH   5   8
TORSDOF 3
ENDMDL
MODEL       85
REMARK 921   NORMALIZED FREE ENERGY PREDICTED BY IDOCK:   -4.97 KCAL/MOL
REMARK 922        TOTAL FREE ENERGY PREDICTED BY IDOCK:   -6.51 KCAL/MOL
REMARK 923 INTER-LIGAND FREE ENERGY PREDICTED BY IDOCK:   -5.97 KCAL/MOL
REMARK 924 INTRA-LIGAND FREE ENERGY PREDICTED BY IDOCK:   -0.54 KCAL/MOL
REMARK 927      BINDING AFFINITY PREDICTED BY RF-SCORE:    0.00 PKD
ROOT
HETATM    1  C   UNL     1      -8.272  19.640  65.593  1.00  0.00     0.094 C  
HETATM    2  C   UNL     1      -8.583  18.248  66.056  1.00  0.00    -0.010 A  
HETATM    3  C   UNL     1      -7.567  17.304  66.206  1.00  0.00    -0.360 A  
HETATM    4  C   UNL     1      -7.876  15.962  66.447  1.00  0.00    -0.041 A  
HETATM    5  C   UNL     1      -9.207  15.534  66.549  1.00  0.00    -0.324 A  
HETATM    6  C   UNL     1      -9.907  17.849  66.258  1.00  0.00    -0.307 A  
HETATM    7  C   UNL     1     -10.210  16.514  66.549  1.00  0.00    -0.305 A  
ENDROOT
BRANCH   5   8
HETATM    8  C   UNL     1      -9.509  14.092  66.613  1.00  0.00    -0.287 A  
HETATM    9  C   UNL     1      -9.258  13.132  65.644  1.00  0.00     0.365 A  
HETATM   10  C   UNL     1      -9.670  11.892  66.177  1.00  0.00    -0.232 A  
HETATM   11  N   UNL     1     -10.093  12.046  67.443  1.00  0.00    -0.193 NA 
HETATM   12  C   UNL     1      -9.648  10.559  65.478  1.00  0.00    -0.230 C  
HETATM   13  F   UNL     1      -9.154  10.667  64.211  1.00  0.00    -0.187 F  
HETATM   14  F   UNL     1      -8.873   9.643  66.116  1.00  0.00    -0.142 F  
HETATM   15  N   UNL     1     -10.150  13.392  67.645  1.00  0.00    -0.225 NA 
HETATM   16  F   UNL     1     -10.889  10.020  65.356  1.00  0.00    -0.093 F  
BRANCH  15  17
HETATM   17  C   UNL     1     -10.831  13.868  68.808  1.00  0.00    -0.263 A  
HETATM   18  C   UNL     1     -11.964  13.175  69.270  1.00  0.00    -0.344 A  
HETATM   19  C   UNL     1     -12.583  13.552  70.467  1.00  0.00    -0.311 A  
HETATM   20  C   UNL     1     -12.074  14.631  71.194  1.00  0.00    -0.342 A  
HETATM   21  C   UNL     1     -11.008  15.383  70.697  1.00  0.00    -0.350 A  
HETATM   22  C   UNL     1     -10.400  15.010  69.496  1.00  0.00    -0.230 A  
BRANCH  20  23
HETATM   23  S   UNL     1     -12.796  15.072  72.753  1.00  0.00    -0.452 S  
HETATM   24  O   UNL     1     -11.923  16.020  73.401  1.00  0.00    -0.439 OA 
HETATM   25  O   UNL     1     -13.265  13.866  73.399  1.00  0.00    -0.432 OA 
HETATM   26  N   UNL     1     -14.157  15.906  72.249  1.00  0.00    -0.326 N  
HETATM   27  H1  UNL     1     -14.572  16.160  73.145  1.00  0.00     0.000 HD 
HETATM   28  H2  UNL     1     -14.482  16.105  71.303  1.00  0.00     0.000 HD 
ENDBRANCH  20  23
ENDBRANCH  15  17
ENDBRANCH   5   8
TORSDOF 3
ENDMDL
MODEL       86
REMARK 921   NORMALIZED FREE ENERGY PREDICTED BY IDOCK:   -4.92 KCAL/MOL
REMARK 922        TOTAL FREE ENERGY PREDICTED BY IDOCK:   -6.45 KCAL/MOL
REMARK 923 INTER-LIGAND FREE ENERGY PREDICTED BY IDOCK:   -5.37 KCAL/MOL
REMARK 924 INTRA-LIGAND FREE ENERGY PREDICTED BY IDOCK:   -1.08 KCAL/MOL
REMARK 927      BINDING AFFINITY PREDICTED BY RF-SCORE:    0.00 PKD
ROOT
HETATM    1  C   UNL     1      -6.437  10.282  65.510  1.00  0.00    -0.121 C  
HETATM    2  C   UNL     1      -7.426   9.860  66.555  1.00  0.00    -0.100 A  
HETATM    3  C   UNL     1      -6.997   9.253  67.737  1.00  0.00    -0.081 A  
HETATM    4  C   UNL     1      -7.922   8.686  68.619  1.00  0.00    -0.115 A  
HETATM    5  C   UNL     1      -9.296   8.718  68.343  1.00  0.00    -0.141 A  
HETATM    6  C   UNL     1      -8.799   9.986  66.324  1.00  0.00    -0.160 A  
HETATM    7  C   UNL     1      -9.723   9.462  67.234  1.00  0.00    -0.215 A  
ENDROOT
BRANCH   5   8
HETATM    8  C   UNL     1     -10.229   7.950  69.190  1.00  0.00    -0.216 A  
HETATM    9  C   UNL     1     -10.821   8.353  70.376  1.00  0.00    -0.246 A  
HETATM   10  C   UNL     1     -11.672   7.304  70.788  1.00  0.00    -0.299 A  
HETATM   11  N   UNL     1     -11.674   6.320  69.875  1.00  0.00    -0.314 NA 
HETATM   12  C   UNL     1     -12.490   7.253  72.050  1.00  0.00    -0.242 C  
HETATM   13  F   UNL     1     -12.331   8.383  72.797  1.00  0.00    -0.435 F  
HETATM   14  F   UNL     1     -13.822   7.136  71.810  1.00  0.00    -0.403 F  
HETATM   15  N   UNL     1     -10.682   6.637  68.997  1.00  0.00    -0.236 NA 
HETATM   16  F   UNL     1     -12.135   6.215  72.853  1.00  0.00    -0.133 F  
BRANCH  15  17
HETATM   17  C   UNL     1     -10.259   5.634  68.070  1.00  0.00    -0.186 A  
HETATM   18  C   UNL     1     -10.571   5.786  66.708  1.00  0.00    -0.373 A  
HETATM   19  C   UNL     1     -10.075   4.879  65.765  1.00  0.00    -0.195 A  
HETATM   20  C   UNL     1      -9.279   3.813  66.189  1.00  0.00    -0.164 A  
HETATM   21  C   UNL     1      -9.042   3.599  67.549  1.00  0.00    -0.185 A  
HETATM   22  C   UNL     1      -9.548   4.501  68.488  1.00  0.00    -0.212 A  
BRANCH  20  23
HETATM   23  S   UNL     1      -8.576   2.699  65.000  1.00  0.00    -0.106 S  
HETATM   24  O   UNL     1      -7.696   1.793  65.697  1.00  0.00    -0.068 OA 
HETATM   25  O   UNL     1      -8.162   3.464  63.845  1.00  0.00    -0.088 OA 
HETATM   26  N   UNL     1      -9.930   1.830  64.539  1.00  0.00    -0.335 N  
HETATM   27  H1  UNL     1      -9.526   1.190  63.856  1.00  0.00     0.000 HD 
HETATM   28  H2  UNL     1     -10.895   1.917  64.855  1.00  0.00     0.000 HD 
ENDBRANCH  20  23
ENDBRANCH  15  17
ENDBRANCH   5   8
TORSDOF 3
ENDMDL
MODEL       87
REMARK 921   NORMALIZED FREE ENERGY PREDICTED BY IDOCK:   -4.90 KCAL/MOL
REMARK 922        TOTAL FREE ENERGY PREDICTED BY IDOCK:   -6.43 KCAL/MOL
REMARK 923 INTER-LIGAND FREE ENERGY PREDICTED BY IDOCK:   -5.40 KCAL/MOL
REMARK 924 INTRA-LIGAND FREE ENERGY PREDICTED BY IDOCK:   -1.02 KCAL/MOL
REMARK 927      BINDING AFFINITY PREDICTED BY RF-SCORE:    0.00 PKD
ROOT
HETATM    1  C   UNL     1     -10.070   6.940  73.765  1.00  0.00    -0.373 C  
HETATM    2  C   UNL     1     -10.087   6.320  72.400  1.00  0.00    -0.195 A  
HETATM    3  C   UNL     1      -8.985   5.603  71.930  1.00  0.00    -0.144 A  
HETATM    4  C   UNL     1      -8.922   5.194  70.594  1.00  0.00    -0.162 A  
HETATM    5  C   UNL     1      -9.962   5.486  69.700  1.00  0.00    -0.282 A  
HETATM    6  C   UNL     1     -11.171   6.525  71.542  1.00  0.00    -0.322 A  
HETATM    7  C   UNL     1     -11.126   6.070  70.219  1.00  0.00    -0.415 A  
ENDROOT
BRANCH   5   8
HETATM    8  C   UNL     1      -9.786   5.212  68.261  1.00  0.00    -0.156 A  
HETATM    9  C   UNL     1      -9.643   3.978  67.647  1.00  0.00    -0.210 A  
HETATM   10  C   UNL     1      -9.558   4.217  66.258  1.00  0.00    -0.199 A  
HETATM   11  N   UNL     1      -9.713   5.526  66.000  1.00  0.00    -0.123 NA 
HETATM   12  C   UNL     1      -9.342   3.190  65.180  1.00  0.00    -0.143 C  
HETATM   13  F   UNL     1      -9.239   1.933  65.698  1.00  0.00    -0.127 F  
HETATM   14  F   UNL     1     -10.359   3.151  64.278  1.00  0.00    -0.171 F  
HETATM   15  N   UNL     1      -9.684   6.141  67.215  1.00  0.00    -0.123 NA 
HETATM   16  F   UNL     1      -8.196   3.408  64.483  1.00  0.00    -0.087 F  
BRANCH  15  17
HETATM   17  C   UNL     1      -9.547   7.564  67.245  1.00  0.00    -0.156 A  
HETATM   18  C   UNL     1      -8.271   8.131  67.079  1.00  0.00    -0.115 A  
HETATM   19  C   UNL     1      -8.123   9.520  66.992  1.00  0.00    -0.113 A  
HETATM   20  C   UNL     1      -9.251  10.339  67.084  1.00  0.00    -0.145 A  
HETATM   21  C   UNL     1     -10.509   9.790  67.342  1.00  0.00    -0.319 A  
HETATM   22  C   UNL     1     -10.651   8.404  67.439  1.00  0.00    -0.313 A  
BRANCH  20  23
HETATM   23  S   UNL     1      -9.092  12.096  66.895  1.00  0.00    -0.206 S  
HETATM   24  O   UNL     1      -7.710  12.449  67.113  1.00  0.00    -0.162 OA 
HETATM   25  O   UNL     1     -10.185  12.733  67.596  1.00  0.00    -0.213 OA 
HETATM   26  N   UNL     1      -9.404  12.270  65.260  1.00  0.00    -0.430 N  
HETATM   27  H1  UNL     1      -9.313  13.280  65.152  1.00  0.00     0.000 HD 
HETATM   28  H2  UNL     1      -9.625  11.560  64.563  1.00  0.00     0.000 HD 
ENDBRANCH  20  23
ENDBRANCH  15  17
ENDBRANCH   5   8
TORSDOF 3
ENDMDL
MODEL       88
REMARK 921   NORMALIZED FREE ENERGY PREDICTED BY IDOCK:   -4.90 KCAL/MOL
REMARK 922        TOTAL FREE ENERGY PREDICTED BY IDOCK:   -6.42 KCAL/MOL
REMARK 923 INTER-LIGAND FREE ENERGY PREDICTED BY IDOCK:   -5.30 KCAL/MOL
REMARK 924 INTRA-LIGAND FREE ENERGY PREDICTED BY IDOCK:   -1.12 KCAL/MOL
REMARK 927      BINDING AFFINITY PREDICTED BY RF-SCORE:    0.00 PKD
ROOT
HETATM    1  C   UNL     1     -13.211  11.885  63.114  1.00  0.00     0.371 C  
HETATM    2  C   UNL     1     -12.227  12.538  64.038  1.00  0.00    -0.566 A  
HETATM    3  C   UNL     1     -10.859  12.503  63.762  1.00  0.00    -0.489 A  
HETATM    4  C   UNL     1      -9.932  12.938  64.714  1.00  0.00    -0.151 A  
HETATM    5  C   UNL     1     -10.351  13.423  65.961  1.00  0.00    -0.297 A  
HETATM    6  C   UNL     1     -12.656  13.115  65.237  1.00  0.00    -0.531 A  
HETATM    7  C   UNL     1     -11.727  13.595  66.166  1.00  0.00    -0.391 A  
ENDROOT
BRANCH   5   8
HETATM    8  C   UNL     1      -9.352  13.694  67.012  1.00  0.00    -0.248 A  
HETATM    9  C   UNL     1      -8.600  14.845  67.187  1.00  0.00    -0.248 A  
HETATM   10  C   UNL     1      -7.826  14.657  68.353  1.00  0.00    -0.131 A  
HETATM   11  N   UNL     1      -8.126  13.480  68.927  1.00  0.00     0.038 NA 
HETATM   12  C   UNL     1      -6.811  15.610  68.922  1.00  0.00    -0.126 C  
HETATM   13  F   UNL     1      -6.707  16.742  68.168  1.00  0.00    -0.136 F  
HETATM   14  F   UNL     1      -7.117  16.016  70.183  1.00  0.00    -0.072 F  
HETATM   15  N   UNL     1      -8.922  12.832  68.031  1.00  0.00    -0.190 NA 
HETATM   16  F   UNL     1      -5.564  15.070  68.967  1.00  0.00    -0.094 F  
BRANCH  15  17
HETATM   17  C   UNL     1      -9.174  11.441  68.241  1.00  0.00    -0.183 A  
HETATM   18  C   UNL     1     -10.125  11.055  69.202  1.00  0.00    -0.167 A  
HETATM   19  C   UNL     1     -10.473   9.707  69.349  1.00  0.00    -0.236 A  
HETATM   20  C   UNL     1      -9.857   8.747  68.544  1.00  0.00    -0.168 A  
HETATM   21  C   UNL     1      -8.844   9.108  67.654  1.00  0.00    -0.123 A  
HETATM   22  C   UNL     1      -8.492  10.454  67.517  1.00  0.00    -0.115 A  
BRANCH  20  23
HETATM   23  S   UNL     1     -10.342   7.044  68.662  1.00  0.00    -0.193 S  
HETATM   24  O   UNL     1      -9.184   6.271  69.039  1.00  0.00    -0.128 OA 
HETATM   25  O   UNL     1     -11.164   6.721  67.516  1.00  0.00    -0.287 OA 
HETATM   26  N   UNL     1     -11.365   7.096  69.986  1.00  0.00    -0.440 N  
HETATM   27  H1  UNL     1     -11.644   6.117  70.053  1.00  0.00     0.000 HD 
HETATM   28  H2  UNL     1     -11.636   7.889  70.566  1.00  0.00     0.000 HD 
ENDBRANCH  20  23
ENDBRANCH  15  17
ENDBRANCH   5   8
TORSDOF 3
ENDMDL
MODEL       89
REMARK 921   NORMALIZED FREE ENERGY PREDICTED BY IDOCK:   -4.86 KCAL/MOL
REMARK 922        TOTAL FREE ENERGY PREDICTED BY IDOCK:   -6.37 KCAL/MOL
REMARK 923 INTER-LIGAND FREE ENERGY PREDICTED BY IDOCK:   -5.31 KCAL/MOL
REMARK 924 INTRA-LIGAND FREE ENERGY PREDICTED BY IDOCK:   -1.06 KCAL/MOL
REMARK 927      BINDING AFFINITY PREDICTED BY RF-SCORE:    0.00 PKD
ROOT
HETATM    1  C   UNL     1      -6.086   9.412  62.581  1.00  0.00    -0.093 C  
HETATM    2  C   UNL     1      -6.643   9.274  63.966  1.00  0.00    -0.091 A  
HETATM    3  C   UNL     1      -7.909   8.725  64.173  1.00  0.00    -0.139 A  
HETATM    4  C   UNL     1      -8.506   8.776  65.436  1.00  0.00    -0.186 A  
HETATM    5  C   UNL     1      -7.849   9.370  66.523  1.00  0.00    -0.097 A  
HETATM    6  C   UNL     1      -5.940   9.776  65.066  1.00  0.00    -0.089 A  
HETATM    7  C   UNL     1      -6.521   9.779  66.338  1.00  0.00    -0.071 A  
ENDROOT
BRANCH   5   8
HETATM    8  C   UNL     1      -8.575   9.579  67.790  1.00  0.00    -0.115 A  
HETATM    9  C   UNL     1      -8.981   8.617  68.701  1.00  0.00    -0.142 A  
HETATM   10  C   UNL     1      -9.587   9.299  69.778  1.00  0.00    -0.190 A  
HETATM   11  N   UNL     1      -9.506  10.627  69.593  1.00  0.00    -0.012 NA 
HETATM   12  C   UNL     1     -10.233   8.678  70.987  1.00  0.00    -0.220 C  
HETATM   13  F   UNL     1     -10.166   7.317  70.948  1.00  0.00    -0.195 F  
HETATM   14  F   UNL     1      -9.645   9.059  72.151  1.00  0.00    -0.365 F  
HETATM   15  N   UNL     1      -9.045  10.789  68.321  1.00  0.00    -0.151 NA 
HETATM   16  F   UNL     1     -11.553   8.989  71.083  1.00  0.00    -0.291 F  
BRANCH  15  17
HETATM   17  C   UNL     1      -9.119  12.094  67.742  1.00  0.00    -0.189 A  
HETATM   18  C   UNL     1     -10.073  12.345  66.741  1.00  0.00    -0.226 A  
HETATM   19  C   UNL     1     -10.242  13.639  66.236  1.00  0.00    -0.296 A  
HETATM   20  C   UNL     1      -9.446  14.677  66.726  1.00  0.00    -0.260 A  
HETATM   21  C   UNL     1      -8.432  14.420  67.651  1.00  0.00    -0.191 A  
HETATM   22  C   UNL     1      -8.260  13.125  68.144  1.00  0.00    -0.160 A  
BRANCH  20  23
HETATM   23  S   UNL     1      -9.701  16.338  66.155  1.00  0.00    -0.346 S  
HETATM   24  O   UNL     1     -10.486  16.284  64.946  1.00  0.00    -0.624 OA 
HETATM   25  O   UNL     1      -8.447  17.052  66.247  1.00  0.00    -0.288 OA 
HETATM   26  N   UNL     1     -10.686  16.942  67.366  1.00  0.00    -0.287 N  
HETATM   27  H1  UNL     1     -10.833  17.897  67.038  1.00  0.00     0.000 HD 
HETATM   28  H2  UNL     1     -11.042  16.482  68.203  1.00  0.00     0.000 HD 
ENDBRANCH  20  23
ENDBRANCH  15  17
ENDBRANCH   5   8
TORSDOF 3
ENDMDL
MODEL       90
REMARK 921   NORMALIZED FREE ENERGY PREDICTED BY IDOCK:   -4.80 KCAL/MOL
REMARK 922        TOTAL FREE ENERGY PREDICTED BY IDOCK:   -6.31 KCAL/MOL
REMARK 923 INTER-LIGAND FREE ENERGY PREDICTED BY IDOCK:   -5.77 KCAL/MOL
REMARK 924 INTRA-LIGAND FREE ENERGY PREDICTED BY IDOCK:   -0.53 KCAL/MOL
REMARK 927      BINDING AFFINITY PREDICTED BY RF-SCORE:    0.00 PKD
ROOT
HETATM    1  C   UNL     1      -5.179   4.566  65.939  1.00  0.00    -0.009 C  
HETATM    2  C   UNL     1      -6.346   5.508  65.919  1.00  0.00    -0.035 A  
HETATM    3  C   UNL     1      -6.880   5.954  64.709  1.00  0.00    -0.047 A  
HETATM    4  C   UNL     1      -7.834   6.976  64.689  1.00  0.00    -0.123 A  
HETATM    5  C   UNL     1      -8.280   7.572  65.877  1.00  0.00    -0.134 A  
HETATM    6  C   UNL     1      -6.860   6.025  67.112  1.00  0.00    -0.063 A  
HETATM    7  C   UNL     1      -7.850   7.013  67.089  1.00  0.00    -0.109 A  
ENDROOT
BRANCH   5   8
HETATM    8  C   UNL     1      -9.138   8.770  65.817  1.00  0.00    -0.212 A  
HETATM    9  C   UNL     1      -9.155   9.749  64.835  1.00  0.00    -0.278 A  
HETATM   10  C   UNL     1     -10.175  10.662  65.182  1.00  0.00    -0.299 A  
HETATM   11  N   UNL     1     -10.818  10.245  66.286  1.00  0.00     0.000 NA 
HETATM   12  C   UNL     1     -10.541  11.924  64.450  1.00  0.00    -0.319 C  
HETATM   13  F   UNL     1      -9.755  12.111  63.350  1.00  0.00    -0.366 F  
HETATM   14  F   UNL     1     -11.826  11.924  64.008  1.00  0.00    -0.425 F  
HETATM   15  N   UNL     1     -10.086   9.197  66.758  1.00  0.00    -0.254 NA 
HETATM   16  F   UNL     1     -10.382  13.032  65.221  1.00  0.00    -0.280 F  
BRANCH  15  17
HETATM   17  C   UNL     1     -10.366   8.723  68.077  1.00  0.00    -0.220 A  
HETATM   18  C   UNL     1     -10.096   9.556  69.176  1.00  0.00    -0.200 A  
HETATM   19  C   UNL     1     -10.463   9.162  70.468  1.00  0.00    -0.289 A  
HETATM   20  C   UNL     1     -11.089   7.928  70.658  1.00  0.00    -0.259 A  
HETATM   21  C   UNL     1     -11.277   7.054  69.586  1.00  0.00    -0.222 A  
HETATM   22  C   UNL     1     -10.899   7.446  68.300  1.00  0.00    -0.081 A  
BRANCH  20  23
HETATM   23  S   UNL     1     -11.634   7.448  72.277  1.00  0.00    -0.286 S  
HETATM   24  O   UNL     1     -10.598   7.790  73.221  1.00  0.00    -0.364 OA 
HETATM   25  O   UNL     1     -12.214   6.126  72.192  1.00  0.00    -0.319 OA 
HETATM   26  N   UNL     1     -12.903   8.514  72.515  1.00  0.00    -0.579 N  
HETATM   27  H1  UNL     1     -13.216   8.237  73.445  1.00  0.00     0.000 HD 
HETATM   28  H2  UNL     1     -13.264   9.240  71.898  1.00  0.00     0.000 HD 
ENDBRANCH  20  23
ENDBRANCH  15  17
ENDBRANCH   5   8
TORSDOF 3
ENDMDL
MODEL       91
REMARK 921   NORMALIZED FREE ENERGY PREDICTED BY IDOCK:   -4.75 KCAL/MOL
REMARK 922        TOTAL FREE ENERGY PREDICTED BY IDOCK:   -6.25 KCAL/MOL
REMARK 923 INTER-LIGAND FREE ENERGY PREDICTED BY IDOCK:   -5.60 KCAL/MOL
REMARK 924 INTRA-LIGAND FREE ENERGY PREDICTED BY IDOCK:   -0.65 KCAL/MOL
REMARK 927      BINDING AFFINITY PREDICTED BY RF-SCORE:    0.00 PKD
ROOT
HETATM    1  C   UNL     1      -5.525   8.458  64.750  1.00  0.00    -0.040 C  
HETATM    2  C   UNL     1      -6.509   9.244  65.564  1.00  0.00    -0.068 A  
HETATM    3  C   UNL     1      -7.815   9.437  65.111  1.00  0.00    -0.110 A  
HETATM    4  C   UNL     1      -8.670  10.327  65.768  1.00  0.00    -0.169 A  
HETATM    5  C   UNL     1      -8.241  11.040  66.897  1.00  0.00    -0.140 A  
HETATM    6  C   UNL     1      -6.108   9.872  66.747  1.00  0.00    -0.060 A  
HETATM    7  C   UNL     1      -6.983  10.723  67.430  1.00  0.00    -0.083 A  
ENDROOT
BRANCH   5   8
HETATM    8  C   UNL     1      -9.092  12.108  67.454  1.00  0.00    -0.181 A  
HETATM    9  C   UNL     1      -9.053  13.461  67.158  1.00  0.00    -0.235 A  
HETATM   10  C   UNL     1     -10.090  14.074  67.895  1.00  0.00    -0.237 A  
HETATM   11  N   UNL     1     -10.795  13.148  68.566  1.00  0.00    -0.255 NA 
HETATM   12  C   UNL     1     -10.412  15.543  67.946  1.00  0.00    -0.266 C  
HETATM   13  F   UNL     1      -9.565  16.268  67.161  1.00  0.00    -0.224 F  
HETATM   14  F   UNL     1     -11.669  15.822  67.514  1.00  0.00    -0.224 F  
HETATM   15  N   UNL     1     -10.092  11.988  68.431  1.00  0.00    -0.208 NA 
HETATM   16  F   UNL     1     -10.295  16.053  69.200  1.00  0.00    -0.198 F  
BRANCH  15  17
HETATM   17  C   UNL     1     -10.447  10.886  69.269  1.00  0.00    -0.202 A  
HETATM   18  C   UNL     1     -11.686  10.904  69.935  1.00  0.00    -0.418 A  
HETATM   19  C   UNL     1     -12.107   9.790  70.670  1.00  0.00    -0.311 A  
HETATM   20  C   UNL     1     -11.282   8.666  70.749  1.00  0.00    -0.261 A  
HETATM   21  C   UNL     1     -10.011   8.675  70.170  1.00  0.00    -0.193 A  
HETATM   22  C   UNL     1      -9.590   9.792  69.445  1.00  0.00    -0.218 A  
BRANCH  20  23
HETATM   23  S   UNL     1     -11.834   7.217  71.610  1.00  0.00    -0.325 S  
HETATM   24  O   UNL     1     -13.270   7.143  71.493  1.00  0.00    -0.383 OA 
HETATM   25  O   UNL     1     -11.145   7.147  72.880  1.00  0.00    -0.292 OA 
HETATM   26  N   UNL     1     -11.188   6.009  70.647  1.00  0.00    -0.303 N  
HETATM   27  H1  UNL     1     -11.506   5.176  71.143  1.00  0.00     0.000 HD 
HETATM   28  H2  UNL     1     -10.630   6.086  69.798  1.00  0.00     0.000 HD 
ENDBRANCH  20  23
ENDBRANCH  15  17
ENDBRANCH   5   8
TORSDOF 3
ENDMDL
MODEL       92
REMARK 921   NORMALIZED FREE ENERGY PREDICTED BY IDOCK:   -4.71 KCAL/MOL
REMARK 922        TOTAL FREE ENERGY PREDICTED BY IDOCK:   -6.20 KCAL/MOL
REMARK 923 INTER-LIGAND FREE ENERGY PREDICTED BY IDOCK:   -6.04 KCAL/MOL
REMARK 924 INTRA-LIGAND FREE ENERGY PREDICTED BY IDOCK:   -0.16 KCAL/MOL
REMARK 927      BINDING AFFINITY PREDICTED BY RF-SCORE:    0.00 PKD
ROOT
HETATM    1  C   UNL     1      -9.612  10.588  62.495  1.00  0.00    -0.241 C  
HETATM    2  C   UNL     1      -9.856  11.358  63.759  1.00  0.00    -0.353 A  
HETATM    3  C   UNL     1      -9.024  11.189  64.867  1.00  0.00    -0.052 A  
HETATM    4  C   UNL     1      -9.363  11.754  66.101  1.00  0.00    -0.236 A  
HETATM    5  C   UNL     1     -10.538  12.504  66.253  1.00  0.00    -0.273 A  
HETATM    6  C   UNL     1     -10.975  12.188  63.878  1.00  0.00    -0.463 A  
HETATM    7  C   UNL     1     -11.283  12.792  65.101  1.00  0.00    -0.327 A  
ENDROOT
BRANCH   5   8
HETATM    8  C   UNL     1     -10.966  12.924  67.601  1.00  0.00    -0.247 A  
HETATM    9  C   UNL     1     -11.366  14.188  68.005  1.00  0.00    -0.324 A  
HETATM   10  C   UNL     1     -11.731  14.089  69.366  1.00  0.00    -0.315 A  
HETATM   11  N   UNL     1     -11.637  12.815  69.782  1.00  0.00    -0.257 NA 
HETATM   12  C   UNL     1     -12.181  15.211  70.261  1.00  0.00    -0.350 C  
HETATM   13  F   UNL     1     -12.214  16.401  69.595  1.00  0.00    -0.110 F  
HETATM   14  F   UNL     1     -13.429  15.017  70.762  1.00  0.00    -0.412 F  
HETATM   15  N   UNL     1     -11.020  12.147  68.767  1.00  0.00    -0.224 NA 
HETATM   16  F   UNL     1     -11.347  15.393  71.319  1.00  0.00    -0.319 F  
BRANCH  15  17
HETATM   17  C   UNL     1     -10.531  10.829  69.031  1.00  0.00    -0.215 A  
HETATM   18  C   UNL     1      -9.184  10.533  68.761  1.00  0.00    -0.177 A  
HETATM   19  C   UNL     1      -8.651   9.287  69.112  1.00  0.00    -0.134 A  
HETATM   20  C   UNL     1      -9.473   8.336  69.722  1.00  0.00    -0.163 A  
HETATM   21  C   UNL     1     -10.834   8.587  69.908  1.00  0.00    -0.205 A  
HETATM   22  C   UNL     1     -11.363   9.827  69.546  1.00  0.00    -0.127 A  
BRANCH  20  23
HETATM   23  S   UNL     1      -8.796   6.782  70.247  1.00  0.00    -0.152 S  
HETATM   24  O   UNL     1      -9.787   5.760  70.021  1.00  0.00    -0.164 OA 
HETATM   25  O   UNL     1      -8.142   6.975  71.522  1.00  0.00    -0.103 OA 
HETATM   26  N   UNL     1      -7.582   6.565  69.114  1.00  0.00    -0.098 N  
HETATM   27  H1  UNL     1      -7.194   5.672  69.416  1.00  0.00     0.000 HD 
HETATM   28  H2  UNL     1      -7.308   7.162  68.335  1.00  0.00     0.000 HD 
ENDBRANCH  20  23
ENDBRANCH  15  17
ENDBRANCH   5   8
TORSDOF 3
ENDMDL
MODEL       93
REMARK 921   NORMALIZED FREE ENERGY PREDICTED BY IDOCK:   -4.71 KCAL/MOL
REMARK 922        TOTAL FREE ENERGY PREDICTED BY IDOCK:   -6.20 KCAL/MOL
REMARK 923 INTER-LIGAND FREE ENERGY PREDICTED BY IDOCK:   -5.16 KCAL/MOL
REMARK 924 INTRA-LIGAND FREE ENERGY PREDICTED BY IDOCK:   -1.04 KCAL/MOL
REMARK 927      BINDING AFFINITY PREDICTED BY RF-SCORE:    0.00 PKD
ROOT
HETATM    1  C   UNL     1      -5.658  11.092  66.873  1.00  0.00    -0.088 C  
HETATM    2  C   UNL     1      -6.676  10.388  67.720  1.00  0.00    -0.070 A  
HETATM    3  C   UNL     1      -7.643   9.568  67.137  1.00  0.00    -0.091 A  
HETATM    4  C   UNL     1      -8.705   9.071  67.899  1.00  0.00    -0.129 A  
HETATM    5  C   UNL     1      -8.821   9.377  69.262  1.00  0.00    -0.150 A  
HETATM    6  C   UNL     1      -6.729  10.614  69.099  1.00  0.00    -0.073 A  
HETATM    7  C   UNL     1      -7.765  10.073  69.868  1.00  0.00    -0.183 A  
ENDROOT
BRANCH   5   8
HETATM    8  C   UNL     1     -10.045   9.001  69.993  1.00  0.00    -0.196 A  
HETATM    9  C   UNL     1     -11.023   9.844  70.497  1.00  0.00    -0.391 A  
HETATM   10  C   UNL     1     -12.021   9.024  71.067  1.00  0.00    -0.269 A  
HETATM   11  N   UNL     1     -11.727   7.728  70.871  1.00  0.00    -0.286 NA 
HETATM   12  C   UNL     1     -13.260   9.482  71.787  1.00  0.00    -0.422 C  
HETATM   13  F   UNL     1     -13.338  10.843  71.832  1.00  0.00    -0.506 F  
HETATM   14  F   UNL     1     -14.404   9.052  71.193  1.00  0.00    -0.410 F  
HETATM   15  N   UNL     1     -10.459   7.715  70.372  1.00  0.00    -0.216 NA 
HETATM   16  F   UNL     1     -13.293   9.058  73.078  1.00  0.00    -0.463 F  
BRANCH  15  17
HETATM   17  C   UNL     1      -9.769   6.464  70.324  1.00  0.00    -0.167 A  
HETATM   18  C   UNL     1     -10.320   5.406  69.580  1.00  0.00    -0.361 A  
HETATM   19  C   UNL     1      -9.613   4.209  69.425  1.00  0.00    -0.265 A  
HETATM   20  C   UNL     1      -8.360   4.068  70.026  1.00  0.00    -0.056 A  
HETATM   21  C   UNL     1      -7.846   5.076  70.843  1.00  0.00    -0.087 A  
HETATM   22  C   UNL     1      -8.561   6.266  71.005  1.00  0.00    -0.132 A  
BRANCH  20  23
HETATM   23  S   UNL     1      -7.414   2.588  69.773  1.00  0.00    -0.043 S  
HETATM   24  O   UNL     1      -8.206   1.676  68.984  1.00  0.00    -0.048 OA 
HETATM   25  O   UNL     1      -6.804   2.214  71.030  1.00  0.00    -0.030 OA 
HETATM   26  N   UNL     1      -6.183   3.161  68.794  1.00  0.00    -0.028 N  
HETATM   27  H1  UNL     1      -5.640   2.310  68.649  1.00  0.00     0.000 HD 
HETATM   28  H2  UNL     1      -6.021   4.103  68.440  1.00  0.00     0.000 HD 
ENDBRANCH  20  23
ENDBRANCH  15  17
ENDBRANCH   5   8
TORSDOF 3
ENDMDL
MODEL       94
REMARK 921   NORMALIZED FREE ENERGY PREDICTED BY IDOCK:   -4.62 KCAL/MOL
REMARK 922        TOTAL FREE ENERGY PREDICTED BY IDOCK:   -6.10 KCAL/MOL
REMARK 923 INTER-LIGAND FREE ENERGY PREDICTED BY IDOCK:   -5.22 KCAL/MOL
REMARK 924 INTRA-LIGAND FREE ENERGY PREDICTED BY IDOCK:   -0.88 KCAL/MOL
REMARK 927      BINDING AFFINITY PREDICTED BY RF-SCORE:    0.00 PKD
ROOT
HETATM    1  C   UNL     1      -7.083  13.295  67.544  1.00  0.00    -0.156 C  
HETATM    2  C   UNL     1      -7.765  12.012  67.916  1.00  0.00    -0.134 A  
HETATM    3  C   UNL     1      -8.951  11.629  67.287  1.00  0.00    -0.169 A  
HETATM    4  C   UNL     1      -9.687  10.540  67.765  1.00  0.00    -0.180 A  
HETATM    5  C   UNL     1      -9.252   9.807  68.878  1.00  0.00    -0.155 A  
HETATM    6  C   UNL     1      -7.273  11.226  68.961  1.00  0.00    -0.119 A  
HETATM    7  C   UNL     1      -7.987  10.107  69.404  1.00  0.00    -0.155 A  
ENDROOT
BRANCH   5   8
HETATM    8  C   UNL     1     -10.138   8.790  69.475  1.00  0.00    -0.202 A  
HETATM    9  C   UNL     1     -10.885   8.897  70.638  1.00  0.00    -0.286 A  
HETATM   10  C   UNL     1     -11.612   7.694  70.771  1.00  0.00    -0.265 A  
HETATM   11  N   UNL     1     -11.394   6.897  69.713  1.00  0.00    -0.263 NA 
HETATM   12  C   UNL     1     -12.525   7.316  71.907  1.00  0.00    -0.303 C  
HETATM   13  F   UNL     1     -12.595   8.304  72.844  1.00  0.00    -0.323 F  
HETATM   14  F   UNL     1     -13.800   7.080  71.501  1.00  0.00    -0.426 F  
HETATM   15  N   UNL     1     -10.381   7.487  69.018  1.00  0.00    -0.209 NA 
HETATM   16  F   UNL     1     -12.099   6.203  72.561  1.00  0.00    -0.312 F  
BRANCH  15  17
HETATM   17  C   UNL     1      -9.740   6.726  67.991  1.00  0.00    -0.124 A  
HETATM   18  C   UNL     1     -10.505   5.831  67.223  1.00  0.00    -0.330 A  
HETATM   19  C   UNL     1      -9.927   5.158  66.141  1.00  0.00    -0.216 A  
HETATM   20  C   UNL     1      -8.581   5.373  65.837  1.00  0.00    -0.131 A  
HETATM   21  C   UNL     1      -7.790   6.188  66.649  1.00  0.00    -0.104 A  
HETATM   22  C   UNL     1      -8.368   6.849  67.735  1.00  0.00    -0.120 A  
BRANCH  20  23
HETATM   23  S   UNL     1      -7.854   4.590  64.420  1.00  0.00    -0.089 S  
HETATM   24  O   UNL     1      -7.802   3.170  64.667  1.00  0.00    -0.077 OA 
HETATM   25  O   UNL     1      -6.699   5.360  64.014  1.00  0.00    -0.043 OA 
HETATM   26  N   UNL     1      -9.037   4.857  63.267  1.00  0.00    -0.326 N  
HETATM   27  H1  UNL     1      -8.619   4.407  62.453  1.00  0.00     0.000 HD 
HETATM   28  H2  UNL     1      -9.932   5.337  63.354  1.00  0.00     0.000 HD 
ENDBRANCH  20  23
ENDBRANCH  15  17
ENDBRANCH   5   8
TORSDOF 3
ENDMDL
MODEL       95
REMARK 921   NORMALIZED FREE ENERGY PREDICTED BY IDOCK:   -4.60 KCAL/MOL
REMARK 922        TOTAL FREE ENERGY PREDICTED BY IDOCK:   -6.07 KCAL/MOL
REMARK 923 INTER-LIGAND FREE ENERGY PREDICTED BY IDOCK:   -5.01 KCAL/MOL
REMARK 924 INTRA-LIGAND FREE ENERGY PREDICTED BY IDOCK:   -1.07 KCAL/MOL
REMARK 927      BINDING AFFINITY PREDICTED BY RF-SCORE:    0.00 PKD
ROOT
HETATM    1  C   UNL     1     -10.328   7.340  73.556  1.00  0.00    -0.412 C  
HETATM    2  C   UNL     1     -10.194   8.050  72.242  1.00  0.00    -0.325 A  
HETATM    3  C   UNL     1     -11.322   8.524  71.569  1.00  0.00    -0.348 A  
HETATM    4  C   UNL     1     -11.216   9.008  70.262  1.00  0.00    -0.232 A  
HETATM    5  C   UNL     1      -9.981   9.035  69.599  1.00  0.00    -0.196 A  
HETATM    6  C   UNL     1      -8.944   8.168  71.626  1.00  0.00    -0.212 A  
HETATM    7  C   UNL     1      -8.836   8.700  70.336  1.00  0.00    -0.170 A  
ENDROOT
BRANCH   5   8
HETATM    8  C   UNL     1      -9.930   9.369  68.163  1.00  0.00    -0.175 A  
HETATM    9  C   UNL     1     -10.376  10.529  67.549  1.00  0.00    -0.265 A  
HETATM   10  C   UNL     1     -10.066  10.413  66.176  1.00  0.00    -0.237 A  
HETATM   11  N   UNL     1      -9.396   9.272  65.945  1.00  0.00    -0.217 NA 
HETATM   12  C   UNL     1     -10.402  11.399  65.091  1.00  0.00    -0.290 C  
HETATM   13  F   UNL     1     -11.064  12.484  65.587  1.00  0.00    -0.301 F  
HETATM   14  F   UNL     1      -9.301  11.879  64.456  1.00  0.00    -0.128 F  
HETATM   15  N   UNL     1      -9.460   8.570  67.110  1.00  0.00    -0.153 NA 
HETATM   16  F   UNL     1     -11.213  10.864  64.140  1.00  0.00    -0.351 F  
BRANCH  15  17
HETATM   17  C   UNL     1      -9.076   7.194  67.088  1.00  0.00    -0.129 A  
HETATM   18  C   UNL     1      -7.740   6.861  66.803  1.00  0.00    -0.102 A  
HETATM   19  C   UNL     1      -7.311   5.531  66.884  1.00  0.00    -0.079 A  
HETATM   20  C   UNL     1      -8.224   4.535  67.236  1.00  0.00    -0.101 A  
HETATM   21  C   UNL     1      -9.572   4.842  67.429  1.00  0.00    -0.175 A  
HETATM   22  C   UNL     1      -9.998   6.169  67.337  1.00  0.00    -0.166 A  
BRANCH  20  23
HETATM   23  S   UNL     1      -7.681   2.856  67.422  1.00  0.00    -0.069 S  
HETATM   24  O   UNL     1      -8.555   2.201  68.363  1.00  0.00    -0.065 OA 
HETATM   25  O   UNL     1      -6.240   2.852  67.552  1.00  0.00    -0.030 OA 
HETATM   26  N   UNL     1      -8.026   2.241  65.903  1.00  0.00    -0.081 N  
HETATM   27  H1  UNL     1      -7.713   1.276  66.010  1.00  0.00     0.000 HD 
HETATM   28  H2  UNL     1      -8.436   2.705  65.094  1.00  0.00     0.000 HD 
ENDBRANCH  20  23
ENDBRANCH  15  17
ENDBRANCH   5   8
TORSDOF 3
ENDMDL
MODEL       96
REMARK 921   NORMALIZED FREE ENERGY PREDICTED BY IDOCK:   -4.57 KCAL/MOL
REMARK 922        TOTAL FREE ENERGY PREDICTED BY IDOCK:   -6.04 KCAL/MOL
REMARK 923 INTER-LIGAND FREE ENERGY PREDICTED BY IDOCK:   -5.21 KCAL/MOL
REMARK 924 INTRA-LIGAND FREE ENERGY PREDICTED BY IDOCK:   -0.82 KCAL/MOL
REMARK 927      BINDING AFFINITY PREDICTED BY RF-SCORE:    0.00 PKD
ROOT
HETATM    1  C   UNL     1     -10.549   3.799  64.195  1.00  0.00    -0.263 C  
HETATM    2  C   UNL     1     -10.255   4.269  65.588  1.00  0.00    -0.217 A  
HETATM    3  C   UNL     1      -9.407   3.538  66.422  1.00  0.00    -0.184 A  
HETATM    4  C   UNL     1      -9.287   3.868  67.776  1.00  0.00    -0.230 A  
HETATM    5  C   UNL     1     -10.006   4.939  68.325  1.00  0.00    -0.177 A  
HETATM    6  C   UNL     1     -10.895   5.400  66.104  1.00  0.00    -0.095 A  
HETATM    7  C   UNL     1     -10.733   5.756  67.447  1.00  0.00    -0.332 A  
ENDROOT
BRANCH   5   8
HETATM    8  C   UNL     1     -10.008   5.145  69.785  1.00  0.00    -0.243 A  
HETATM    9  C   UNL     1     -10.144   4.183  70.774  1.00  0.00    -0.091 A  
HETATM   10  C   UNL     1     -10.031   4.850  72.014  1.00  0.00    -0.187 A  
HETATM   11  N   UNL     1      -9.767   6.152  71.821  1.00  0.00    -0.154 NA 
HETATM   12  C   UNL     1     -10.165   4.236  73.381  1.00  0.00    -0.159 C  
HETATM   13  F   UNL     1     -10.410   2.896  73.307  1.00  0.00    -0.169 F  
HETATM   14  F   UNL     1      -9.044   4.379  74.136  1.00  0.00    -0.106 F  
HETATM   15  N   UNL     1      -9.917   6.358  70.483  1.00  0.00    -0.183 NA 
HETATM   16  F   UNL     1     -11.196   4.771  74.088  1.00  0.00    -0.323 F  
BRANCH  15  17
HETATM   17  C   UNL     1      -9.973   7.707  70.013  1.00  0.00    -0.190 A  
HETATM   18  C   UNL     1      -8.903   8.212  69.252  1.00  0.00    -0.144 A  
HETATM   19  C   UNL     1      -8.981   9.489  68.687  1.00  0.00    -0.132 A  
HETATM   20  C   UNL     1     -10.123  10.265  68.895  1.00  0.00    -0.204 A  
HETATM   21  C   UNL     1     -11.150   9.811  69.725  1.00  0.00    -0.272 A  
HETATM   22  C   UNL     1     -11.064   8.539  70.297  1.00  0.00    -0.222 A  
BRANCH  20  23
HETATM   23  S   UNL     1     -10.273  11.854  68.119  1.00  0.00    -0.204 S  
HETATM   24  O   UNL     1     -10.847  11.664  66.810  1.00  0.00    -0.251 OA 
HETATM   25  O   UNL     1      -9.047  12.589  68.341  1.00  0.00    -0.194 OA 
HETATM   26  N   UNL     1     -11.441  12.569  69.082  1.00  0.00    -0.288 N  
HETATM   27  H1  UNL     1     -11.526  13.482  68.636  1.00  0.00     0.000 HD 
HETATM   28  H2  UNL     1     -11.932  12.194  69.892  1.00  0.00     0.000 HD 
ENDBRANCH  20  23
ENDBRANCH  15  17
ENDBRANCH   5   8
TORSDOF 3
ENDMDL
MODEL       97
REMARK 921   NORMALIZED FREE ENERGY PREDICTED BY IDOCK:   -4.55 KCAL/MOL
REMARK 922        TOTAL FREE ENERGY PREDICTED BY IDOCK:   -6.01 KCAL/MOL
REMARK 923 INTER-LIGAND FREE ENERGY PREDICTED BY IDOCK:   -5.07 KCAL/MOL
REMARK 924 INTRA-LIGAND FREE ENERGY PREDICTED BY IDOCK:   -0.95 KCAL/MOL
REMARK 927      BINDING AFFINITY PREDICTED BY RF-SCORE:    0.00 PKD
ROOT
HETATM    1  C   UNL     1     -12.878  11.857  63.656  1.00  0.00    -0.429 C  
HETATM    2  C   UNL     1     -11.973  12.619  64.577  1.00  0.00    -0.464 A  
HETATM    3  C   UNL     1     -11.362  13.802  64.157  1.00  0.00    -0.277 A  
HETATM    4  C   UNL     1     -10.372  14.405  64.939  1.00  0.00    -0.419 A  
HETATM    5  C   UNL     1      -9.975  13.843  66.161  1.00  0.00    -0.322 A  
HETATM    6  C   UNL     1     -11.656  12.110  65.840  1.00  0.00    -0.425 A  
HETATM    7  C   UNL     1     -10.701  12.744  66.642  1.00  0.00    -0.279 A  
ENDROOT
BRANCH   5   8
HETATM    8  C   UNL     1      -8.803  14.391  66.870  1.00  0.00    -0.223 A  
HETATM    9  C   UNL     1      -8.410  15.717  66.954  1.00  0.00    -0.283 A  
HETATM   10  C   UNL     1      -7.264  15.755  67.779  1.00  0.00    -0.153 A  
HETATM   11  N   UNL     1      -6.989  14.528  68.251  1.00  0.00    -0.100 NA 
HETATM   12  C   UNL     1      -6.443  16.968  68.124  1.00  0.00    -0.146 C  
HETATM   13  F   UNL     1      -6.942  18.094  67.539  1.00  0.00    -0.187 F  
HETATM   14  F   UNL     1      -6.403  17.215  69.459  1.00  0.00    -0.202 F  
HETATM   15  N   UNL     1      -7.816  13.684  67.572  1.00  0.00    -0.170 NA 
HETATM   16  F   UNL     1      -5.157  16.858  67.697  1.00  0.00    -0.098 F  
BRANCH  15  17
HETATM   17  C   UNL     1      -7.560  12.280  67.658  1.00  0.00    -0.144 A  
HETATM   18  C   UNL     1      -7.995  11.573  68.793  1.00  0.00    -0.107 A  
HETATM   19  C   UNL     1      -7.857  10.182  68.853  1.00  0.00    -0.100 A  
HETATM   20  C   UNL     1      -7.273   9.502  67.782  1.00  0.00    -0.082 A  
HETATM   21  C   UNL     1      -6.753  10.204  66.692  1.00  0.00    -0.079 A  
HETATM   22  C   UNL     1      -6.883  11.594  66.641  1.00  0.00    -0.032 A  
BRANCH  20  23
HETATM   23  S   UNL     1      -7.163   7.732  67.806  1.00  0.00    -0.096 S  
HETATM   24  O   UNL     1      -5.768   7.367  67.853  1.00  0.00    -0.028 OA 
HETATM   25  O   UNL     1      -8.081   7.202  66.822  1.00  0.00    -0.109 OA 
HETATM   26  N   UNL     1      -7.822   7.392  69.307  1.00  0.00    -0.113 N  
HETATM   27  H1  UNL     1      -7.759   6.375  69.321  1.00  0.00     0.000 HD 
HETATM   28  H2  UNL     1      -8.187   8.030  70.014  1.00  0.00     0.000 HD 
ENDBRANCH  20  23
ENDBRANCH  15  17
ENDBRANCH   5   8
TORSDOF 3
ENDMDL
MODEL       98
REMARK 921   NORMALIZED FREE ENERGY PREDICTED BY IDOCK:   -4.53 KCAL/MOL
REMARK 922        TOTAL FREE ENERGY PREDICTED BY IDOCK:   -5.99 KCAL/MOL
REMARK 923 INTER-LIGAND FREE ENERGY PREDICTED BY IDOCK:   -4.98 KCAL/MOL
REMARK 924 INTRA-LIGAND FREE ENERGY PREDICTED BY IDOCK:   -1.01 KCAL/MOL
REMARK 927      BINDING AFFINITY PREDICTED BY RF-SCORE:    0.00 PKD
ROOT
HETATM    1  C   UNL     1      -5.856   5.163  65.002  1.00  0.00    -0.017 C  
HETATM    2  C   UNL     1      -6.894   6.079  65.578  1.00  0.00    -0.052 A  
HETATM    3  C   UNL     1      -8.124   6.252  64.942  1.00  0.00    -0.130 A  
HETATM    4  C   UNL     1      -9.010   7.246  65.368  1.00  0.00     0.164 A  
HETATM    5  C   UNL     1      -8.689   8.086  66.444  1.00  0.00    -0.169 A  
HETATM    6  C   UNL     1      -6.611   6.843  66.714  1.00  0.00    -0.048 A  
HETATM    7  C   UNL     1      -7.522   7.803  67.169  1.00  0.00    -0.096 A  
ENDROOT
BRANCH   5   8
HETATM    8  C   UNL     1      -9.551   9.243  66.749  1.00  0.00    -0.183 A  
HETATM    9  C   UNL     1      -9.831  10.328  65.933  1.00  0.00    -0.298 A  
HETATM   10  C   UNL     1     -10.743  11.147  66.635  1.00  0.00    -0.269 A  
HETATM   11  N   UNL     1     -11.078  10.576  67.803  1.00  0.00    -0.309 NA 
HETATM   12  C   UNL     1     -11.300  12.468  66.179  1.00  0.00    -0.343 C  
HETATM   13  F   UNL     1     -10.822  12.817  64.951  1.00  0.00    -0.286 F  
HETATM   14  F   UNL     1     -12.655  12.461  66.077  1.00  0.00    -0.320 F  
HETATM   15  N   UNL     1     -10.235   9.514  67.944  1.00  0.00    -0.192 NA 
HETATM   16  F   UNL     1     -10.966  13.485  67.018  1.00  0.00    -0.275 F  
BRANCH  15  17
HETATM   17  C   UNL     1     -10.165   8.877  69.221  1.00  0.00    -0.209 A  
HETATM   18  C   UNL     1     -10.769   7.619  69.393  1.00  0.00    -0.188 A  
HETATM   19  C   UNL     1     -10.620   6.923  70.598  1.00  0.00    -0.248 A  
HETATM   20  C   UNL     1      -9.878   7.494  71.634  1.00  0.00    -0.161 A  
HETATM   21  C   UNL     1      -9.353   8.783  71.507  1.00  0.00    -0.337 A  
HETATM   22  C   UNL     1      -9.514   9.478  70.306  1.00  0.00    -0.307 A  
BRANCH  20  23
HETATM   23  S   UNL     1      -9.611   6.593  73.139  1.00  0.00    -0.159 S  
HETATM   24  O   UNL     1     -10.710   6.871  74.031  1.00  0.00    -0.277 OA 
HETATM   25  O   UNL     1      -8.226   6.747  73.526  1.00  0.00    -0.111 OA 
HETATM   26  N   UNL     1      -9.786   5.017  72.601  1.00  0.00    -0.155 N  
HETATM   27  H1  UNL     1      -9.633   4.500  73.466  1.00  0.00     0.000 HD 
HETATM   28  H2  UNL     1      -9.990   4.671  71.664  1.00  0.00     0.000 HD 
ENDBRANCH  20  23
ENDBRANCH  15  17
ENDBRANCH   5   8
TORSDOF 3
ENDMDL
MODEL       99
REMARK 921   NORMALIZED FREE ENERGY PREDICTED BY IDOCK:   -4.53 KCAL/MOL
REMARK 922        TOTAL FREE ENERGY PREDICTED BY IDOCK:   -5.99 KCAL/MOL
REMARK 923 INTER-LIGAND FREE ENERGY PREDICTED BY IDOCK:   -4.91 KCAL/MOL
REMARK 924 INTRA-LIGAND FREE ENERGY PREDICTED BY IDOCK:   -1.08 KCAL/MOL
REMARK 927      BINDING AFFINITY PREDICTED BY RF-SCORE:    0.00 PKD
ROOT
HETATM    1  C   UNL     1      -8.642   3.422  62.914  1.00  0.00    -0.085 C  
HETATM    2  C   UNL     1      -8.952   3.599  64.370  1.00  0.00    -0.121 A  
HETATM    3  C   UNL     1     -10.099   4.283  64.777  1.00  0.00    -0.159 A  
HETATM    4  C   UNL     1     -10.287   4.616  66.121  1.00  0.00    -0.310 A  
HETATM    5  C   UNL     1      -9.336   4.269  67.091  1.00  0.00    -0.187 A  
HETATM    6  C   UNL     1      -8.050   3.160  65.344  1.00  0.00    -0.086 A  
HETATM    7  C   UNL     1      -8.267   3.452  66.695  1.00  0.00    -0.096 A  
ENDROOT
BRANCH   5   8
HETATM    8  C   UNL     1      -9.465   4.796  68.463  1.00  0.00    -0.145 A  
HETATM    9  C   UNL     1      -9.737   4.084  69.620  1.00  0.00    -0.245 A  
HETATM   10  C   UNL     1      -9.710   5.008  70.688  1.00  0.00    -0.198 A  
HETATM   11  N   UNL     1      -9.369   6.227  70.240  1.00  0.00    -0.160 NA 
HETATM   12  C   UNL     1     -10.000   4.718  72.136  1.00  0.00    -0.179 C  
HETATM   13  F   UNL     1     -10.298   3.402  72.334  1.00  0.00    -0.225 F  
HETATM   14  F   UNL     1      -8.949   5.000  72.950  1.00  0.00    -0.116 F  
HETATM   15  N   UNL     1      -9.384   6.132  68.881  1.00  0.00    -0.124 NA 
HETATM   16  F   UNL     1     -11.066   5.422  72.599  1.00  0.00    -0.264 F  
BRANCH  15  17
HETATM   17  C   UNL     1      -9.333   7.343  68.123  1.00  0.00    -0.135 A  
HETATM   18  C   UNL     1      -8.121   7.722  67.519  1.00  0.00    -0.124 A  
HETATM   19  C   UNL     1      -8.071   8.841  66.681  1.00  0.00    -0.103 A  
HETATM   20  C   UNL     1      -9.230   9.587  66.459  1.00  0.00    -0.160 A  
HETATM   21  C   UNL     1     -10.416   9.274  67.127  1.00  0.00    -0.319 A  
HETATM   22  C   UNL     1     -10.459   8.162  67.972  1.00  0.00    -0.242 A  
BRANCH  20  23
HETATM   23  S   UNL     1      -9.203  10.961  65.336  1.00  0.00    -0.210 S  
HETATM   24  O   UNL     1      -9.185  12.176  66.113  1.00  0.00    -0.220 OA 
HETATM   25  O   UNL     1     -10.165  10.713  64.286  1.00  0.00    -0.351 OA 
HETATM   26  N   UNL     1      -7.687  10.781  64.650  1.00  0.00    -0.348 N  
HETATM   27  H1  UNL     1      -7.672  11.570  64.005  1.00  0.00     0.000 HD 
HETATM   28  H2  UNL     1      -6.974  10.074  64.828  1.00  0.00     0.000 HD 
ENDBRANCH  20  23
ENDBRANCH  15  17
ENDBRANCH   5   8
TORSDOF 3
ENDMDL
MODEL      100
REMARK 921   NORMALIZED FREE ENERGY PREDICTED BY IDOCK:   -4.35 KCAL/MOL
REMARK 922        TOTAL FREE ENERGY PREDICTED BY IDOCK:   -5.78 KCAL/MOL
REMARK 923 INTER-LIGAND FREE ENERGY PREDICTED BY IDOCK:   -5.06 KCAL/MOL
REMARK 924 INTRA-LIGAND FREE ENERGY PREDICTED BY IDOCK:   -0.72 KCAL/MOL
REMARK 927      BINDING AFFINITY PREDICTED BY RF-SCORE:    0.00 PKD
ROOT
HETATM    1  C   UNL     1     -12.701  12.587  70.288  1.00  0.00     0.115 C  
HETATM    2  C   UNL     1     -11.714  11.666  69.634  1.00  0.00    -0.418 A  
HETATM    3  C   UNL     1     -11.395  11.808  68.283  1.00  0.00    -0.343 A  
HETATM    4  C   UNL     1     -10.630  10.837  67.629  1.00  0.00    -0.271 A  
HETATM    5  C   UNL     1     -10.161   9.706  68.313  1.00  0.00    -0.216 A  
HETATM    6  C   UNL     1     -11.165  10.595  70.346  1.00  0.00    -0.334 A  
HETATM    7  C   UNL     1     -10.358   9.653  69.700  1.00  0.00    -0.245 A  
ENDROOT
BRANCH   5   8
HETATM    8  C   UNL     1      -9.523   8.610  67.560  1.00  0.00    -0.149 A  
HETATM    9  C   UNL     1      -9.184   8.593  66.216  1.00  0.00    -0.257 A  
HETATM   10  C   UNL     1      -8.552   7.355  65.967  1.00  0.00    -0.151 A  
HETATM   11  N   UNL     1      -8.433   6.655  67.107  1.00  0.00    -0.113 NA 
HETATM   12  C   UNL     1      -8.054   6.850  64.640  1.00  0.00    -0.082 C  
HETATM   13  F   UNL     1      -8.273   7.756  63.644  1.00  0.00    -0.142 F  
HETATM   14  F   UNL     1      -6.719   6.597  64.640  1.00  0.00    -0.038 F  
HETATM   15  N   UNL     1      -9.164   7.338  68.031  1.00  0.00    -0.132 NA 
HETATM   16  F   UNL     1      -8.679   5.706  64.255  1.00  0.00    -0.123 F  
BRANCH  15  17
HETATM   17  C   UNL     1      -9.454   6.690  69.271  1.00  0.00    -0.141 A  
HETATM   18  C   UNL     1      -8.450   6.606  70.251  1.00  0.00    -0.135 A  
HETATM   19  C   UNL     1      -8.738   6.077  71.514  1.00  0.00    -0.132 A  
HETATM   20  C   UNL     1     -10.029   5.620  71.789  1.00  0.00    -0.176 A  
HETATM   21  C   UNL     1     -11.008   5.613  70.793  1.00  0.00    -0.257 A  
HETATM   22  C   UNL     1     -10.712   6.132  69.531  1.00  0.00    -0.386 A  
BRANCH  20  23
HETATM   23  S   UNL     1     -10.434   5.020  73.409  1.00  0.00    -0.249 S  
HETATM   24  O   UNL     1      -9.247   4.436  73.983  1.00  0.00    -0.109 OA 
HETATM   25  O   UNL     1     -11.698   4.321  73.336  1.00  0.00    -0.214 OA 
HETATM   26  N   UNL     1     -10.727   6.457  74.216  1.00  0.00    -0.364 N  
HETATM   27  H1  UNL     1     -10.960   6.112  75.147  1.00  0.00     0.000 HD 
HETATM   28  H2  UNL     1     -10.685   7.416  73.871  1.00  0.00     0.000 HD 
ENDBRANCH  20  23
ENDBRANCH  15  17
ENDBRANCH   5   8
TORSDOF 3
ENDMDL
MODEL      101
REMARK 921   NORMALIZED FREE ENERGY PREDICTED BY IDOCK:   -4.30 KCAL/MOL
REMARK 922        TOTAL FREE ENERGY PREDICTED BY IDOCK:   -5.72 KCAL/MOL
REMARK 923 INTER-LIGAND FREE ENERGY PREDICTED BY IDOCK:   -5.06 KCAL/MOL
REMARK 924 INTRA-LIGAND FREE ENERGY PREDICTED BY IDOCK:   -0.66 KCAL/MOL
REMARK 927      BINDING AFFINITY PREDICTED BY RF-SCORE:    0.00 PKD
ROOT
HETATM    1  C   UNL     1      -9.541   3.734  70.562  1.00  0.00    -0.262 C  
HETATM    2  C   UNL     1      -9.905   5.185  70.463  1.00  0.00    -0.285 A  
HETATM    3  C   UNL     1     -11.028   5.590  69.739  1.00  0.00    -0.175 A  
HETATM    4  C   UNL     1     -11.256   6.946  69.484  1.00  0.00    -0.246 A  
HETATM    5  C   UNL     1     -10.371   7.928  69.952  1.00  0.00    -0.224 A  
HETATM    6  C   UNL     1      -9.075   6.163  71.018  1.00  0.00    -0.151 A  
HETATM    7  C   UNL     1      -9.335   7.521  70.803  1.00  0.00    -0.162 A  
ENDROOT
BRANCH   5   8
HETATM    8  C   UNL     1     -10.531   9.325  69.509  1.00  0.00    -0.220 A  
HETATM    9  C   UNL     1     -11.227  10.340  70.147  1.00  0.00    -0.387 A  
HETATM   10  C   UNL     1     -11.052  11.509  69.374  1.00  0.00    -0.226 A  
HETATM   11  N   UNL     1     -10.230  11.264  68.340  1.00  0.00    -0.188 NA 
HETATM   12  C   UNL     1     -11.662  12.859  69.633  1.00  0.00    -0.299 C  
HETATM   13  F   UNL     1     -12.437  12.852  70.756  1.00  0.00    -0.401 F  
HETATM   14  F   UNL     1     -10.731  13.832  69.817  1.00  0.00    -0.099 F  
HETATM   15  N   UNL     1     -10.051   9.914  68.329  1.00  0.00    -0.155 NA 
HETATM   16  F   UNL     1     -12.470  13.264  68.618  1.00  0.00    -0.269 F  
BRANCH  15  17
HETATM   17  C   UNL     1      -9.448   9.325  67.175  1.00  0.00    -0.149 A  
HETATM   18  C   UNL     1      -9.313  10.095  66.006  1.00  0.00    -0.216 A  
HETATM   19  C   UNL     1      -8.627   9.582  64.899  1.00  0.00    -0.191 A  
HETATM   20  C   UNL     1      -8.089   8.295  64.960  1.00  0.00    -0.148 A  
HETATM   21  C   UNL     1      -8.299   7.488  66.081  1.00  0.00    -0.138 A  
HETATM   22  C   UNL     1      -8.993   8.000  67.179  1.00  0.00    -0.150 A  
BRANCH  20  23
HETATM   23  S   UNL     1      -7.148   7.659  63.597  1.00  0.00    -0.075 S  
HETATM   24  O   UNL     1      -5.803   8.171  63.700  1.00  0.00    -0.064 OA 
HETATM   25  O   UNL     1      -7.944   7.777  62.395  1.00  0.00    -0.128 OA 
HETATM   26  N   UNL     1      -7.095   6.030  63.979  1.00  0.00    -0.050 N  
HETATM   27  H1  UNL     1      -6.554   5.665  63.195  1.00  0.00     0.000 HD 
HETATM   28  H2  UNL     1      -7.495   5.538  64.777  1.00  0.00     0.000 HD 
ENDBRANCH  20  23
ENDBRANCH  15  17
ENDBRANCH   5   8
TORSDOF 3
ENDMDL
MODEL      102
REMARK 921   NORMALIZED FREE ENERGY PREDICTED BY IDOCK:   -4.13 KCAL/MOL
REMARK 922        TOTAL FREE ENERGY PREDICTED BY IDOCK:   -5.52 KCAL/MOL
REMARK 923 INTER-LIGAND FREE ENERGY PREDICTED BY IDOCK:   -4.50 KCAL/MOL
REMARK 924 INTRA-LIGAND FREE ENERGY PREDICTED BY IDOCK:   -1.02 KCAL/MOL
REMARK 927      BINDING AFFINITY PREDICTED BY RF-SCORE:    0.00 PKD
ROOT
HETATM    1  C   UNL     1      -5.130  14.346  71.168  1.00  0.00    -0.130 C  
HETATM    2  C   UNL     1      -6.015  13.444  70.361  1.00  0.00    -0.132 A  
HETATM    3  C   UNL     1      -5.803  12.065  70.347  1.00  0.00    -0.157 A  
HETATM    4  C   UNL     1      -6.499  11.249  69.449  1.00  0.00    -0.105 A  
HETATM    5  C   UNL     1      -7.426  11.793  68.549  1.00  0.00    -0.110 A  
HETATM    6  C   UNL     1      -7.011  13.980  69.539  1.00  0.00    -0.007 A  
HETATM    7  C   UNL     1      -7.741  13.153  68.677  1.00  0.00    -0.073 A  
ENDROOT
BRANCH   5   8
HETATM    8  C   UNL     1      -8.001  10.943  67.490  1.00  0.00    -0.115 A  
HETATM    9  C   UNL     1      -7.695  10.952  66.138  1.00  0.00    -0.133 A  
HETATM   10  C   UNL     1      -8.459   9.929  65.536  1.00  0.00    -0.140 A  
HETATM   11  N   UNL     1      -9.157   9.259  66.467  1.00  0.00    -0.147 NA 
HETATM   12  C   UNL     1      -8.509   9.587  64.071  1.00  0.00    -0.185 C  
HETATM   13  F   UNL     1      -7.693  10.399  63.339  1.00  0.00    -0.151 F  
HETATM   14  F   UNL     1      -8.113   8.313  63.814  1.00  0.00    -0.140 F  
HETATM   15  N   UNL     1      -9.008   9.974  67.617  1.00  0.00    -0.131 NA 
HETATM   16  F   UNL     1      -9.756   9.733  63.550  1.00  0.00    -0.285 F  
BRANCH  15  17
HETATM   17  C   UNL     1      -9.864   9.661  68.718  1.00  0.00    -0.165 A  
HETATM   18  C   UNL     1     -10.772  10.631  69.177  1.00  0.00    -0.264 A  
HETATM   19  C   UNL     1     -11.697  10.314  70.178  1.00  0.00    -0.364 A  
HETATM   20  C   UNL     1     -11.702   9.030  70.727  1.00  0.00    -0.242 A  
HETATM   21  C   UNL     1     -10.744   8.089  70.345  1.00  0.00    -0.233 A  
HETATM   22  C   UNL     1      -9.815   8.413  69.353  1.00  0.00    -0.185 A  
BRANCH  20  23
HETATM   23  S   UNL     1     -12.919   8.587  71.940  1.00  0.00    -0.379 S  
HETATM   24  O   UNL     1     -13.455   7.294  71.589  1.00  0.00    -0.375 OA 
HETATM   25  O   UNL     1     -13.753   9.740  72.196  1.00  0.00    -0.385 OA 
HETATM   26  N   UNL     1     -11.958   8.380  73.295  1.00  0.00     0.236 N  
HETATM   27  H1  UNL     1     -12.658   8.126  73.992  1.00  0.00     0.000 HD 
HETATM   28  H2  UNL     1     -10.948   8.482  73.396  1.00  0.00     0.000 HD 
ENDBRANCH  20  23
ENDBRANCH  15  17
ENDBRANCH   5   8
TORSDOF 3
ENDMDL
MODEL      103
REMARK 921   NORMALIZED FREE ENERGY PREDICTED BY IDOCK:   -4.04 KCAL/MOL
REMARK 922        TOTAL FREE ENERGY PREDICTED BY IDOCK:   -5.41 KCAL/MOL
REMARK 923 INTER-LIGAND FREE ENERGY PREDICTED BY IDOCK:   -4.51 KCAL/MOL
REMARK 924 INTRA-LIGAND FREE ENERGY PREDICTED BY IDOCK:   -0.90 KCAL/MOL
REMARK 927      BINDING AFFINITY PREDICTED BY RF-SCORE:    0.00 PKD
ROOT
HETATM    1  C   UNL     1      -5.856   7.345  66.065  1.00  0.00    -0.037 C  
HETATM    2  C   UNL     1      -6.840   7.445  67.193  1.00  0.00    -0.074 A  
HETATM    3  C   UNL     1      -7.906   6.550  67.289  1.00  0.00    -0.105 A  
HETATM    4  C   UNL     1      -8.927   6.761  68.221  1.00  0.00    -0.123 A  
HETATM    5  C   UNL     1      -8.902   7.867  69.082  1.00  0.00    -0.142 A  
HETATM    6  C   UNL     1      -6.755   8.493  68.115  1.00  0.00    -0.065 A  
HETATM    7  C   UNL     1      -7.753   8.671  69.079  1.00  0.00    -0.095 A  
ENDROOT
BRANCH   5   8
HETATM    8  C   UNL     1     -10.079   8.168  69.918  1.00  0.00    -0.195 A  
HETATM    9  C   UNL     1     -10.908   9.277  69.844  1.00  0.00    -0.252 A  
HETATM   10  C   UNL     1     -11.923   9.097  70.808  1.00  0.00    -0.191 A  
HETATM   11  N   UNL     1     -11.787   7.904  71.412  1.00  0.00    -0.292 NA 
HETATM   12  C   UNL     1     -13.029  10.061  71.141  1.00  0.00    -0.387 C  
HETATM   13  F   UNL     1     -12.961  11.186  70.374  1.00  0.00    -0.303 F  
HETATM   14  F   UNL     1     -14.266   9.534  70.941  1.00  0.00    -0.302 F  
HETATM   15  N   UNL     1     -10.584   7.421  70.993  1.00  0.00    -0.223 NA 
HETATM   16  F   UNL     1     -12.976  10.480  72.433  1.00  0.00    -0.489 F  
BRANCH  15  17
HETATM   17  C   UNL     1     -10.036   6.295  71.681  1.00  0.00    -0.188 A  
HETATM   18  C   UNL     1     -10.895   5.261  72.094  1.00  0.00    -0.252 A  
HETATM   19  C   UNL     1     -10.373   4.097  72.670  1.00  0.00    -0.233 A  
HETATM   20  C   UNL     1      -8.992   3.976  72.843  1.00  0.00    -0.104 A  
HETATM   21  C   UNL     1      -8.139   5.035  72.523  1.00  0.00    -0.109 A  
HETATM   22  C   UNL     1      -8.666   6.199  71.959  1.00  0.00    -0.135 A  
BRANCH  20  23
HETATM   23  S   UNL     1      -8.306   2.476  73.497  1.00  0.00    -0.064 S  
HETATM   24  O   UNL     1      -7.618   1.792  72.429  1.00  0.00    -0.041 OA 
HETATM   25  O   UNL     1      -9.306   1.838  74.324  1.00  0.00    -0.066 OA 
HETATM   26  N   UNL     1      -7.142   3.085  74.535  1.00  0.00    -0.044 N  
HETATM   27  H1  UNL     1      -6.748   2.222  74.911  1.00  0.00     0.000 HD 
HETATM   28  H2  UNL     1      -6.895   4.053  74.737  1.00  0.00     0.000 HD 
ENDBRANCH  20  23
ENDBRANCH  15  17
ENDBRANCH   5   8
TORSDOF 3
ENDMDL
MODEL      104
REMARK 921   NORMALIZED FREE ENERGY PREDICTED BY IDOCK:   -3.76 KCAL/MOL
REMARK 922        TOTAL FREE ENERGY PREDICTED BY IDOCK:   -5.09 KCAL/MOL
REMARK 923 INTER-LIGAND FREE ENERGY PREDICTED BY IDOCK:   -4.02 KCAL/MOL
REMARK 924 INTRA-LIGAND FREE ENERGY PREDICTED BY IDOCK:   -1.07 KCAL/MOL
REMARK 927      BINDING AFFINITY PREDICTED BY RF-SCORE:    0.00 PKD
ROOT
HETATM    1  C   UNL     1      -7.957   5.630  72.580  1.00  0.00    -0.103 C  
HETATM    2  C   UNL     1      -8.199   5.108  71.195  1.00  0.00    -0.116 A  
HETATM    3  C   UNL     1      -7.131   4.847  70.335  1.00  0.00    -0.053 A  
HETATM    4  C   UNL     1      -7.362   4.549  68.989  1.00  0.00    -0.056 A  
HETATM    5  C   UNL     1      -8.664   4.499  68.472  1.00  0.00    -0.117 A  
HETATM    6  C   UNL     1      -9.503   4.959  70.712  1.00  0.00    -0.232 A  
HETATM    7  C   UNL     1      -9.730   4.611  69.377  1.00  0.00    -0.272 A  
ENDROOT
BRANCH   5   8
HETATM    8  C   UNL     1      -8.869   4.372  67.017  1.00  0.00    -0.114 A  
HETATM    9  C   UNL     1      -8.663   3.250  66.229  1.00  0.00    -0.129 A  
HETATM   10  C   UNL     1      -9.044   3.596  64.914  1.00  0.00    -0.136 A  
HETATM   11  N   UNL     1      -9.533   4.846  64.884  1.00  0.00    -0.055 NA 
HETATM   12  C   UNL     1      -8.949   2.724  63.691  1.00  0.00    -0.096 C  
HETATM   13  F   UNL     1      -8.441   1.494  63.991  1.00  0.00    -0.070 F  
HETATM   14  F   UNL     1     -10.156   2.508  63.104  1.00  0.00    -0.099 F  
HETATM   15  N   UNL     1      -9.274   5.367  66.116  1.00  0.00    -0.153 NA 
HETATM   16  F   UNL     1      -8.130   3.251  62.744  1.00  0.00    -0.068 F  
BRANCH  15  17
HETATM   17  C   UNL     1      -9.429   6.777  66.295  1.00  0.00    -0.067 A  
HETATM   18  C   UNL     1     -10.538   7.258  67.013  1.00  0.00    -0.415 A  
HETATM   19  C   UNL     1     -10.656   8.622  67.299  1.00  0.00    -0.308 A  
HETATM   20  C   UNL     1      -9.669   9.505  66.854  1.00  0.00    -0.182 A  
HETATM   21  C   UNL     1      -8.614   9.051  66.060  1.00  0.00    -0.158 A  
HETATM   22  C   UNL     1      -8.506   7.690  65.768  1.00  0.00    -0.153 A  
BRANCH  20  23
HETATM   23  S   UNL     1      -9.761  11.226  67.276  1.00  0.00    -0.174 S  
HETATM   24  O   UNL     1      -9.132  11.983  66.221  1.00  0.00    -0.211 OA 
HETATM   25  O   UNL     1      -9.406  11.376  68.669  1.00  0.00    -0.185 OA 
HETATM   26  N   UNL     1     -11.410  11.493  67.170  1.00  0.00    -0.302 N  
HETATM   27  H1  UNL     1     -11.463  12.482  67.412  1.00  0.00     0.000 HD 
HETATM   28  H2  UNL     1     -12.158  10.843  66.929  1.00  0.00     0.000 HD 
ENDBRANCH  20  23
ENDBRANCH  15  17
ENDBRANCH   5   8
TORSDOF 3
ENDMDL
MODEL      105
REMARK 921   NORMALIZED FREE ENERGY PREDICTED BY IDOCK:   -3.74 KCAL/MOL
REMARK 922        TOTAL FREE ENERGY PREDICTED BY IDOCK:   -5.06 KCAL/MOL
REMARK 923 INTER-LIGAND FREE ENERGY PREDICTED BY IDOCK:   -4.57 KCAL/MOL
REMARK 924 INTRA-LIGAND FREE ENERGY PREDICTED BY IDOCK:   -0.49 KCAL/MOL
REMARK 927      BINDING AFFINITY PREDICTED BY RF-SCORE:    0.00 PKD
ROOT
HETATM    1  C   UNL     1     -11.487  13.032  63.746  1.00  0.00    -0.486 C  
HETATM    2  C   UNL     1     -10.944  12.020  64.710  1.00  0.00    -0.361 A  
HETATM    3  C   UNL     1     -11.182  12.142  66.080  1.00  0.00    -0.382 A  
HETATM    4  C   UNL     1     -10.518  11.315  66.991  1.00  0.00    -0.272 A  
HETATM    5  C   UNL     1      -9.606  10.344  66.554  1.00  0.00    -0.224 A  
HETATM    6  C   UNL     1     -10.114  10.988  64.261  1.00  0.00    -0.398 A  
HETATM    7  C   UNL     1      -9.491  10.130  65.173  1.00  0.00    -0.319 A  
ENDROOT
BRANCH   5   8
HETATM    8  C   UNL     1      -8.781   9.620  67.540  1.00  0.00    -0.125 A  
HETATM    9  C   UNL     1      -8.117  10.147  68.637  1.00  0.00    -0.109 A  
HETATM   10  C   UNL     1      -7.510   9.064  69.309  1.00  0.00    -0.075 A  
HETATM   11  N   UNL     1      -7.832   7.905  68.712  1.00  0.00    -0.116 NA 
HETATM   12  C   UNL     1      -6.633   9.140  70.529  1.00  0.00    -0.061 C  
HETATM   13  F   UNL     1      -6.478  10.426  70.955  1.00  0.00    -0.067 F  
HETATM   14  F   UNL     1      -7.135   8.445  71.583  1.00  0.00    -0.061 F  
HETATM   15  N   UNL     1      -8.460   8.255  67.554  1.00  0.00    -0.129 NA 
HETATM   16  F   UNL     1      -5.381   8.665  70.295  1.00  0.00    -0.022 F  
BRANCH  15  17
HETATM   17  C   UNL     1      -8.672   7.238  66.572  1.00  0.00    -0.133 A  
HETATM   18  C   UNL     1      -8.027   7.345  65.327  1.00  0.00    -0.127 A  
HETATM   19  C   UNL     1      -8.128   6.310  64.389  1.00  0.00    -0.091 A  
HETATM   20  C   UNL     1      -8.885   5.177  64.695  1.00  0.00    -0.080 A  
HETATM   21  C   UNL     1      -9.605   5.104  65.890  1.00  0.00    -0.163 A  
HETATM   22  C   UNL     1      -9.510   6.143  66.818  1.00  0.00    -0.164 A  
BRANCH  20  23
HETATM   23  S   UNL     1      -8.959   3.822  63.552  1.00  0.00    -0.108 S  
HETATM   24  O   UNL     1      -9.686   2.745  64.177  1.00  0.00    -0.146 OA 
HETATM   25  O   UNL     1      -7.650   3.648  62.962  1.00  0.00    -0.056 OA 
HETATM   26  N   UNL     1      -9.941   4.465  62.359  1.00  0.00    -0.298 N  
HETATM   27  H1  UNL     1      -9.983   3.686  61.702  1.00  0.00     0.000 HD 
HETATM   28  H2  UNL     1     -10.377   5.385  62.304  1.00  0.00     0.000 HD 
ENDBRANCH  20  23
ENDBRANCH  15  17
ENDBRANCH   5   8
TORSDOF 3
ENDMDL
MODEL      106
REMARK 921   NORMALIZED FREE ENERGY PREDICTED BY IDOCK:   -3.67 KCAL/MOL
REMARK 922        TOTAL FREE ENERGY PREDICTED BY IDOCK:   -4.97 KCAL/MOL
REMARK 923 INTER-LIGAND FREE ENERGY PREDICTED BY IDOCK:   -4.31 KCAL/MOL
REMARK 924 INTRA-LIGAND FREE ENERGY PREDICTED BY IDOCK:   -0.66 KCAL/MOL
REMARK 927      BINDING AFFINITY PREDICTED BY RF-SCORE:    0.00 PKD
ROOT
HETATM    1  C   UNL     1     -12.745  15.659  63.819  1.00  0.00     1.111 C  
HETATM    2  C   UNL     1     -11.932  14.897  64.823  1.00  0.00    -0.364 A  
HETATM    3  C   UNL     1     -10.614  15.263  65.097  1.00  0.00    -0.453 A  
HETATM    4  C   UNL     1      -9.798  14.441  65.881  1.00  0.00    -0.336 A  
HETATM    5  C   UNL     1     -10.283  13.239  66.414  1.00  0.00    -0.292 A  
HETATM    6  C   UNL     1     -12.453  13.752  65.434  1.00  0.00    -0.532 A  
HETATM    7  C   UNL     1     -11.649  12.959  66.259  1.00  0.00    -0.424 A  
ENDROOT
BRANCH   5   8
HETATM    8  C   UNL     1      -9.352  12.303  67.073  1.00  0.00    -0.205 A  
HETATM    9  C   UNL     1      -9.470  10.926  67.177  1.00  0.00    -0.178 A  
HETATM   10  C   UNL     1      -8.315  10.464  67.845  1.00  0.00    -0.114 A  
HETATM   11  N   UNL     1      -7.476  11.485  68.086  1.00  0.00    -0.095 NA 
HETATM   12  C   UNL     1      -8.011   9.044  68.239  1.00  0.00    -0.104 C  
HETATM   13  F   UNL     1      -9.009   8.195  67.862  1.00  0.00    -0.132 F  
HETATM   14  F   UNL     1      -6.870   8.572  67.671  1.00  0.00    -0.065 F  
HETATM   15  N   UNL     1      -8.174  12.611  67.770  1.00  0.00    -0.157 NA 
HETATM   16  F   UNL     1      -7.879   8.900  69.584  1.00  0.00    -0.079 F  
BRANCH  15  17
HETATM   17  C   UNL     1      -7.641  13.871  68.185  1.00  0.00    -0.134 A  
HETATM   18  C   UNL     1      -6.340  14.227  67.790  1.00  0.00    -0.168 A  
HETATM   19  C   UNL     1      -5.836  15.498  68.087  1.00  0.00    -0.136 A  
HETATM   20  C   UNL     1      -6.630  16.405  68.791  1.00  0.00    -0.154 A  
HETATM   21  C   UNL     1      -7.887  16.029  69.269  1.00  0.00    -0.222 A  
HETATM   22  C   UNL     1      -8.382  14.755  68.979  1.00  0.00    -0.144 A  
BRANCH  20  23
HETATM   23  S   UNL     1      -6.038  18.048  69.107  1.00  0.00    -0.240 S  
HETATM   24  O   UNL     1      -5.131  18.412  68.045  1.00  0.00    -0.162 OA 
HETATM   25  O   UNL     1      -5.688  18.148  70.507  1.00  0.00    -0.218 OA 
HETATM   26  N   UNL     1      -7.440  18.938  68.898  1.00  0.00    -0.319 N  
HETATM   27  H1  UNL     1      -7.099  19.882  69.080  1.00  0.00     0.000 HD 
HETATM   28  H2  UNL     1      -8.378  18.622  68.656  1.00  0.00     0.000 HD 
ENDBRANCH  20  23
ENDBRANCH  15  17
ENDBRANCH   5   8
TORSDOF 3
ENDMDL
MODEL      107
REMARK 921   NORMALIZED FREE ENERGY PREDICTED BY IDOCK:   -3.60 KCAL/MOL
REMARK 922        TOTAL FREE ENERGY PREDICTED BY IDOCK:   -4.89 KCAL/MOL
REMARK 923 INTER-LIGAND FREE ENERGY PREDICTED BY IDOCK:   -3.85 KCAL/MOL
REMARK 924 INTRA-LIGAND FREE ENERGY PREDICTED BY IDOCK:   -1.04 KCAL/MOL
REMARK 927      BINDING AFFINITY PREDICTED BY RF-SCORE:    0.00 PKD
ROOT
HETATM    1  C   UNL     1      -5.217   6.481  74.326  1.00  0.00    -0.042 C  
HETATM    2  C   UNL     1      -6.368   6.883  73.452  1.00  0.00    -0.063 A  
HETATM    3  C   UNL     1      -6.744   8.222  73.342  1.00  0.00    -0.139 A  
HETATM    4  C   UNL     1      -7.929   8.574  72.688  1.00  0.00    -0.093 A  
HETATM    5  C   UNL     1      -8.761   7.597  72.124  1.00  0.00    -0.154 A  
HETATM    6  C   UNL     1      -7.138   5.912  72.805  1.00  0.00    -0.085 A  
HETATM    7  C   UNL     1      -8.296   6.274  72.108  1.00  0.00    -0.109 A  
ENDROOT
BRANCH   5   8
HETATM    8  C   UNL     1     -10.090   7.976  71.611  1.00  0.00    -0.184 A  
HETATM    9  C   UNL     1     -11.326   7.690  72.171  1.00  0.00    -0.341 A  
HETATM   10  C   UNL     1     -12.300   8.305  71.353  1.00  0.00    -0.299 A  
HETATM   11  N   UNL     1     -11.710   9.003  70.370  1.00  0.00    -0.138 NA 
HETATM   12  C   UNL     1     -13.793   8.232  71.524  1.00  0.00    -0.328 C  
HETATM   13  F   UNL     1     -14.138   7.481  72.609  1.00  0.00    -0.004 F  
HETATM   14  F   UNL     1     -14.363   9.452  71.704  1.00  0.00    -0.275 F  
HETATM   15  N   UNL     1     -10.390   8.669  70.429  1.00  0.00    -0.195 NA 
HETATM   16  F   UNL     1     -14.406   7.656  70.455  1.00  0.00    -0.027 F  
BRANCH  15  17
HETATM   17  C   UNL     1      -9.554   9.040  69.331  1.00  0.00    -0.160 A  
HETATM   18  C   UNL     1      -9.390   8.143  68.261  1.00  0.00    -0.137 A  
HETATM   19  C   UNL     1      -8.669   8.524  67.124  1.00  0.00    -0.134 A  
HETATM   20  C   UNL     1      -8.101   9.799  67.066  1.00  0.00    -0.113 A  
HETATM   21  C   UNL     1      -8.178  10.662  68.160  1.00  0.00    -0.116 A  
HETATM   22  C   UNL     1      -8.890  10.274  69.298  1.00  0.00    -0.186 A  
BRANCH  20  23
HETATM   23  S   UNL     1      -7.252  10.327  65.600  1.00  0.00    -0.149 S  
HETATM   24  O   UNL     1      -7.114   9.189  64.724  1.00  0.00    -0.093 OA 
HETATM   25  O   UNL     1      -6.135  11.158  65.992  1.00  0.00    -0.129 OA 
HETATM   26  N   UNL     1      -8.393  11.347  64.922  1.00  0.00    -0.159 N  
HETATM   27  H1  UNL     1      -7.905  11.651  64.080  1.00  0.00     0.000 HD 
HETATM   28  H2  UNL     1      -9.322  11.597  65.259  1.00  0.00     0.000 HD 
ENDBRANCH  20  23
ENDBRANCH  15  17
ENDBRANCH   5   8
TORSDOF 3
ENDMDL
MODEL      108
REMARK 921   NORMALIZED FREE ENERGY PREDICTED BY IDOCK:   -3.60 KCAL/MOL
REMARK 922        TOTAL FREE ENERGY PREDICTED BY IDOCK:   -4.89 KCAL/MOL
REMARK 923 INTER-LIGAND FREE ENERGY PREDICTED BY IDOCK:   -5.11 KCAL/MOL
REMARK 924 INTRA-LIGAND FREE ENERGY PREDICTED BY IDOCK:    0.22 KCAL/MOL
REMARK 927      BINDING AFFINITY PREDICTED BY RF-SCORE:    0.00 PKD
ROOT
HETATM    1  C   UNL     1     -10.019  12.272  63.515  1.00  0.00    -0.254 C  
HETATM    2  C   UNL     1     -10.098  11.247  64.607  1.00  0.00    -0.343 A  
HETATM    3  C   UNL     1     -11.014  11.386  65.650  1.00  0.00    -0.254 A  
HETATM    4  C   UNL     1     -10.956  10.542  66.763  1.00  0.00    -0.150 A  
HETATM    5  C   UNL     1      -9.984   9.535  66.856  1.00  0.00    -0.278 A  
HETATM    6  C   UNL     1      -9.192  10.182  64.645  1.00  0.00    -0.300 A  
HETATM    7  C   UNL     1      -9.170   9.308  65.737  1.00  0.00    -0.283 A  
ENDROOT
BRANCH   5   8
HETATM    8  C   UNL     1      -9.825   8.788  68.117  1.00  0.00    -0.168 A  
HETATM    9  C   UNL     1      -9.454   7.461  68.273  1.00  0.00    -0.143 A  
HETATM   10  C   UNL     1      -9.386   7.213  69.661  1.00  0.00    -0.149 A  
HETATM   11  N   UNL     1      -9.630   8.341  70.349  1.00  0.00    -0.167 NA 
HETATM   12  C   UNL     1      -9.075   5.900  70.327  1.00  0.00    -0.147 C  
HETATM   13  F   UNL     1      -8.843   4.917  69.411  1.00  0.00    -0.090 F  
HETATM   14  F   UNL     1      -7.971   5.958  71.116  1.00  0.00    -0.102 F  
HETATM   15  N   UNL     1     -10.055   9.246  69.423  1.00  0.00    -0.189 NA 
HETATM   16  F   UNL     1     -10.101   5.460  71.103  1.00  0.00    -0.224 F  
BRANCH  15  17
HETATM   17  C   UNL     1     -10.655  10.455  69.892  1.00  0.00    -0.251 A  
HETATM   18  C   UNL     1     -10.309  11.673  69.280  1.00  0.00     0.034 A  
HETATM   19  C   UNL     1     -10.963  12.856  69.643  1.00  0.00     0.151 A  
HETATM   20  C   UNL     1     -11.952  12.820  70.628  1.00  0.00    -0.109 A  
HETATM   21  C   UNL     1     -12.237  11.633  71.307  1.00  0.00    -0.149 A  
HETATM   22  C   UNL     1     -11.574  10.457  70.949  1.00  0.00    -0.428 A  
BRANCH  20  23
HETATM   23  S   UNL     1     -12.847  14.294  71.044  1.00  0.00    -0.358 S  
HETATM   24  O   UNL     1     -11.943  15.194  71.719  1.00  0.00    -0.328 OA 
HETATM   25  O   UNL     1     -14.130  13.913  71.591  1.00  0.00    -0.334 OA 
HETATM   26  N   UNL     1     -13.143  14.927  69.523  1.00  0.00    -0.094 N  
HETATM   27  H1  UNL     1     -13.657  15.775  69.763  1.00  0.00     0.000 HD 
HETATM   28  H2  UNL     1     -12.881  14.564  68.607  1.00  0.00     0.000 HD 
ENDBRANCH  20  23
ENDBRANCH  15  17
ENDBRANCH   5   8
TORSDOF 3
ENDMDL
MODEL      109
REMARK 921   NORMALIZED FREE ENERGY PREDICTED BY IDOCK:   -3.52 KCAL/MOL
REMARK 922        TOTAL FREE ENERGY PREDICTED BY IDOCK:   -4.80 KCAL/MOL
REMARK 923 INTER-LIGAND FREE ENERGY PREDICTED BY IDOCK:   -3.69 KCAL/MOL
REMARK 924 INTRA-LIGAND FREE ENERGY PREDICTED BY IDOCK:   -1.11 KCAL/MOL
REMARK 927      BINDING AFFINITY PREDICTED BY RF-SCORE:    0.00 PKD
ROOT
HETATM    1  C   UNL     1     -12.798  10.573  71.974  1.00  0.00    -0.419 C  
HETATM    2  C   UNL     1     -11.875   9.839  71.047  1.00  0.00    -0.442 A  
HETATM    3  C   UNL     1     -10.840   9.050  71.550  1.00  0.00    -0.416 A  
HETATM    4  C   UNL     1      -9.867   8.527  70.693  1.00  0.00    -0.218 A  
HETATM    5  C   UNL     1      -9.910   8.775  69.314  1.00  0.00    -0.180 A  
HETATM    6  C   UNL     1     -11.983  10.006  69.663  1.00  0.00     0.036 A  
HETATM    7  C   UNL     1     -11.035   9.439  68.804  1.00  0.00    -0.080 A  
ENDROOT
BRANCH   5   8
HETATM    8  C   UNL     1      -8.773   8.374  68.463  1.00  0.00    -0.136 A  
HETATM    9  C   UNL     1      -8.364   7.087  68.150  1.00  0.00    -0.123 A  
HETATM   10  C   UNL     1      -7.269   7.207  67.266  1.00  0.00    -0.086 A  
HETATM   11  N   UNL     1      -7.043   8.499  66.978  1.00  0.00    -0.074 NA 
HETATM   12  C   UNL     1      -6.451   6.084  66.691  1.00  0.00    -0.050 C  
HETATM   13  F   UNL     1      -6.897   4.868  67.119  1.00  0.00    -0.050 F  
HETATM   14  F   UNL     1      -6.486   6.048  65.333  1.00  0.00    -0.037 F  
HETATM   15  N   UNL     1      -7.841   9.206  67.826  1.00  0.00    -0.100 NA 
HETATM   16  F   UNL     1      -5.144   6.158  67.057  1.00  0.00    -0.004 F  
BRANCH  15  17
HETATM   17  C   UNL     1      -7.613  10.612  67.948  1.00  0.00    -0.091 A  
HETATM   18  C   UNL     1      -8.077  11.470  66.935  1.00  0.00    -0.164 A  
HETATM   19  C   UNL     1      -7.967  12.858  67.081  1.00  0.00    -0.104 A  
HETATM   20  C   UNL     1      -7.380  13.383  68.235  1.00  0.00    -0.113 A  
HETATM   21  C   UNL     1      -6.833  12.538  69.202  1.00  0.00    -0.062 A  
HETATM   22  C   UNL     1      -6.935  11.153  69.048  1.00  0.00    -0.101 A  
BRANCH  20  23
HETATM   23  S   UNL     1      -7.305  15.139  68.473  1.00  0.00    -0.127 S  
HETATM   24  O   UNL     1      -8.165  15.481  69.580  1.00  0.00    -0.250 OA 
HETATM   25  O   UNL     1      -7.394  15.782  67.181  1.00  0.00    -0.202 OA 
HETATM   26  N   UNL     1      -5.724  15.323  68.992  1.00  0.00    -0.097 N  
HETATM   27  H1  UNL     1      -5.681  16.332  69.128  1.00  0.00     0.000 HD 
HETATM   28  H2  UNL     1      -5.001  14.617  69.132  1.00  0.00     0.000 HD 
ENDBRANCH  20  23
ENDBRANCH  15  17
ENDBRANCH   5   8
TORSDOF 3
ENDMDL
MODEL      110
REMARK 921   NORMALIZED FREE ENERGY PREDICTED BY IDOCK:   -3.43 KCAL/MOL
REMARK 922        TOTAL FREE ENERGY PREDICTED BY IDOCK:   -4.70 KCAL/MOL
REMARK 923 INTER-LIGAND FREE ENERGY PREDICTED BY IDOCK:   -3.93 KCAL/MOL
REMARK 924 INTRA-LIGAND FREE ENERGY PREDICTED BY IDOCK:   -0.76 KCAL/MOL
REMARK 927      BINDING AFFINITY PREDICTED BY RF-SCORE:    0.00 PKD
ROOT
HETATM    1  C   UNL     1     -11.646  10.941  68.523  1.00  0.00    -0.360 C  
HETATM    2  C   UNL     1     -10.781   9.777  68.140  1.00  0.00    -0.280 A  
HETATM    3  C   UNL     1     -10.773   9.297  66.829  1.00  0.00    -0.120 A  
HETATM    4  C   UNL     1     -10.123   8.099  66.516  1.00  0.00    -0.286 A  
HETATM    5  C   UNL     1      -9.461   7.357  67.505  1.00  0.00    -0.162 A  
HETATM    6  C   UNL     1     -10.039   9.097  69.109  1.00  0.00    -0.199 A  
HETATM    7  C   UNL     1      -9.347   7.926  68.782  1.00  0.00    -0.146 A  
ENDROOT
BRANCH   5   8
HETATM    8  C   UNL     1      -8.950   6.010  67.188  1.00  0.00    -0.114 A  
HETATM    9  C   UNL     1      -8.738   5.460  65.934  1.00  0.00    -0.145 A  
HETATM   10  C   UNL     1      -8.194   4.173  66.136  1.00  0.00    -0.105 A  
HETATM   11  N   UNL     1      -8.004   3.948  67.447  1.00  0.00    -0.090 NA 
HETATM   12  C   UNL     1      -7.845   3.166  65.073  1.00  0.00    -0.082 C  
HETATM   13  F   UNL     1      -8.110   3.644  63.824  1.00  0.00    -0.083 F  
HETATM   14  F   UNL     1      -6.530   2.825  65.082  1.00  0.00    -0.030 F  
HETATM   15  N   UNL     1      -8.612   4.986  68.085  1.00  0.00    -0.102 NA 
HETATM   16  F   UNL     1      -8.559   2.016  65.199  1.00  0.00    -0.089 F  
BRANCH  15  17
HETATM   17  C   UNL     1      -8.818   4.879  69.496  1.00  0.00    -0.090 A  
HETATM   18  C   UNL     1      -7.707   4.925  70.356  1.00  0.00    -0.062 A  
HETATM   19  C   UNL     1      -7.888   4.935  71.743  1.00  0.00    -0.107 A  
HETATM   20  C   UNL     1      -9.182   4.885  72.267  1.00  0.00    -0.130 A  
HETATM   21  C   UNL     1     -10.286   4.745  71.425  1.00  0.00    -0.192 A  
HETATM   22  C   UNL     1     -10.100   4.725  70.040  1.00  0.00    -0.308 A  
BRANCH  20  23
HETATM   23  S   UNL     1      -9.434   4.977  74.021  1.00  0.00    -0.129 S  
HETATM   24  O   UNL     1     -10.850   4.879  74.278  1.00  0.00    -0.320 OA 
HETATM   25  O   UNL     1      -8.613   6.045  74.547  1.00  0.00    -0.115 OA 
HETATM   26  N   UNL     1      -8.731   3.542  74.520  1.00  0.00    -0.086 N  
HETATM   27  H1  UNL     1      -8.877   3.596  75.528  1.00  0.00     0.000 HD 
HETATM   28  H2  UNL     1      -8.281   2.814  73.966  1.00  0.00     0.000 HD 
ENDBRANCH  20  23
ENDBRANCH  15  17
ENDBRANCH   5   8
TORSDOF 3
ENDMDL
MODEL      111
REMARK 921   NORMALIZED FREE ENERGY PREDICTED BY IDOCK:   -3.42 KCAL/MOL
REMARK 922        TOTAL FREE ENERGY PREDICTED BY IDOCK:   -4.68 KCAL/MOL
REMARK 923 INTER-LIGAND FREE ENERGY PREDICTED BY IDOCK:   -3.60 KCAL/MOL
REMARK 924 INTRA-LIGAND FREE ENERGY PREDICTED BY IDOCK:   -1.09 KCAL/MOL
REMARK 927      BINDING AFFINITY PREDICTED BY RF-SCORE:    0.00 PKD
ROOT
HETATM    1  C   UNL     1      -5.127  11.293  70.007  1.00  0.00    -0.055 C  
HETATM    2  C   UNL     1      -5.745  12.619  69.677  1.00  0.00    -0.105 A  
HETATM    3  C   UNL     1      -5.544  13.208  68.428  1.00  0.00    -0.082 A  
HETATM    4  C   UNL     1      -5.954  14.523  68.189  1.00  0.00    -0.139 A  
HETATM    5  C   UNL     1      -6.579  15.278  69.192  1.00  0.00    -0.130 A  
HETATM    6  C   UNL     1      -6.458  13.329  70.648  1.00  0.00     0.525 A  
HETATM    7  C   UNL     1      -6.911  14.627  70.389  1.00  0.00     0.118 A  
ENDROOT
BRANCH   5   8
HETATM    8  C   UNL     1      -6.827  16.716  68.976  1.00  0.00    -0.207 A  
HETATM    9  C   UNL     1      -6.202  17.784  69.601  1.00  0.00    -0.214 A  
HETATM   10  C   UNL     1      -6.734  18.962  69.030  1.00  0.00    -0.296 A  
HETATM   11  N   UNL     1      -7.595  18.655  68.046  1.00  0.00    -0.254 NA 
HETATM   12  C   UNL     1      -6.406  20.378  69.420  1.00  0.00    -0.243 C  
HETATM   13  F   UNL     1      -5.488  20.420  70.428  1.00  0.00    -0.268 F  
HETATM   14  F   UNL     1      -5.883  21.099  68.394  1.00  0.00    -0.326 F  
HETATM   15  N   UNL     1      -7.774  17.307  68.127  1.00  0.00    -0.210 NA 
HETATM   16  F   UNL     1      -7.495  21.054  69.871  1.00  0.00     1.120 F  
BRANCH  15  17
HETATM   17  C   UNL     1      -8.851  16.727  67.388  1.00  0.00    -0.200 A  
HETATM   18  C   UNL     1      -8.607  16.242  66.091  1.00  0.00    -0.342 A  
HETATM   19  C   UNL     1      -9.613  15.569  65.388  1.00  0.00    -0.150 A  
HETATM   20  C   UNL     1     -10.866  15.395  65.980  1.00  0.00    -0.314 A  
HETATM   21  C   UNL     1     -11.146  15.955  67.229  1.00  0.00    -0.172 A  
HETATM   22  C   UNL     1     -10.142  16.635  67.922  1.00  0.00    -0.270 A  
BRANCH  20  23
HETATM   23  S   UNL     1     -12.128  14.476  65.137  1.00  0.00    -0.332 S  
HETATM   24  O   UNL     1     -12.388  15.122  63.874  1.00  0.00    -0.673 OA 
HETATM   25  O   UNL     1     -13.172  14.155  66.085  1.00  0.00    -0.072 OA 
HETATM   26  N   UNL     1     -11.318  13.047  64.814  1.00  0.00    -0.306 N  
HETATM   27  H1  UNL     1     -12.044  12.519  64.329  1.00  0.00     0.000 HD 
HETATM   28  H2  UNL     1     -10.361  12.779  65.039  1.00  0.00     0.000 HD 
ENDBRANCH  20  23
ENDBRANCH  15  17
ENDBRANCH   5   8
TORSDOF 3
ENDMDL
MODEL      112
REMARK 921   NORMALIZED FREE ENERGY PREDICTED BY IDOCK:   -3.39 KCAL/MOL
REMARK 922        TOTAL FREE ENERGY PREDICTED BY IDOCK:   -4.65 KCAL/MOL
REMARK 923 INTER-LIGAND FREE ENERGY PREDICTED BY IDOCK:   -3.65 KCAL/MOL
REMARK 924 INTRA-LIGAND FREE ENERGY PREDICTED BY IDOCK:   -0.99 KCAL/MOL
REMARK 927      BINDING AFFINITY PREDICTED BY RF-SCORE:    0.00 PKD
ROOT
HETATM    1  C   UNL     1     -10.523   7.219  73.815  1.00  0.00    -0.335 C  
HETATM    2  C   UNL     1      -9.753   7.830  72.683  1.00  0.00    -0.278 A  
HETATM    3  C   UNL     1     -10.375   8.702  71.788  1.00  0.00    -0.386 A  
HETATM    4  C   UNL     1      -9.715   9.116  70.627  1.00  0.00    -0.314 A  
HETATM    5  C   UNL     1      -8.416   8.674  70.338  1.00  0.00    -0.144 A  
HETATM    6  C   UNL     1      -8.423   7.467  72.454  1.00  0.00    -0.134 A  
HETATM    7  C   UNL     1      -7.748   7.925  71.317  1.00  0.00    -0.086 A  
ENDROOT
BRANCH   5   8
HETATM    8  C   UNL     1      -7.819   8.971  69.022  1.00  0.00    -0.090 A  
HETATM    9  C   UNL     1      -7.529  10.217  68.487  1.00  0.00    -0.086 A  
HETATM   10  C   UNL     1      -6.922   9.994  67.232  1.00  0.00    -0.083 A  
HETATM   11  N   UNL     1      -6.769   8.677  67.015  1.00  0.00    -0.062 NA 
HETATM   12  C   UNL     1      -6.478  11.043  66.249  1.00  0.00    -0.112 C  
HETATM   13  F   UNL     1      -6.723  12.301  66.713  1.00  0.00    -0.121 F  
HETATM   14  F   UNL     1      -5.147  10.984  65.981  1.00  0.00    -0.073 F  
HETATM   15  N   UNL     1      -7.458   8.062  68.017  1.00  0.00    -0.095 NA 
HETATM   16  F   UNL     1      -7.131  10.944  65.060  1.00  0.00    -0.023 F  
BRANCH  15  17
HETATM   17  C   UNL     1      -7.710   6.660  67.896  1.00  0.00    -0.108 A  
HETATM   18  C   UNL     1      -9.029   6.189  68.020  1.00  0.00    -0.113 A  
HETATM   19  C   UNL     1      -9.320   4.839  67.796  1.00  0.00    -0.163 A  
HETATM   20  C   UNL     1      -8.288   3.960  67.459  1.00  0.00    -0.094 A  
HETATM   21  C   UNL     1      -6.963   4.399  67.425  1.00  0.00    -0.063 A  
HETATM   22  C   UNL     1      -6.676   5.746  67.661  1.00  0.00    -0.059 A  
BRANCH  20  23
HETATM   23  S   UNL     1      -8.650   2.262  67.093  1.00  0.00    -0.114 S  
HETATM   24  O   UNL     1      -9.385   1.708  68.204  1.00  0.00    -0.162 OA 
HETATM   25  O   UNL     1      -7.459   1.646  66.552  1.00  0.00    -0.058 OA 
HETATM   26  N   UNL     1      -9.722   2.434  65.818  1.00  0.00    -0.297 N  
HETATM   27  H1  UNL     1      -9.930   1.458  65.608  1.00  0.00     0.000 HD 
HETATM   28  H2  UNL     1     -10.071   3.282  65.374  1.00  0.00     0.000 HD 
ENDBRANCH  20  23
ENDBRANCH  15  17
ENDBRANCH   5   8
TORSDOF 3
ENDMDL
MODEL      113
REMARK 921   NORMALIZED FREE ENERGY PREDICTED BY IDOCK:   -3.35 KCAL/MOL
REMARK 922        TOTAL FREE ENERGY PREDICTED BY IDOCK:   -4.61 KCAL/MOL
REMARK 923 INTER-LIGAND FREE ENERGY PREDICTED BY IDOCK:   -4.01 KCAL/MOL
REMARK 924 INTRA-LIGAND FREE ENERGY PREDICTED BY IDOCK:   -0.60 KCAL/MOL
REMARK 927      BINDING AFFINITY PREDICTED BY RF-SCORE:    0.00 PKD
ROOT
HETATM    1  C   UNL     1      -6.662  20.904  64.660  1.00  0.00    -0.099 C  
HETATM    2  C   UNL     1      -6.942  19.964  65.794  1.00  0.00    -0.317 A  
HETATM    3  C   UNL     1      -6.030  19.819  66.841  1.00  0.00    -0.177 A  
HETATM    4  C   UNL     1      -6.196  18.807  67.791  1.00  0.00    -0.200 A  
HETATM    5  C   UNL     1      -7.281  17.921  67.720  1.00  0.00    -0.211 A  
HETATM    6  C   UNL     1      -8.079  19.151  65.775  1.00  0.00     0.077 A  
HETATM    7  C   UNL     1      -8.268  18.172  66.757  1.00  0.00    -0.270 A  
ENDROOT
BRANCH   5   8
HETATM    8  C   UNL     1      -7.328  16.751  68.618  1.00  0.00    -0.218 A  
HETATM    9  C   UNL     1      -6.448  16.434  69.641  1.00  0.00    -0.201 A  
HETATM   10  C   UNL     1      -6.931  15.255  70.249  1.00  0.00     0.142 A  
HETATM   11  N   UNL     1      -8.094  14.884  69.688  1.00  0.00    -0.066 NA 
HETATM   12  C   UNL     1      -6.285  14.492  71.374  1.00  0.00     0.221 C  
HETATM   13  F   UNL     1      -5.127  15.086  71.781  1.00  0.00    -0.148 F  
HETATM   14  F   UNL     1      -7.078  14.403  72.474  1.00  0.00     1.220 F  
HETATM   15  N   UNL     1      -8.246  15.690  68.600  1.00  0.00    -0.157 NA 
HETATM   16  F   UNL     1      -5.954  13.224  71.014  1.00  0.00    -0.191 F  
BRANCH  15  17
HETATM   17  C   UNL     1      -9.252  15.346  67.645  1.00  0.00    -0.187 A  
HETATM   18  C   UNL     1      -8.862  14.854  66.387  1.00  0.00    -0.196 A  
HETATM   19  C   UNL     1      -9.824  14.406  65.475  1.00  0.00    -0.299 A  
HETATM   20  C   UNL     1     -11.176  14.463  65.820  1.00  0.00    -0.326 A  
HETATM   21  C   UNL     1     -11.579  15.036  67.028  1.00  0.00    -0.248 A  
HETATM   22  C   UNL     1     -10.615  15.493  67.930  1.00  0.00    -0.274 A  
BRANCH  20  23
HETATM   23  S   UNL     1     -12.404  13.825  64.709  1.00  0.00    -0.366 S  
HETATM   24  O   UNL     1     -13.686  13.892  65.368  1.00  0.00    -0.352 OA 
HETATM   25  O   UNL     1     -11.893  12.614  64.107  1.00  0.00    -0.352 OA 
HETATM   26  N   UNL     1     -12.392  14.997  63.514  1.00  0.00    -0.818 N  
HETATM   27  H1  UNL     1     -13.098  14.630  62.876  1.00  0.00     0.000 HD 
HETATM   28  H2  UNL     1     -11.832  15.846  63.444  1.00  0.00     0.000 HD 
ENDBRANCH  20  23
ENDBRANCH  15  17
ENDBRANCH   5   8
TORSDOF 3
ENDMDL
MODEL      114
REMARK 921   NORMALIZED FREE ENERGY PREDICTED BY IDOCK:   -3.06 KCAL/MOL
REMARK 922        TOTAL FREE ENERGY PREDICTED BY IDOCK:   -4.27 KCAL/MOL
REMARK 923 INTER-LIGAND FREE ENERGY PREDICTED BY IDOCK:   -3.59 KCAL/MOL
REMARK 924 INTRA-LIGAND FREE ENERGY PREDICTED BY IDOCK:   -0.68 KCAL/MOL
REMARK 927      BINDING AFFINITY PREDICTED BY RF-SCORE:    0.00 PKD
ROOT
HETATM    1  C   UNL     1      -6.063  11.434  62.388  1.00  0.00     0.323 C  
HETATM    2  C   UNL     1      -6.336  10.179  63.162  1.00  0.00    -0.139 A  
HETATM    3  C   UNL     1      -7.623   9.642  63.217  1.00  0.00    -0.119 A  
HETATM    4  C   UNL     1      -7.916   8.591  64.091  1.00  0.00    -0.150 A  
HETATM    5  C   UNL     1      -6.928   8.048  64.925  1.00  0.00    -0.063 A  
HETATM    6  C   UNL     1      -5.323   9.576  63.915  1.00  0.00    -0.063 A  
HETATM    7  C   UNL     1      -5.610   8.491  64.750  1.00  0.00    -0.047 A  
ENDROOT
BRANCH   5   8
HETATM    8  C   UNL     1      -7.306   7.075  65.967  1.00  0.00    -0.075 A  
HETATM    9  C   UNL     1      -6.982   5.728  66.024  1.00  0.00    -0.059 A  
HETATM   10  C   UNL     1      -7.520   5.226  67.229  1.00  0.00    -0.084 A  
HETATM   11  N   UNL     1      -8.092   6.217  67.933  1.00  0.00    -0.114 NA 
HETATM   12  C   UNL     1      -7.475   3.801  67.710  1.00  0.00    -0.067 C  
HETATM   13  F   UNL     1      -6.820   2.995  66.826  1.00  0.00    -0.044 F  
HETATM   14  F   UNL     1      -6.833   3.667  68.900  1.00  0.00    -0.042 F  
HETATM   15  N   UNL     1      -8.107   7.293  67.097  1.00  0.00    -0.113 NA 
HETATM   16  F   UNL     1      -8.716   3.268  67.861  1.00  0.00    -0.098 F  
BRANCH  15  17
HETATM   17  C   UNL     1      -8.906   8.420  67.468  1.00  0.00    -0.135 A  
HETATM   18  C   UNL     1      -8.720   9.004  68.733  1.00  0.00    -0.136 A  
HETATM   19  C   UNL     1      -9.408  10.173  69.078  1.00  0.00    -0.192 A  
HETATM   20  C   UNL     1     -10.290  10.748  68.161  1.00  0.00    -0.171 A  
HETATM   21  C   UNL     1     -10.551  10.124  66.939  1.00  0.00    -0.267 A  
HETATM   22  C   UNL     1      -9.871   8.951  66.603  1.00  0.00    -0.332 A  
BRANCH  20  23
HETATM   23  S   UNL     1     -11.109  12.273  68.550  1.00  0.00    -0.269 S  
HETATM   24  O   UNL     1     -12.278  12.383  67.713  1.00  0.00    -0.395 OA 
HETATM   25  O   UNL     1     -10.112  13.316  68.649  1.00  0.00    -0.221 OA 
HETATM   26  N   UNL     1     -11.635  11.962  70.109  1.00  0.00    -0.520 N  
HETATM   27  H1  UNL     1     -12.105  12.839  70.332  1.00  0.00     0.000 HD 
HETATM   28  H2  UNL     1     -11.516  11.125  70.679  1.00  0.00     0.000 HD 
ENDBRANCH  20  23
ENDBRANCH  15  17
ENDBRANCH   5   8
TORSDOF 3
ENDMDL
MODEL      115
REMARK 921   NORMALIZED FREE ENERGY PREDICTED BY IDOCK:   -2.59 KCAL/MOL
REMARK 922        TOTAL FREE ENERGY PREDICTED BY IDOCK:   -3.72 KCAL/MOL
REMARK 923 INTER-LIGAND FREE ENERGY PREDICTED BY IDOCK:   -2.86 KCAL/MOL
REMARK 924 INTRA-LIGAND FREE ENERGY PREDICTED BY IDOCK:   -0.85 KCAL/MOL
REMARK 927      BINDING AFFINITY PREDICTED BY RF-SCORE:    0.00 PKD
ROOT
HETATM    1  C   UNL     1     -11.990  15.429  63.256  1.00  0.00     1.990 C  
HETATM    2  C   UNL     1     -11.648  14.491  64.375  1.00  0.00    -0.325 A  
HETATM    3  C   UNL     1     -10.522  14.711  65.169  1.00  0.00    -0.440 A  
HETATM    4  C   UNL     1     -10.095  13.739  66.079  1.00  0.00    -0.320 A  
HETATM    5  C   UNL     1     -10.787  12.528  66.221  1.00  0.00    -0.299 A  
HETATM    6  C   UNL     1     -12.401  13.331  64.583  1.00  0.00    -0.447 A  
HETATM    7  C   UNL     1     -11.999  12.384  65.530  1.00  0.00    -0.453 A  
ENDROOT
BRANCH   5   8
HETATM    8  C   UNL     1     -10.210  11.449  67.044  1.00  0.00    -0.213 A  
HETATM    9  C   UNL     1      -9.582  10.294  66.604  1.00  0.00    -0.220 A  
HETATM   10  C   UNL     1      -9.152   9.596  67.754  1.00  0.00    -0.124 A  
HETATM   11  N   UNL     1      -9.430  10.305  68.860  1.00  0.00    -0.178 NA 
HETATM   12  C   UNL     1      -8.466   8.257  67.790  1.00  0.00    -0.131 C  
HETATM   13  F   UNL     1      -8.279   7.756  66.535  1.00  0.00    -0.110 F  
HETATM   14  F   UNL     1      -7.238   8.310  68.370  1.00  0.00    -0.082 F  
HETATM   15  N   UNL     1     -10.212  11.339  68.442  1.00  0.00    -0.188 NA 
HETATM   16  F   UNL     1      -9.189   7.325  68.466  1.00  0.00    -0.138 F  
BRANCH  15  17
HETATM   17  C   UNL     1     -10.895  12.109  69.435  1.00  0.00     0.027 A  
HETATM   18  C   UNL     1     -10.697  13.500  69.478  1.00  0.00     0.152 A  
HETATM   19  C   UNL     1     -11.436  14.291  70.364  1.00  0.00    -0.188 A  
HETATM   20  C   UNL     1     -12.363  13.685  71.216  1.00  0.00    -0.271 A  
HETATM   21  C   UNL     1     -12.500  12.296  71.246  1.00  0.00    -0.281 A  
HETATM   22  C   UNL     1     -11.752  11.510  70.367  1.00  0.00    -0.328 A  
BRANCH  20  23
HETATM   23  S   UNL     1     -13.366  14.680  72.289  1.00  0.00    -0.434 S  
HETATM   24  O   UNL     1     -14.300  15.420  71.476  1.00  0.00    -0.508 OA 
HETATM   25  O   UNL     1     -12.507  15.308  73.268  1.00  0.00    -0.393 OA 
HETATM   26  N   UNL     1     -14.233  13.499  73.100  1.00  0.00     1.039 N  
HETATM   27  H1  UNL     1     -14.809  14.071  73.717  1.00  0.00     0.000 HD 
HETATM   28  H2  UNL     1     -14.194  12.485  73.003  1.00  0.00     0.000 HD 
ENDBRANCH  20  23
ENDBRANCH  15  17
ENDBRANCH   5   8
TORSDOF 3
ENDMDL
MODEL      116
REMARK 921   NORMALIZED FREE ENERGY PREDICTED BY IDOCK:   -2.49 KCAL/MOL
REMARK 922        TOTAL FREE ENERGY PREDICTED BY IDOCK:   -3.59 KCAL/MOL
REMARK 923 INTER-LIGAND FREE ENERGY PREDICTED BY IDOCK:   -2.92 KCAL/MOL
REMARK 924 INTRA-LIGAND FREE ENERGY PREDICTED BY IDOCK:   -0.67 KCAL/MOL
REMARK 927      BINDING AFFINITY PREDICTED BY RF-SCORE:    0.00 PKD
ROOT
HETATM    1  C   UNL     1      -5.127  12.574  71.242  1.00  0.00    -0.148 C  
HETATM    2  C   UNL     1      -5.827  11.913  70.092  1.00  0.00    -0.157 A  
HETATM    3  C   UNL     1      -6.184  10.566  70.155  1.00  0.00    -0.117 A  
HETATM    4  C   UNL     1      -6.657   9.904  69.017  1.00  0.00    -0.052 A  
HETATM    5  C   UNL     1      -6.789  10.575  67.793  1.00  0.00    -0.073 A  
HETATM    6  C   UNL     1      -6.052  12.614  68.903  1.00  0.00    -0.079 A  
HETATM    7  C   UNL     1      -6.573  11.960  67.781  1.00  0.00    -0.084 A  
ENDROOT
BRANCH   5   8
HETATM    8  C   UNL     1      -7.106   9.811  66.572  1.00  0.00    -0.090 A  
HETATM    9  C   UNL     1      -7.020  10.243  65.258  1.00  0.00    -0.130 A  
HETATM   10  C   UNL     1      -7.374   9.148  64.440  1.00  0.00    -0.100 A  
HETATM   11  N   UNL     1      -7.601   8.059  65.193  1.00  0.00    -0.092 NA 
HETATM   12  C   UNL     1      -7.481   9.143  62.939  1.00  0.00    -0.102 C  
HETATM   13  F   UNL     1      -7.178  10.364  62.411  1.00  0.00    -0.126 F  
HETATM   14  F   UNL     1      -6.638   8.252  62.354  1.00  0.00    -0.085 F  
HETATM   15  N   UNL     1      -7.601   8.501  66.481  1.00  0.00    -0.088 NA 
HETATM   16  F   UNL     1      -8.737   8.847  62.513  1.00  0.00    -0.201 F  
BRANCH  15  17
HETATM   17  C   UNL     1      -8.093   7.620  67.494  1.00  0.00    -0.120 A  
HETATM   18  C   UNL     1      -7.256   6.599  67.977  1.00  0.00    -0.091 A  
HETATM   19  C   UNL     1      -7.670   5.794  69.044  1.00  0.00    -0.090 A  
HETATM   20  C   UNL     1      -8.926   6.005  69.617  1.00  0.00    -0.132 A  
HETATM   21  C   UNL     1      -9.801   6.954  69.084  1.00  0.00    -0.156 A  
HETATM   22  C   UNL     1      -9.388   7.748  68.012  1.00  0.00    -0.146 A  
BRANCH  20  23
HETATM   23  S   UNL     1      -9.435   5.048  71.022  1.00  0.00    -0.171 S  
HETATM   24  O   UNL     1      -8.675   3.822  71.031  1.00  0.00    -0.074 OA 
HETATM   25  O   UNL     1     -10.879   5.078  71.099  1.00  0.00    -0.078 OA 
HETATM   26  N   UNL     1      -8.868   5.999  72.278  1.00  0.00    -0.138 N  
HETATM   27  H1  UNL     1      -9.161   5.449  73.085  1.00  0.00     0.000 HD 
HETATM   28  H2  UNL     1      -8.368   6.887  72.244  1.00  0.00     0.000 HD 
ENDBRANCH  20  23
ENDBRANCH  15  17
ENDBRANCH   5   8
TORSDOF 3
ENDMDL
MODEL      117
REMARK 921   NORMALIZED FREE ENERGY PREDICTED BY IDOCK:   -2.35 KCAL/MOL
REMARK 922        TOTAL FREE ENERGY PREDICTED BY IDOCK:   -3.43 KCAL/MOL
REMARK 923 INTER-LIGAND FREE ENERGY PREDICTED BY IDOCK:   -3.16 KCAL/MOL
REMARK 924 INTRA-LIGAND FREE ENERGY PREDICTED BY IDOCK:   -0.27 KCAL/MOL
REMARK 927      BINDING AFFINITY PREDICTED BY RF-SCORE:    0.00 PKD
ROOT
HETATM    1  C   UNL     1     -12.205  15.388  63.898  1.00  0.00     0.188 C  
HETATM    2  C   UNL     1     -11.109  16.021  64.703  1.00  0.00    -0.346 A  
HETATM    3  C   UNL     1     -10.049  15.255  65.189  1.00  0.00    -0.323 A  
HETATM    4  C   UNL     1      -9.137  15.802  66.097  1.00  0.00    -0.377 A  
HETATM    5  C   UNL     1      -9.261  17.128  66.536  1.00  0.00    -0.289 A  
HETATM    6  C   UNL     1     -11.180  17.372  65.055  1.00  0.00     0.626 A  
HETATM    7  C   UNL     1     -10.236  17.929  65.925  1.00  0.00    -0.228 A  
ENDROOT
BRANCH   5   8
HETATM    8  C   UNL     1      -8.405  17.618  67.632  1.00  0.00    -0.226 A  
HETATM    9  C   UNL     1      -7.949  18.910  67.836  1.00  0.00    -0.297 A  
HETATM   10  C   UNL     1      -7.211  18.902  69.040  1.00  0.00    -0.293 A  
HETATM   11  N   UNL     1      -7.258  17.685  69.606  1.00  0.00     0.173 NA 
HETATM   12  C   UNL     1      -6.473  20.062  69.651  1.00  0.00    -0.339 C  
HETATM   13  F   UNL     1      -6.598  21.190  68.895  1.00  0.00    -0.151 F  
HETATM   14  F   UNL     1      -6.926  20.379  70.892  1.00  0.00    -0.246 F  
HETATM   15  N   UNL     1      -7.836  16.874  68.677  1.00  0.00    -0.233 NA 
HETATM   16  F   UNL     1      -5.139  19.825  69.759  1.00  0.00    -0.189 F  
BRANCH  15  17
HETATM   17  C   UNL     1      -7.769  15.461  68.883  1.00  0.00    -0.165 A  
HETATM   18  C   UNL     1      -8.963  14.726  68.981  1.00  0.00    -0.135 A  
HETATM   19  C   UNL     1      -8.927  13.330  69.071  1.00  0.00     0.440 A  
HETATM   20  C   UNL     1      -7.694  12.673  69.076  1.00  0.00     0.197 A  
HETATM   21  C   UNL     1      -6.502  13.399  69.074  1.00  0.00    -0.105 A  
HETATM   22  C   UNL     1      -6.542  14.793  68.995  1.00  0.00    -0.100 A  
BRANCH  20  23
HETATM   23  S   UNL     1      -7.632  10.900  69.109  1.00  0.00    -0.113 S  
HETATM   24  O   UNL     1      -6.844  10.498  70.248  1.00  0.00    -0.182 OA 
HETATM   25  O   UNL     1      -7.373  10.426  67.767  1.00  0.00    -0.086 OA 
HETATM   26  N   UNL     1      -9.229  10.531  69.448  1.00  0.00    -0.364 N  
HETATM   27  H1  UNL     1      -9.192   9.512  69.466  1.00  0.00     0.000 HD 
HETATM   28  H2  UNL     1     -10.022  11.155  69.595  1.00  0.00     0.000 HD 
ENDBRANCH  20  23
ENDBRANCH  15  17
ENDBRANCH   5   8
TORSDOF 3
ENDMDL
MODEL      118
REMARK 921   NORMALIZED FREE ENERGY PREDICTED BY IDOCK:   -2.13 KCAL/MOL
REMARK 922        TOTAL FREE ENERGY PREDICTED BY IDOCK:   -3.17 KCAL/MOL
REMARK 923 INTER-LIGAND FREE ENERGY PREDICTED BY IDOCK:   -2.52 KCAL/MOL
REMARK 924 INTRA-LIGAND FREE ENERGY PREDICTED BY IDOCK:   -0.66 KCAL/MOL
REMARK 927      BINDING AFFINITY PREDICTED BY RF-SCORE:    0.00 PKD
ROOT
HETATM    1  C   UNL     1      -6.906  17.126  67.870  1.00  0.00    -0.165 C  
HETATM    2  C   UNL     1      -7.147  15.694  68.246  1.00  0.00    -0.116 A  
HETATM    3  C   UNL     1      -7.291  15.323  69.583  1.00  0.00    -0.188 A  
HETATM    4  C   UNL     1      -7.320  13.973  69.946  1.00  0.00     0.423 A  
HETATM    5  C   UNL     1      -7.211  12.964  68.979  1.00  0.00     0.017 A  
HETATM    6  C   UNL     1      -7.141  14.695  67.268  1.00  0.00    -0.030 A  
HETATM    7  C   UNL     1      -7.221  13.347  67.630  1.00  0.00    -0.167 A  
ENDROOT
BRANCH   5   8
HETATM    8  C   UNL     1      -7.053  11.560  69.404  1.00  0.00    -0.037 A  
HETATM    9  C   UNL     1      -6.475  11.090  70.573  1.00  0.00     0.121 A  
HETATM   10  C   UNL     1      -6.602   9.684  70.558  1.00  0.00    -0.107 A  
HETATM   11  N   UNL     1      -7.287   9.289  69.473  1.00  0.00    -0.067 NA 
HETATM   12  C   UNL     1      -6.078   8.722  71.590  1.00  0.00    -0.062 C  
HETATM   13  F   UNL     1      -5.440   9.375  72.604  1.00  0.00    -0.076 F  
HETATM   14  F   UNL     1      -7.060   7.982  72.168  1.00  0.00    -0.058 F  
HETATM   15  N   UNL     1      -7.413  10.402  68.698  1.00  0.00    -0.084 NA 
HETATM   16  F   UNL     1      -5.172   7.852  71.071  1.00  0.00    -0.026 F  
BRANCH  15  17
HETATM   17  C   UNL     1      -7.854  10.235  67.349  1.00  0.00    -0.102 A  
HETATM   18  C   UNL     1      -9.156  10.634  67.000  1.00  0.00    -0.155 A  
HETATM   19  C   UNL     1      -9.576  10.585  65.666  1.00  0.00    -0.278 A  
HETATM   20  C   UNL     1      -8.695  10.125  64.685  1.00  0.00    -0.189 A  
HETATM   21  C   UNL     1      -7.433   9.639  65.033  1.00  0.00    -0.116 A  
HETATM   22  C   UNL     1      -7.022   9.679  66.368  1.00  0.00    -0.088 A  
BRANCH  20  23
HETATM   23  S   UNL     1      -9.181  10.132  62.978  1.00  0.00    -0.296 S  
HETATM   24  O   UNL     1     -10.531  10.636  62.897  1.00  0.00     0.037 OA 
HETATM   25  O   UNL     1      -8.772   8.881  62.380  1.00  0.00    -0.222 OA 
HETATM   26  N   UNL     1      -8.167  11.313  62.363  1.00  0.00    -0.486 N  
HETATM   27  H1  UNL     1      -8.447  11.317  61.382  1.00  0.00     0.000 HD 
HETATM   28  H2  UNL     1      -7.462  11.875  62.839  1.00  0.00     0.000 HD 
ENDBRANCH  20  23
ENDBRANCH  15  17
ENDBRANCH   5   8
TORSDOF 3
ENDMDL
MODEL      119
REMARK 921   NORMALIZED FREE ENERGY PREDICTED BY IDOCK:   -1.45 KCAL/MOL
REMARK 922        TOTAL FREE ENERGY PREDICTED BY IDOCK:   -2.37 KCAL/MOL
REMARK 923 INTER-LIGAND FREE ENERGY PREDICTED BY IDOCK:   -1.81 KCAL/MOL
REMARK 924 INTRA-LIGAND FREE ENERGY PREDICTED BY IDOCK:   -0.56 KCAL/MOL
REMARK 927      BINDING AFFINITY PREDICTED BY RF-SCORE:    0.00 PKD
ROOT
HETATM    1  C   UNL     1     -13.095  13.717  63.734  1.00  0.00     1.174 C  
HETATM    2  C   UNL     1     -12.167  13.177  64.780  1.00  0.00    -0.477 A  
HETATM    3  C   UNL     1     -12.060  13.797  66.026  1.00  0.00    -0.470 A  
HETATM    4  C   UNL     1     -11.060  13.415  66.925  1.00  0.00    -0.309 A  
HETATM    5  C   UNL     1     -10.147  12.401  66.602  1.00  0.00    -0.234 A  
HETATM    6  C   UNL     1     -11.327  12.097  64.493  1.00  0.00    -0.393 A  
HETATM    7  C   UNL     1     -10.360  11.685  65.416  1.00  0.00    -0.313 A  
ENDROOT
BRANCH   5   8
HETATM    8  C   UNL     1      -8.992  12.150  67.484  1.00  0.00    -0.177 A  
HETATM    9  C   UNL     1      -8.453  13.003  68.435  1.00  0.00    -0.118 A  
HETATM   10  C   UNL     1      -7.395  12.306  69.059  1.00  0.00     0.017 A  
HETATM   11  N   UNL     1      -7.315  11.054  68.580  1.00  0.00    -0.096 NA 
HETATM   12  C   UNL     1      -6.472  12.838  70.122  1.00  0.00     0.180 C  
HETATM   13  F   UNL     1      -6.776  14.126  70.452  1.00  0.00    -0.124 F  
HETATM   14  F   UNL     1      -6.531  12.122  71.276  1.00  0.00     0.738 F  
HETATM   15  N   UNL     1      -8.167  11.016  67.518  1.00  0.00    -0.116 NA 
HETATM   16  F   UNL     1      -5.174  12.846  69.721  1.00  0.00    -0.075 F  
BRANCH  15  17
HETATM   17  C   UNL     1      -8.089   9.895  66.635  1.00  0.00    -0.117 A  
HETATM   18  C   UNL     1      -7.446  10.045  65.394  1.00  0.00    -0.139 A  
HETATM   19  C   UNL     1      -7.257   8.938  64.558  1.00  0.00    -0.097 A  
HETATM   20  C   UNL     1      -7.725   7.685  64.962  1.00  0.00    -0.109 A  
HETATM   21  C   UNL     1      -8.447   7.544  66.149  1.00  0.00    -0.147 A  
HETATM   22  C   UNL     1      -8.642   8.653  66.974  1.00  0.00    -0.120 A  
BRANCH  20  23
HETATM   23  S   UNL     1      -7.424   6.257  63.953  1.00  0.00    -0.086 S  
HETATM   24  O   UNL     1      -7.151   6.705  62.609  1.00  0.00    -0.045 OA 
HETATM   25  O   UNL     1      -8.424   5.259  64.261  1.00  0.00    -0.136 OA 
HETATM   26  N   UNL     1      -5.982   5.707  64.602  1.00  0.00    -0.021 N  
HETATM   27  H1  UNL     1      -5.809   4.886  64.022  1.00  0.00     0.000 HD 
HETATM   28  H2  UNL     1      -5.428   6.089  65.368  1.00  0.00     0.000 HD 
ENDBRANCH  20  23
ENDBRANCH  15  17
ENDBRANCH   5   8
TORSDOF 3
ENDMDL
MODEL      120
REMARK 921   NORMALIZED FREE ENERGY PREDICTED BY IDOCK:   -0.77 KCAL/MOL
REMARK 922        TOTAL FREE ENERGY PREDICTED BY IDOCK:   -1.57 KCAL/MOL
REMARK 923 INTER-LIGAND FREE ENERGY PREDICTED BY IDOCK:   -0.53 KCAL/MOL
REMARK 924 INTRA-LIGAND FREE ENERGY PREDICTED BY IDOCK:   -1.04 KCAL/MOL
REMARK 927      BINDING AFFINITY PREDICTED BY RF-SCORE:    0.00 PKD
ROOT
HETATM    1  C   UNL     1     -12.002   5.316  65.660  1.00  0.00     2.518 C  
HETATM    2  C   UNL     1     -10.948   5.636  66.678  1.00  0.00    -0.173 A  
HETATM    3  C   UNL     1      -9.884   4.761  66.901  1.00  0.00    -0.225 A  
HETATM    4  C   UNL     1      -9.015   4.961  67.978  1.00  0.00    -0.121 A  
HETATM    5  C   UNL     1      -9.185   6.044  68.852  1.00  0.00    -0.125 A  
HETATM    6  C   UNL     1     -11.063   6.773  67.483  1.00  0.00    -0.340 A  
HETATM    7  C   UNL     1     -10.161   6.997  68.528  1.00  0.00    -0.171 A  
ENDROOT
BRANCH   5   8
HETATM    8  C   UNL     1      -8.376   6.123  70.082  1.00  0.00    -0.128 A  
HETATM    9  C   UNL     1      -8.414   5.272  71.176  1.00  0.00    -0.123 A  
HETATM   10  C   UNL     1      -7.424   5.718  72.079  1.00  0.00    -0.096 A  
HETATM   11  N   UNL     1      -6.746   6.752  71.554  1.00  0.00    -0.060 NA 
HETATM   12  C   UNL     1      -7.122   5.146  73.437  1.00  0.00    -0.078 C  
HETATM   13  F   UNL     1      -7.934   4.089  73.728  1.00  0.00    -0.082 F  
HETATM   14  F   UNL     1      -5.846   4.691  73.545  1.00  0.00    -0.014 F  
HETATM   15  N   UNL     1      -7.428   7.098  70.426  1.00  0.00    -0.083 NA 
HETATM   16  F   UNL     1      -7.310   6.053  74.432  1.00  0.00    -0.086 F  
BRANCH  15  17
HETATM   17  C   UNL     1      -7.105   8.343  69.802  1.00  0.00    -0.051 A  
HETATM   18  C   UNL     1      -6.207   8.354  68.721  1.00  0.00    -0.045 A  
HETATM   19  C   UNL     1      -5.959   9.540  68.021  1.00  0.00    -0.048 A  
HETATM   20  C   UNL     1      -6.602  10.716  68.413  1.00  0.00    -0.055 A  
HETATM   21  C   UNL     1      -7.423  10.735  69.542  1.00  0.00    -0.113 A  
HETATM   22  C   UNL     1      -7.659   9.551  70.245  1.00  0.00    -0.162 A  
BRANCH  20  23
HETATM   23  S   UNL     1      -6.363  12.211  67.488  1.00  0.00    -0.144 S  
HETATM   24  O   UNL     1      -7.643  12.860  67.341  1.00  0.00    -0.157 OA 
HETATM   25  O   UNL     1      -5.494  11.924  66.369  1.00  0.00    -0.306 OA 
HETATM   26  N   UNL     1      -5.464  13.116  68.573  1.00  0.00    -0.064 N  
HETATM   27  H1  UNL     1      -5.326  13.975  68.041  1.00  0.00     0.000 HD 
HETATM   28  H2  UNL     1      -5.142  12.873  69.509  1.00  0.00     0.000 HD 
ENDBRANCH  20  23
ENDBRANCH  15  17
ENDBRANCH   5   8
TORSDOF 3
ENDMDL
MODEL      121
REMARK 921   NORMALIZED FREE ENERGY PREDICTED BY IDOCK:    0.09 KCAL/MOL
REMARK 922        TOTAL FREE ENERGY PREDICTED BY IDOCK:   -0.56 KCAL/MOL
REMARK 923 INTER-LIGAND FREE ENERGY PREDICTED BY IDOCK:   -0.20 KCAL/MOL
REMARK 924 INTRA-LIGAND FREE ENERGY PREDICTED BY IDOCK:   -0.36 KCAL/MOL
REMARK 927      BINDING AFFINITY PREDICTED BY RF-SCORE:    0.00 PKD
ROOT
HETATM    1  C   UNL     1      -9.368  15.688  71.224  1.00  0.00     3.114 C  
HETATM    2  C   UNL     1      -9.630  14.627  70.196  1.00  0.00     0.757 A  
HETATM    3  C   UNL     1      -8.664  14.307  69.241  1.00  0.00     0.271 A  
HETATM    4  C   UNL     1      -8.978  13.465  68.170  1.00  0.00    -0.188 A  
HETATM    5  C   UNL     1     -10.262  12.918  68.033  1.00  0.00    -0.229 A  
HETATM    6  C   UNL     1     -10.880  14.006  70.123  1.00  0.00     0.363 A  
HETATM    7  C   UNL     1     -11.174  13.124  69.078  1.00  0.00    -0.309 A  
ENDROOT
BRANCH   5   8
HETATM    8  C   UNL     1     -10.619  12.192  66.800  1.00  0.00    -0.226 A  
HETATM    9  C   UNL     1     -10.942  12.731  65.565  1.00  0.00    -0.310 A  
HETATM   10  C   UNL     1     -11.156  11.646  64.686  1.00  0.00    -0.278 A  
HETATM   11  N   UNL     1     -10.910  10.484  65.311  1.00  0.00     0.054 NA 
HETATM   12  C   UNL     1     -11.583  11.726  63.245  1.00  0.00    -0.228 C  
HETATM   13  F   UNL     1     -11.745  13.019  62.842  1.00  0.00    -0.499 F  
HETATM   14  F   UNL     1     -10.679  11.170  62.396  1.00  0.00     0.164 F  
HETATM   15  N   UNL     1     -10.748  10.806  66.625  1.00  0.00    -0.236 NA 
HETATM   16  F   UNL     1     -12.774  11.109  63.025  1.00  0.00    -0.261 F  
BRANCH  15  17
HETATM   17  C   UNL     1     -10.749   9.744  67.582  1.00  0.00    -0.274 A  
HETATM   18  C   UNL     1     -10.766   8.413  67.128  1.00  0.00    -0.222 A  
HETATM   19  C   UNL     1     -10.655   7.356  68.037  1.00  0.00    -0.235 A  
HETATM   20  C   UNL     1     -10.540   7.632  69.402  1.00  0.00    -0.215 A  
HETATM   21  C   UNL     1     -10.617   8.945  69.871  1.00  0.00    -0.229 A  
HETATM   22  C   UNL     1     -10.739   9.997  68.960  1.00  0.00    -0.244 A  
BRANCH  20  23
HETATM   23  S   UNL     1     -10.318   6.308  70.561  1.00  0.00    -0.215 S  
HETATM   24  O   UNL     1     -10.846   5.101  69.973  1.00  0.00    -0.169 OA 
HETATM   25  O   UNL     1     -10.705   6.777  71.873  1.00  0.00    -0.219 OA 
HETATM   26  N   UNL     1      -8.650   6.172  70.574  1.00  0.00    -0.136 N  
HETATM   27  H1  UNL     1      -8.522   5.411  71.240  1.00  0.00     0.000 HD 
HETATM   28  H2  UNL     1      -7.952   6.705  70.056  1.00  0.00     0.000 HD 
ENDBRANCH  20  23
ENDBRANCH  15  17
ENDBRANCH   5   8
TORSDOF 3
ENDMDL
MODEL      122
REMARK 921   NORMALIZED FREE ENERGY PREDICTED BY IDOCK:    0.58 KCAL/MOL
REMARK 922        TOTAL FREE ENERGY PREDICTED BY IDOCK:    0.01 KCAL/MOL
REMARK 923 INTER-LIGAND FREE ENERGY PREDICTED BY IDOCK:    0.91 KCAL/MOL
REMARK 924 INTRA-LIGAND FREE ENERGY PREDICTED BY IDOCK:   -0.90 KCAL/MOL
REMARK 927      BINDING AFFINITY PREDICTED BY RF-SCORE:    0.00 PKD
ROOT
HETATM    1  C   UNL     1     -11.401  16.527  70.713  1.00  0.00    -0.064 C  
HETATM    2  C   UNL     1     -11.322  15.074  70.351  1.00  0.00    -0.309 A  
HETATM    3  C   UNL     1     -12.481  14.344  70.081  1.00  0.00    -0.395 A  
HETATM    4  C   UNL     1     -12.425  12.954  69.936  1.00  0.00    -0.034 A  
HETATM    5  C   UNL     1     -11.210  12.264  70.051  1.00  0.00     0.167 A  
HETATM    6  C   UNL     1     -10.094  14.406  70.365  1.00  0.00     1.148 A  
HETATM    7  C   UNL     1     -10.036  13.022  70.170  1.00  0.00     2.667 A  
ENDROOT
BRANCH   5   8
HETATM    8  C   UNL     1     -11.208  10.789  70.085  1.00  0.00    -0.267 A  
HETATM    9  C   UNL     1     -11.189   9.969  71.201  1.00  0.00    -0.339 A  
HETATM   10  C   UNL     1     -11.249   8.637  70.735  1.00  0.00    -0.261 A  
HETATM   11  N   UNL     1     -11.372   8.617  69.397  1.00  0.00     0.218 NA 
HETATM   12  C   UNL     1     -11.201   7.388  71.571  1.00  0.00    -0.243 C  
HETATM   13  F   UNL     1     -11.097   7.678  72.900  1.00  0.00    -0.325 F  
HETATM   14  F   UNL     1     -12.311   6.617  71.432  1.00  0.00    -0.366 F  
HETATM   15  N   UNL     1     -11.181   9.905  68.996  1.00  0.00    -0.142 NA 
HETATM   16  F   UNL     1     -10.130   6.606  71.269  1.00  0.00    -0.191 F  
BRANCH  15  17
HETATM   17  C   UNL     1     -10.977  10.151  67.603  1.00  0.00    -0.268 A  
HETATM   18  C   UNL     1     -11.782  11.101  66.950  1.00  0.00     0.309 A  
HETATM   19  C   UNL     1     -11.531  11.441  65.616  1.00  0.00     0.039 A  
HETATM   20  C   UNL     1     -10.482  10.821  64.934  1.00  0.00    -0.254 A  
HETATM   21  C   UNL     1      -9.737   9.810  65.544  1.00  0.00    -0.382 A  
HETATM   22  C   UNL     1      -9.998   9.465  66.872  1.00  0.00    -0.293 A  
BRANCH  20  23
HETATM   23  S   UNL     1     -10.099  11.299  63.269  1.00  0.00    -0.377 S  
HETATM   24  O   UNL     1     -11.329  11.337  62.517  1.00  0.00     0.824 OA 
HETATM   25  O   UNL     1      -8.936  10.557  62.835  1.00  0.00    -0.201 OA 
HETATM   26  N   UNL     1      -9.601  12.880  63.498  1.00  0.00     0.244 N  
HETATM   27  H1  UNL     1      -9.381  13.154  62.541  1.00  0.00     0.000 HD 
HETATM   28  H2  UNL     1      -9.536  13.421  64.360  1.00  0.00     0.000 HD 
ENDBRANCH  20  23
ENDBRANCH  15  17
ENDBRANCH   5   8
TORSDOF 3
ENDMDL
MODEL      123
REMARK 921   NORMALIZED FREE ENERGY PREDICTED BY IDOCK:    5.56 KCAL/MOL
REMARK 922        TOTAL FREE ENERGY PREDICTED BY IDOCK:    5.86 KCAL/MOL
REMARK 923 INTER-LIGAND FREE ENERGY PREDICTED BY IDOCK:    5.31 KCAL/MOL
REMARK 924 INTRA-LIGAND FREE ENERGY PREDICTED BY IDOCK:    0.56 KCAL/MOL
REMARK 927      BINDING AFFINITY PREDICTED BY RF-SCORE:    0.00 PKD
ROOT
HETATM    1  C   UNL     1      -5.282  11.810  64.195  1.00  0.00     2.539 C  
HETATM    2  C   UNL     1      -6.472  11.609  65.086  1.00  0.00     2.085 A  
HETATM    3  C   UNL     1      -6.773  12.530  66.091  1.00  0.00     2.195 A  
HETATM    4  C   UNL     1      -7.759  12.245  67.040  1.00  0.00    -0.089 A  
HETATM    5  C   UNL     1      -8.471  11.038  67.003  1.00  0.00    -0.141 A  
HETATM    6  C   UNL     1      -7.247  10.450  64.981  1.00  0.00    -0.062 A  
HETATM    7  C   UNL     1      -8.267  10.193  65.903  1.00  0.00    -0.138 A  
ENDROOT
BRANCH   5   8
HETATM    8  C   UNL     1      -9.365  10.683  68.121  1.00  0.00    -0.151 A  
HETATM    9  C   UNL     1      -9.699   9.414  68.566  1.00  0.00    -0.160 A  
HETATM   10  C   UNL     1     -10.539   9.579  69.690  1.00  0.00    -0.228 A  
HETATM   11  N   UNL     1     -10.672  10.883  69.984  1.00  0.00    -0.098 NA 
HETATM   12  C   UNL     1     -11.203   8.488  70.486  1.00  0.00    -0.242 C  
HETATM   13  F   UNL     1     -10.892   7.253  69.999  1.00  0.00    -0.233 F  
HETATM   14  F   UNL     1     -10.832   8.490  71.793  1.00  0.00    -0.282 F  
HETATM   15  N   UNL     1     -10.101  11.550  68.943  1.00  0.00    -0.172 NA 
HETATM   16  F   UNL     1     -12.558   8.578  70.453  1.00  0.00     0.098 F  
BRANCH  15  17
HETATM   17  C   UNL     1     -10.335  12.957  68.837  1.00  0.00    -0.036 A  
HETATM   18  C   UNL     1     -10.970  13.626  69.898  1.00  0.00     0.211 A  
HETATM   19  C   UNL     1     -11.111  15.018  69.870  1.00  0.00    -0.298 A  
HETATM   20  C   UNL     1     -10.627  15.736  68.774  1.00  0.00    -0.239 A  
HETATM   21  C   UNL     1     -10.080  15.072  67.674  1.00  0.00    -0.231 A  
HETATM   22  C   UNL     1      -9.951  13.681  67.701  1.00  0.00    -0.239 A  
BRANCH  20  23
HETATM   23  S   UNL     1     -10.725  17.507  68.758  1.00  0.00    -0.006 S  
HETATM   24  O   UNL     1     -11.110  17.949  70.076  1.00  0.00     1.185 OA 
HETATM   25  O   UNL     1     -11.420  17.917  67.557  1.00  0.00     0.327 OA 
HETATM   26  N   UNL     1      -9.116  17.914  68.542  1.00  0.00    -0.287 N  
HETATM   27  H1  UNL     1      -9.173  18.932  68.533  1.00  0.00     0.000 HD 
HETATM   28  H2  UNL     1      -8.301  17.308  68.446  1.00  0.00     0.000 HD 
ENDBRANCH  20  23
ENDBRANCH  15  17
ENDBRANCH   5   8
TORSDOF 3
ENDMDL
MODEL      124
REMARK 921   NORMALIZED FREE ENERGY PREDICTED BY IDOCK:    5.68 KCAL/MOL
REMARK 922        TOTAL FREE ENERGY PREDICTED BY IDOCK:    6.01 KCAL/MOL
REMARK 923 INTER-LIGAND FREE ENERGY PREDICTED BY IDOCK:    6.23 KCAL/MOL
REMARK 924 INTRA-LIGAND FREE ENERGY PREDICTED BY IDOCK:   -0.22 KCAL/MOL
REMARK 927      BINDING AFFINITY PREDICTED BY RF-SCORE:    0.00 PKD
ROOT
HETATM    1  C   UNL     1      -9.466  15.033  71.286  1.00  0.00     2.694 C  
HETATM    2  C   UNL     1      -9.244  14.009  70.213  1.00  0.00     2.540 A  
HETATM    3  C   UNL     1      -8.015  13.918  69.559  1.00  0.00     0.572 A  
HETATM    4  C   UNL     1      -7.869  13.102  68.433  1.00  0.00    -0.135 A  
HETATM    5  C   UNL     1      -8.947  12.353  67.940  1.00  0.00    -0.184 A  
HETATM    6  C   UNL     1     -10.294  13.188  69.790  1.00  0.00     1.068 A  
HETATM    7  C   UNL     1     -10.129  12.334  68.694  1.00  0.00    -0.153 A  
ENDROOT
BRANCH   5   8
HETATM    8  C   UNL     1      -8.819  11.653  66.648  1.00  0.00    -0.187 A  
HETATM    9  C   UNL     1      -8.764  12.217  65.383  1.00  0.00     0.691 A  
HETATM   10  C   UNL     1      -8.588  11.156  64.467  1.00  0.00     0.240 A  
HETATM   11  N   UNL     1      -8.466   9.990  65.122  1.00  0.00    -0.145 NA 
HETATM   12  C   UNL     1      -8.524  11.264  62.968  1.00  0.00     0.145 C  
HETATM   13  F   UNL     1      -8.650  12.557  62.552  1.00  0.00     1.313 F  
HETATM   14  F   UNL     1      -7.350  10.809  62.456  1.00  0.00    -0.146 F  
HETATM   15  N   UNL     1      -8.770  10.270  66.420  1.00  0.00    -0.133 NA 
HETATM   16  F   UNL     1      -9.522  10.571  62.358  1.00  0.00    -0.255 F  
BRANCH  15  17
HETATM   17  C   UNL     1      -8.998   9.172  67.308  1.00  0.00    -0.123 A  
HETATM   18  C   UNL     1      -9.087   9.416  68.690  1.00  0.00    -0.132 A  
HETATM   19  C   UNL     1      -9.420   8.380  69.569  1.00  0.00    -0.166 A  
HETATM   20  C   UNL     1      -9.650   7.098  69.065  1.00  0.00    -0.146 A  
HETATM   21  C   UNL     1      -9.473   6.825  67.707  1.00  0.00    -0.121 A  
HETATM   22  C   UNL     1      -9.130   7.861  66.834  1.00  0.00    -0.172 A  
BRANCH  20  23
HETATM   23  S   UNL     1     -10.151   5.791  70.155  1.00  0.00    -0.231 S  
HETATM   24  O   UNL     1      -9.360   5.880  71.358  1.00  0.00    -0.149 OA 
HETATM   25  O   UNL     1     -10.275   4.574  69.385  1.00  0.00    -0.148 OA 
HETATM   26  N   UNL     1     -11.706   6.276  70.540  1.00  0.00    -0.305 N  
HETATM   27  H1  UNL     1     -11.994   5.525  71.167  1.00  0.00     0.000 HD 
HETATM   28  H2  UNL     1     -12.224   7.098  70.232  1.00  0.00     0.000 HD 
ENDBRANCH  20  23
ENDBRANCH  15  17
ENDBRANCH   5   8
TORSDOF 3
ENDMDL
MODEL      125
REMARK 921   NORMALIZED FREE ENERGY PREDICTED BY IDOCK:    7.53 KCAL/MOL
REMARK 922        TOTAL FREE ENERGY PREDICTED BY IDOCK:    8.18 KCAL/MOL
REMARK 923 INTER-LIGAND FREE ENERGY PREDICTED BY IDOCK:    8.07 KCAL/MOL
REMARK 924 INTRA-LIGAND FREE ENERGY PREDICTED BY IDOCK:    0.11 KCAL/MOL
REMARK 927      BINDING AFFINITY PREDICTED BY RF-SCORE:    0.00 PKD
ROOT
HETATM    1  C   UNL     1     -12.443  20.269  65.621  1.00  0.00     5.740 C  
HETATM    2  C   UNL     1     -11.664  18.992  65.728  1.00  0.00     2.604 A  
HETATM    3  C   UNL     1     -11.561  18.127  64.638  1.00  0.00     3.686 A  
HETATM    4  C   UNL     1     -11.005  16.853  64.794  1.00  0.00     0.079 A  
HETATM    5  C   UNL     1     -10.533  16.419  66.041  1.00  0.00    -0.333 A  
HETATM    6  C   UNL     1     -11.104  18.605  66.949  1.00  0.00     0.110 A  
HETATM    7  C   UNL     1     -10.503  17.350  67.088  1.00  0.00    -0.305 A  
ENDROOT
BRANCH   5   8
HETATM    8  C   UNL     1     -10.129  15.011  66.218  1.00  0.00    -0.282 A  
HETATM    9  C   UNL     1      -9.681  14.131  65.246  1.00  0.00    -0.060 A  
HETATM   10  C   UNL     1      -9.367  12.920  65.901  1.00  0.00     0.043 A  
HETATM   11  N   UNL     1      -9.538  13.049  67.227  1.00  0.00    -0.218 NA 
HETATM   12  C   UNL     1      -8.891  11.646  65.256  1.00  0.00     0.237 C  
HETATM   13  F   UNL     1      -8.777  11.780  63.904  1.00  0.00     0.242 F  
HETATM   14  F   UNL     1      -7.672  11.251  65.707  1.00  0.00    -0.088 F  
HETATM   15  N   UNL     1     -10.153  14.252  67.398  1.00  0.00    -0.245 NA 
HETATM   16  F   UNL     1      -9.750  10.612  65.463  1.00  0.00    -0.223 F  
BRANCH  15  17
HETATM   17  C   UNL     1     -10.715  14.543  68.680  1.00  0.00    -0.253 A  
HETATM   18  C   UNL     1     -10.323  15.716  69.349  1.00  0.00    -0.260 A  
HETATM   19  C   UNL     1     -10.939  16.081  70.551  1.00  0.00    -0.322 A  
HETATM   20  C   UNL     1     -11.937  15.265  71.088  1.00  0.00    -0.345 A  
HETATM   21  C   UNL     1     -12.266  14.051  70.481  1.00  0.00    -0.435 A  
HETATM   22  C   UNL     1     -11.641  13.685  69.287  1.00  0.00    -0.363 A  
BRANCH  20  23
HETATM   23  S   UNL     1     -12.784  15.753  72.569  1.00  0.00    -0.473 S  
HETATM   24  O   UNL     1     -12.108  16.904  73.116  1.00  0.00    -0.296 OA 
HETATM   25  O   UNL     1     -13.070  14.567  73.346  1.00  0.00    -0.587 OA 
HETATM   26  N   UNL     1     -14.244  16.279  71.942  1.00  0.00     0.417 N  
HETATM   27  H1  UNL     1     -14.730  16.559  72.793  1.00  0.00     0.000 HD 
HETATM   28  H2  UNL     1     -14.560  16.310  70.973  1.00  0.00     0.000 HD 
ENDBRANCH  20  23
ENDBRANCH  15  17
ENDBRANCH   5   8
TORSDOF 3
ENDMDL
MODEL      126
REMARK 921   NORMALIZED FREE ENERGY PREDICTED BY IDOCK:    9.14 KCAL/MOL
REMARK 922        TOTAL FREE ENERGY PREDICTED BY IDOCK:   10.08 KCAL/MOL
REMARK 923 INTER-LIGAND FREE ENERGY PREDICTED BY IDOCK:   10.68 KCAL/MOL
REMARK 924 INTRA-LIGAND FREE ENERGY PREDICTED BY IDOCK:   -0.60 KCAL/MOL
REMARK 927      BINDING AFFINITY PREDICTED BY RF-SCORE:    0.00 PKD
ROOT
HETATM    1  C   UNL     1     -13.035  20.882  69.306  1.00  0.00     7.101 C  
HETATM    2  C   UNL     1     -11.795  20.455  68.578  1.00  0.00     3.352 A  
HETATM    3  C   UNL     1     -10.536  20.881  69.005  1.00  0.00     0.706 A  
HETATM    4  C   UNL     1      -9.404  20.647  68.219  1.00  0.00     0.172 A  
HETATM    5  C   UNL     1      -9.503  19.977  66.991  1.00  0.00    -0.523 A  
HETATM    6  C   UNL     1     -11.887  19.698  67.406  1.00  0.00     1.653 A  
HETATM    7  C   UNL     1     -10.744  19.422  66.648  1.00  0.00    -0.529 A  
ENDROOT
BRANCH   5   8
HETATM    8  C   UNL     1      -8.331  19.912  66.098  1.00  0.00    -0.317 A  
HETATM    9  C   UNL     1      -8.175  20.519  64.862  1.00  0.00     1.314 A  
HETATM   10  C   UNL     1      -6.871  20.213  64.414  1.00  0.00     0.217 A  
HETATM   11  N   UNL     1      -6.211  19.510  65.349  1.00  0.00    -0.223 NA 
HETATM   12  C   UNL     1      -6.257  20.605  63.098  1.00  0.00    -0.102 C  
HETATM   13  F   UNL     1      -7.123  21.334  62.338  1.00  0.00    -0.103 F  
HETATM   14  F   UNL     1      -5.140  21.366  63.244  1.00  0.00    -0.215 F  
HETATM   15  N   UNL     1      -7.144  19.189  66.289  1.00  0.00    -0.228 NA 
HETATM   16  F   UNL     1      -5.911  19.525  62.349  1.00  0.00    -0.330 F  
BRANCH  15  17
HETATM   17  C   UNL     1      -6.800  18.206  67.267  1.00  0.00    -0.191 A  
HETATM   18  C   UNL     1      -7.825  17.582  68.001  1.00  0.00    -0.225 A  
HETATM   19  C   UNL     1      -7.527  16.539  68.884  1.00  0.00    -0.225 A  
HETATM   20  C   UNL     1      -6.201  16.130  69.041  1.00  0.00    -0.139 A  
HETATM   21  C   UNL     1      -5.166  16.804  68.389  1.00  0.00    -0.117 A  
HETATM   22  C   UNL     1      -5.468  17.852  67.516  1.00  0.00    -0.147 A  
BRANCH  20  23
HETATM   23  S   UNL     1      -5.813  14.756  70.095  1.00  0.00    -0.148 S  
HETATM   24  O   UNL     1      -5.195  15.268  71.294  1.00  0.00    -0.143 OA 
HETATM   25  O   UNL     1      -5.219  13.713  69.289  1.00  0.00    -0.077 OA 
HETATM   26  N   UNL     1      -7.348  14.228  70.507  1.00  0.00     0.146 N  
HETATM   27  H1  UNL     1      -7.124  13.439  71.113  1.00  0.00     0.000 HD 
HETATM   28  H2  UNL     1      -8.257  14.596  70.228  1.00  0.00     0.000 HD 
ENDBRANCH  20  23
ENDBRANCH  15  17
ENDBRANCH   5   8
TORSDOF 3
ENDMDL
MODEL      127
REMARK 921   NORMALIZED FREE ENERGY PREDICTED BY IDOCK:   10.00 KCAL/MOL
REMARK 922        TOTAL FREE ENERGY PREDICTED BY IDOCK:   11.09 KCAL/MOL
REMARK 923 INTER-LIGAND FREE ENERGY PREDICTED BY IDOCK:   11.38 KCAL/MOL
REMARK 924 INTRA-LIGAND FREE ENERGY PREDICTED BY IDOCK:   -0.28 KCAL/MOL
REMARK 927      BINDING AFFINITY PREDICTED BY RF-SCORE:    0.00 PKD
ROOT
HETATM    1  C   UNL     1     -12.784  20.517  65.439  1.00  0.00     7.555 C  
HETATM    2  C   UNL     1     -11.765  19.455  65.728  1.00  0.00     2.162 A  
HETATM    3  C   UNL     1     -11.449  18.492  64.768  1.00  0.00     3.256 A  
HETATM    4  C   UNL     1     -10.650  17.394  65.102  1.00  0.00     0.188 A  
HETATM    5  C   UNL     1     -10.144  17.237  66.400  1.00  0.00    -0.321 A  
HETATM    6  C   UNL     1     -11.182  19.359  66.995  1.00  0.00    -0.051 A  
HETATM    7  C   UNL     1     -10.342  18.285  67.310  1.00  0.00    -0.407 A  
ENDROOT
BRANCH   5   8
HETATM    8  C   UNL     1      -9.468  15.980  66.773  1.00  0.00    -0.231 A  
HETATM    9  C   UNL     1      -9.816  14.691  66.402  1.00  0.00    -0.302 A  
HETATM   10  C   UNL     1      -8.846  13.827  66.957  1.00  0.00    -0.218 A  
HETATM   11  N   UNL     1      -7.894  14.538  67.585  1.00  0.00    -0.164 NA 
HETATM   12  C   UNL     1      -8.825  12.325  66.874  1.00  0.00    -0.207 C  
HETATM   13  F   UNL     1      -9.888  11.848  66.165  1.00  0.00    -0.218 F  
HETATM   14  F   UNL     1      -7.710  11.846  66.264  1.00  0.00    -0.043 F  
HETATM   15  N   UNL     1      -8.357  15.819  67.615  1.00  0.00    -0.153 NA 
HETATM   16  F   UNL     1      -8.895  11.740  68.100  1.00  0.00    -0.143 F  
BRANCH  15  17
HETATM   17  C   UNL     1      -7.690  16.754  68.464  1.00  0.00    -0.223 A  
HETATM   18  C   UNL     1      -7.311  18.004  67.942  1.00  0.00    -0.224 A  
HETATM   19  C   UNL     1      -6.758  18.979  68.778  1.00  0.00    -0.316 A  
HETATM   20  C   UNL     1      -6.573  18.699  70.134  1.00  0.00     0.272 A  
HETATM   21  C   UNL     1      -6.859  17.430  70.643  1.00  0.00     2.170 A  
HETATM   22  C   UNL     1      -7.401  16.455  69.802  1.00  0.00     0.286 A  
BRANCH  20  23
HETATM   23  S   UNL     1      -5.948  19.951  71.225  1.00  0.00    -0.167 S  
HETATM   24  O   UNL     1      -5.482  21.055  70.422  1.00  0.00    -0.561 OA 
HETATM   25  O   UNL     1      -5.132  19.314  72.234  1.00  0.00    -0.678 OA 
HETATM   26  N   UNL     1      -7.356  20.442  71.985  1.00  0.00     0.113 N  
HETATM   27  H1  UNL     1      -6.996  21.162  72.612  1.00  0.00     0.000 HD 
HETATM   28  H2  UNL     1      -8.312  20.111  71.857  1.00  0.00     0.000 HD 
ENDBRANCH  20  23
ENDBRANCH  15  17
ENDBRANCH   5   8
TORSDOF 3
ENDMDL
MODEL      128
REMARK 921   NORMALIZED FREE ENERGY PREDICTED BY IDOCK:   11.14 KCAL/MOL
REMARK 922        TOTAL FREE ENERGY PREDICTED BY IDOCK:   12.43 KCAL/MOL
REMARK 923 INTER-LIGAND FREE ENERGY PREDICTED BY IDOCK:   12.56 KCAL/MOL
REMARK 924 INTRA-LIGAND FREE ENERGY PREDICTED BY IDOCK:   -0.13 KCAL/MOL
REMARK 927      BINDING AFFINITY PREDICTED BY RF-SCORE:    0.00 PKD
ROOT
HETATM    1  C   UNL     1      -9.432  14.999  71.458  1.00  0.00     3.304 C  
HETATM    2  C   UNL     1      -9.019  13.843  70.596  1.00  0.00     4.331 A  
HETATM    3  C   UNL     1      -7.730  13.775  70.065  1.00  0.00     1.260 A  
HETATM    4  C   UNL     1      -7.407  12.807  69.110  1.00  0.00     0.140 A  
HETATM    5  C   UNL     1      -8.362  11.881  68.667  1.00  0.00    -0.058 A  
HETATM    6  C   UNL     1      -9.947  12.861  70.236  1.00  0.00     3.554 A  
HETATM    7  C   UNL     1      -9.604  11.863  69.318  1.00  0.00     0.527 A  
ENDROOT
BRANCH   5   8
HETATM    8  C   UNL     1      -8.051  10.999  67.527  1.00  0.00    -0.117 A  
HETATM    9  C   UNL     1      -7.000  10.103  67.413  1.00  0.00    -0.082 A  
HETATM   10  C   UNL     1      -7.147   9.451  66.169  1.00  0.00    -0.091 A  
HETATM   11  N   UNL     1      -8.271   9.861  65.559  1.00  0.00    -0.131 NA 
HETATM   12  C   UNL     1      -6.217   8.429  65.573  1.00  0.00    -0.045 C  
HETATM   13  F   UNL     1      -5.163   8.169  66.399  1.00  0.00    -0.023 F  
HETATM   14  F   UNL     1      -6.826   7.236  65.340  1.00  0.00    -0.048 F  
HETATM   15  N   UNL     1      -8.725  10.910  66.300  1.00  0.00    -0.165 NA 
HETATM   16  F   UNL     1      -5.682   8.844  64.395  1.00  0.00    -0.060 F  
BRANCH  15  17
HETATM   17  C   UNL     1      -9.754  11.731  65.742  1.00  0.00    -0.237 A  
HETATM   18  C   UNL     1     -10.394  12.678  66.561  1.00  0.00    -0.256 A  
HETATM   19  C   UNL     1     -11.324  13.569  66.015  1.00  0.00    -0.327 A  
HETATM   20  C   UNL     1     -11.622  13.502  64.653  1.00  0.00    -0.368 A  
HETATM   21  C   UNL     1     -11.063  12.505  63.850  1.00  0.00    -0.476 A  
HETATM   22  C   UNL     1     -10.143  11.611  64.402  1.00  0.00    -0.322 A  
BRANCH  20  23
HETATM   23  S   UNL     1     -12.739  14.675  63.928  1.00  0.00     0.917 S  
HETATM   24  O   UNL     1     -13.855  14.848  64.825  1.00  0.00     1.191 OA 
HETATM   25  O   UNL     1     -12.899  14.351  62.528  1.00  0.00     0.985 OA 
HETATM   26  N   UNL     1     -11.819  16.072  63.995  1.00  0.00    -0.844 N  
HETATM   27  H1  UNL     1     -12.462  16.746  63.578  1.00  0.00     0.000 HD 
HETATM   28  H2  UNL     1     -10.875  16.211  64.354  1.00  0.00     0.000 HD 
ENDBRANCH  20  23
ENDBRANCH  15  17
ENDBRANCH   5   8
TORSDOF 3
ENDMDL
MODEL      129
REMARK 921   NORMALIZED FREE ENERGY PREDICTED BY IDOCK:   13.67 KCAL/MOL
REMARK 922        TOTAL FREE ENERGY PREDICTED BY IDOCK:   15.40 KCAL/MOL
REMARK 923 INTER-LIGAND FREE ENERGY PREDICTED BY IDOCK:   16.18 KCAL/MOL
REMARK 924 INTRA-LIGAND FREE ENERGY PREDICTED BY IDOCK:   -0.79 KCAL/MOL
REMARK 927      BINDING AFFINITY PREDICTED BY RF-SCORE:    0.00 PKD
ROOT
HETATM    1  C   UNL     1     -13.668  21.169  69.129  1.00  0.00     6.566 C  
HETATM    2  C   UNL     1     -12.490  20.547  68.441  1.00  0.00     5.257 A  
HETATM    3  C   UNL     1     -11.205  20.683  68.968  1.00  0.00     1.663 A  
HETATM    4  C   UNL     1     -10.090  20.273  68.230  1.00  0.00    -0.386 A  
HETATM    5  C   UNL     1     -10.234  19.714  66.953  1.00  0.00    -0.560 A  
HETATM    6  C   UNL     1     -12.649  19.897  67.214  1.00  0.00     4.108 A  
HETATM    7  C   UNL     1     -11.533  19.443  66.501  1.00  0.00     0.663 A  
ENDROOT
BRANCH   5   8
HETATM    8  C   UNL     1      -9.039  19.469  66.124  1.00  0.00    -0.310 A  
HETATM    9  C   UNL     1      -8.478  20.313  65.179  1.00  0.00     1.051 A  
HETATM   10  C   UNL     1      -7.321  19.670  64.687  1.00  0.00     1.141 A  
HETATM   11  N   UNL     1      -7.120  18.512  65.338  1.00  0.00    -0.535 NA 
HETATM   12  C   UNL     1      -6.404  20.171  63.604  1.00  0.00     0.123 C  
HETATM   13  F   UNL     1      -6.813  21.379  63.120  1.00  0.00    -0.339 F  
HETATM   14  F   UNL     1      -5.126  20.342  64.033  1.00  0.00    -0.175 F  
HETATM   15  N   UNL     1      -8.242  18.315  66.083  1.00  0.00    -0.469 NA 
HETATM   16  F   UNL     1      -6.360  19.331  62.537  1.00  0.00     0.411 F  
BRANCH  15  17
HETATM   17  C   UNL     1      -8.441  17.027  66.670  1.00  0.00    -0.248 A  
HETATM   18  C   UNL     1      -9.725  16.455  66.649  1.00  0.00    -0.272 A  
HETATM   19  C   UNL     1      -9.925  15.151  67.115  1.00  0.00    -0.237 A  
HETATM   20  C   UNL     1      -8.840  14.426  67.614  1.00  0.00    -0.193 A  
HETATM   21  C   UNL     1      -7.580  15.017  67.726  1.00  0.00    -0.175 A  
HETATM   22  C   UNL     1      -7.388  16.323  67.270  1.00  0.00    -0.216 A  
BRANCH  20  23
HETATM   23  S   UNL     1      -9.060  12.744  68.135  1.00  0.00    -0.189 S  
HETATM   24  O   UNL     1     -10.363  12.626  68.742  1.00  0.00    -0.202 OA 
HETATM   25  O   UNL     1      -7.846  12.304  68.787  1.00  0.00    -0.093 OA 
HETATM   26  N   UNL     1      -9.122  11.959  66.658  1.00  0.00    -0.200 N  
HETATM   27  H1  UNL     1      -9.248  10.992  66.957  1.00  0.00     0.000 HD 
HETATM   28  H2  UNL     1      -9.052  12.343  65.716  1.00  0.00     0.000 HD 
ENDBRANCH  20  23
ENDBRANCH  15  17
ENDBRANCH   5   8
TORSDOF 3
ENDMDL
MODEL      130
REMARK 921   NORMALIZED FREE ENERGY PREDICTED BY IDOCK:   15.62 KCAL/MOL
REMARK 922        TOTAL FREE ENERGY PREDICTED BY IDOCK:   17.70 KCAL/MOL
REMARK 923 INTER-LIGAND FREE ENERGY PREDICTED BY IDOCK:   16.16 KCAL/MOL
REMARK 924 INTRA-LIGAND FREE ENERGY PREDICTED BY IDOCK:    1.54 KCAL/MOL
REMARK 927      BINDING AFFINITY PREDICTED BY RF-SCORE:    0.00 PKD
ROOT
HETATM    1  C   UNL     1     -11.443  12.253  69.379  1.00  0.00    -0.341 C  
HETATM    2  C   UNL     1     -11.398  10.839  68.882  1.00  0.00    -0.349 A  
HETATM    3  C   UNL     1     -10.309  10.016  69.173  1.00  0.00    -0.233 A  
HETATM    4  C   UNL     1     -10.175   8.771  68.551  1.00  0.00    -0.220 A  
HETATM    5  C   UNL     1     -11.130   8.317  67.630  1.00  0.00     0.321 A  
HETATM    6  C   UNL     1     -12.405  10.351  68.044  1.00  0.00     2.269 A  
HETATM    7  C   UNL     1     -12.293   9.083  67.464  1.00  0.00     7.004 A  
ENDROOT
BRANCH   5   8
HETATM    8  C   UNL     1     -10.869   7.093  66.851  1.00  0.00    -0.237 A  
HETATM    9  C   UNL     1     -11.566   6.629  65.746  1.00  0.00     4.141 A  
HETATM   10  C   UNL     1     -10.915   5.452  65.313  1.00  0.00     1.163 A  
HETATM   11  N   UNL     1      -9.822   5.223  66.060  1.00  0.00    -0.155 NA 
HETATM   12  C   UNL     1     -11.335   4.557  64.179  1.00  0.00     0.930 C  
HETATM   13  F   UNL     1     -12.462   5.020  63.566  1.00  0.00     2.275 F  
HETATM   14  F   UNL     1     -10.386   4.454  63.211  1.00  0.00    -0.120 F  
HETATM   15  N   UNL     1      -9.889   6.117  67.086  1.00  0.00    -0.132 NA 
HETATM   16  F   UNL     1     -11.622   3.296  64.596  1.00  0.00     0.612 F  
BRANCH  15  17
HETATM   17  C   UNL     1      -9.010   5.930  68.197  1.00  0.00    -0.115 A  
HETATM   18  C   UNL     1      -8.547   7.056  68.901  1.00  0.00    -0.128 A  
HETATM   19  C   UNL     1      -7.777   6.898  70.058  1.00  0.00    -0.101 A  
HETATM   20  C   UNL     1      -7.460   5.612  70.502  1.00  0.00    -0.085 A  
HETATM   21  C   UNL     1      -7.835   4.491  69.759  1.00  0.00    -0.057 A  
HETATM   22  C   UNL     1      -8.594   4.654  68.598  1.00  0.00    -0.099 A  
BRANCH  20  23
HETATM   23  S   UNL     1      -6.553   5.391  72.011  1.00  0.00    -0.058 S  
HETATM   24  O   UNL     1      -7.230   6.120  73.055  1.00  0.00    -0.083 OA 
HETATM   25  O   UNL     1      -5.144   5.552  71.726  1.00  0.00    -0.008 OA 
HETATM   26  N   UNL     1      -6.801   3.760  72.295  1.00  0.00    -0.035 N  
HETATM   27  H1  UNL     1      -6.280   3.633  73.162  1.00  0.00     0.000 HD 
HETATM   28  H2  UNL     1      -7.330   3.079  71.750  1.00  0.00     0.000 HD 
ENDBRANCH  20  23
ENDBRANCH  15  17
ENDBRANCH   5   8
TORSDOF 3
ENDMDL
MODEL      131
REMARK 921   NORMALIZED FREE ENERGY PREDICTED BY IDOCK:   15.99 KCAL/MOL
REMARK 922        TOTAL FREE ENERGY PREDICTED BY IDOCK:   18.13 KCAL/MOL
REMARK 923 INTER-LIGAND FREE ENERGY PREDICTED BY IDOCK:   18.41 KCAL/MOL
REMARK 924 INTRA-LIGAND FREE ENERGY PREDICTED BY IDOCK:   -0.28 KCAL/MOL
REMARK 927      BINDING AFFINITY PREDICTED BY RF-SCORE:    0.00 PKD
ROOT
HETATM    1  C   UNL     1     -13.499   6.325  66.362  1.00  0.00    13.767 C  
HETATM    2  C   UNL     1     -12.188   6.572  67.047  1.00  0.00     3.871 A  
HETATM    3  C   UNL     1     -11.400   5.505  67.482  1.00  0.00     1.074 A  
HETATM    4  C   UNL     1     -10.281   5.733  68.289  1.00  0.00    -0.235 A  
HETATM    5  C   UNL     1      -9.920   7.032  68.673  1.00  0.00    -0.156 A  
HETATM    6  C   UNL     1     -11.776   7.875  67.340  1.00  0.00     2.406 A  
HETATM    7  C   UNL     1     -10.627   8.101  68.105  1.00  0.00    -0.168 A  
ENDROOT
BRANCH   5   8
HETATM    8  C   UNL     1      -8.854   7.228  69.674  1.00  0.00    -0.141 A  
HETATM    9  C   UNL     1      -8.367   6.301  70.583  1.00  0.00    -0.133 A  
HETATM   10  C   UNL     1      -7.321   6.931  71.291  1.00  0.00    -0.081 A  
HETATM   11  N   UNL     1      -7.107   8.166  70.807  1.00  0.00    -0.047 NA 
HETATM   12  C   UNL     1      -6.519   6.344  72.421  1.00  0.00    -0.059 C  
HETATM   13  F   UNL     1      -6.914   5.071  72.708  1.00  0.00    -0.069 F  
HETATM   14  F   UNL     1      -5.189   6.281  72.146  1.00  0.00    -0.023 F  
HETATM   15  N   UNL     1      -8.138   8.402  69.948  1.00  0.00    -0.116 NA 
HETATM   16  F   UNL     1      -6.657   7.052  73.573  1.00  0.00    -0.065 F  
BRANCH  15  17
HETATM   17  C   UNL     1      -8.336   9.741  69.489  1.00  0.00    -0.161 A  
HETATM   18  C   UNL     1      -7.312  10.375  68.764  1.00  0.00    -0.089 A  
HETATM   19  C   UNL     1      -7.521  11.642  68.208  1.00  0.00    -0.097 A  
HETATM   20  C   UNL     1      -8.751  12.278  68.390  1.00  0.00    -0.139 A  
HETATM   21  C   UNL     1      -9.741  11.698  69.187  1.00  0.00     0.179 A  
HETATM   22  C   UNL     1      -9.524  10.438  69.749  1.00  0.00    -0.043 A  
BRANCH  20  23
HETATM   23  S   UNL     1      -9.062  13.848  67.625  1.00  0.00    -0.209 S  
HETATM   24  O   UNL     1      -7.831  14.600  67.623  1.00  0.00    -0.149 OA 
HETATM   25  O   UNL     1     -10.303  14.375  68.148  1.00  0.00    -0.223 OA 
HETATM   26  N   UNL     1      -9.367  13.379  66.048  1.00  0.00    -0.482 N  
HETATM   27  H1  UNL     1      -9.546  14.282  65.609  1.00  0.00     0.000 HD 
HETATM   28  H2  UNL     1      -9.373  12.446  65.638  1.00  0.00     0.000 HD 
ENDBRANCH  20  23
ENDBRANCH  15  17
ENDBRANCH   5   8
TORSDOF 3
ENDMDL
MODEL      132
REMARK 921   NORMALIZED FREE ENERGY PREDICTED BY IDOCK:   37.64 KCAL/MOL
REMARK 922        TOTAL FREE ENERGY PREDICTED BY IDOCK:   43.57 KCAL/MOL
REMARK 923 INTER-LIGAND FREE ENERGY PREDICTED BY IDOCK:   43.66 KCAL/MOL
REMARK 924 INTRA-LIGAND FREE ENERGY PREDICTED BY IDOCK:   -0.08 KCAL/MOL
REMARK 927      BINDING AFFINITY PREDICTED BY RF-SCORE:    0.00 PKD
ROOT
HETATM    1  C   UNL     1      -5.997  20.781  63.999  1.00  0.00    -0.339 C  
HETATM    2  C   UNL     1      -6.579  20.153  65.230  1.00  0.00    -0.330 A  
HETATM    3  C   UNL     1      -6.001  20.369  66.481  1.00  0.00    -0.215 A  
HETATM    4  C   UNL     1      -6.422  19.634  67.594  1.00  0.00    -0.239 A  
HETATM    5  C   UNL     1      -7.434  18.671  67.482  1.00  0.00    -0.237 A  
HETATM    6  C   UNL     1      -7.658  19.269  65.131  1.00  0.00     0.745 A  
HETATM    7  C   UNL     1      -8.110  18.572  66.257  1.00  0.00    -0.259 A  
ENDROOT
BRANCH   5   8
HETATM    8  C   UNL     1      -7.725  17.780  68.621  1.00  0.00    -0.283 A  
HETATM    9  C   UNL     1      -7.402  17.981  69.954  1.00  0.00     0.880 A  
HETATM   10  C   UNL     1      -7.931  16.887  70.674  1.00  0.00     4.058 A  
HETATM   11  N   UNL     1      -8.614  16.074  69.852  1.00  0.00     0.328 NA 
HETATM   12  C   UNL     1      -7.791  16.629  72.150  1.00  0.00    11.965 C  
HETATM   13  F   UNL     1      -7.073  17.612  72.765  1.00  0.00     5.700 F  
HETATM   14  F   UNL     1      -8.988  16.572  72.790  1.00  0.00     9.964 F  
HETATM   15  N   UNL     1      -8.350  16.525  68.594  1.00  0.00    -0.224 NA 
HETATM   16  F   UNL     1      -7.140  15.465  72.411  1.00  0.00     2.445 F  
BRANCH  15  17
HETATM   17  C   UNL     1      -8.713  15.691  67.491  1.00  0.00    -0.177 A  
HETATM   18  C   UNL     1      -9.675  16.150  66.574  1.00  0.00    -0.282 A  
HETATM   19  C   UNL     1      -9.968  15.404  65.427  1.00  0.00    -0.356 A  
HETATM   20  C   UNL     1      -9.307  14.193  65.207  1.00  0.00     0.646 A  
HETATM   21  C   UNL     1      -8.420  13.684  66.157  1.00  0.00     0.946 A  
HETATM   22  C   UNL     1      -8.139  14.426  67.306  1.00  0.00    -0.209 A  
BRANCH  20  23
HETATM   23  S   UNL     1      -9.607  13.274  63.719  1.00  0.00     2.757 S  
HETATM   24  O   UNL     1      -8.376  13.216  62.969  1.00  0.00     5.488 OA 
HETATM   25  O   UNL     1     -10.855  13.726  63.145  1.00  0.00     1.248 OA 
HETATM   26  N   UNL     1      -9.890  11.746  64.340  1.00  0.00    -0.364 N  
HETATM   27  H1  UNL     1     -10.062  11.218  63.485  1.00  0.00     0.000 HD 
HETATM   28  H2  UNL     1      -9.890  11.430  65.309  1.00  0.00     0.000 HD 
ENDBRANCH  20  23
ENDBRANCH  15  17
ENDBRANCH   5   8
TORSDOF 3
ENDMDL
MODEL      133
REMARK 921   NORMALIZED FREE ENERGY PREDICTED BY IDOCK:   54.50 KCAL/MOL
REMARK 922        TOTAL FREE ENERGY PREDICTED BY IDOCK:   63.39 KCAL/MOL
REMARK 923 INTER-LIGAND FREE ENERGY PREDICTED BY IDOCK:   63.27 KCAL/MOL
REMARK 924 INTRA-LIGAND FREE ENERGY PREDICTED BY IDOCK:    0.12 KCAL/MOL
REMARK 927      BINDING AFFINITY PREDICTED BY RF-SCORE:    0.00 PKD
ROOT
HETATM    1  C   UNL     1      -9.817  17.951  65.174  1.00  0.00     1.590 C  
HETATM    2  C   UNL     1      -9.944  16.457  65.194  1.00  0.00     0.330 A  
HETATM    3  C   UNL     1     -10.535  15.778  64.128  1.00  0.00     1.696 A  
HETATM    4  C   UNL     1     -10.829  14.415  64.231  1.00  0.00     0.076 A  
HETATM    5  C   UNL     1     -10.534  13.699  65.399  1.00  0.00    -0.333 A  
HETATM    6  C   UNL     1      -9.554  15.729  66.322  1.00  0.00    -0.343 A  
HETATM    7  C   UNL     1      -9.804  14.355  66.401  1.00  0.00    -0.309 A  
ENDROOT
BRANCH   5   8
HETATM    8  C   UNL     1     -11.025  12.316  65.552  1.00  0.00    -0.298 A  
HETATM    9  C   UNL     1     -11.245  11.382  64.552  1.00  0.00    -0.251 A  
HETATM   10  C   UNL     1     -11.662  10.191  65.187  1.00  0.00     3.949 A  
HETATM   11  N   UNL     1     -11.636  10.340  66.521  1.00  0.00     0.658 NA 
HETATM   12  C   UNL     1     -12.071   8.909  64.514  1.00  0.00    15.960 C  
HETATM   13  F   UNL     1     -11.988   9.007  63.156  1.00  0.00    10.529 F  
HETATM   14  F   UNL     1     -11.291   7.855  64.870  1.00  0.00     6.719 F  
HETATM   15  N   UNL     1     -11.413  11.667  66.734  1.00  0.00    -0.481 NA 
HETATM   16  F   UNL     1     -13.357   8.568  64.792  1.00  0.00    15.580 F  
BRANCH  15  17
HETATM   17  C   UNL     1     -11.610  12.179  68.054  1.00  0.00    -0.348 A  
HETATM   18  C   UNL     1     -12.807  11.883  68.731  1.00  0.00     1.783 A  
HETATM   19  C   UNL     1     -12.979  12.275  70.062  1.00  0.00     0.708 A  
HETATM   20  C   UNL     1     -11.959  12.975  70.711  1.00  0.00    -0.039 A  
HETATM   21  C   UNL     1     -10.807  13.355  70.020  1.00  0.00     0.629 A  
HETATM   22  C   UNL     1     -10.643  12.970  68.687  1.00  0.00    -0.257 A  
BRANCH  20  23
HETATM   23  S   UNL     1     -12.128  13.410  72.422  1.00  0.00     1.606 S  
HETATM   24  O   UNL     1     -11.229  14.503  72.700  1.00  0.00     0.608 OA 
HETATM   25  O   UNL     1     -12.152  12.194  73.205  1.00  0.00     4.037 OA 
HETATM   26  N   UNL     1     -13.686  14.024  72.442  1.00  0.00    -0.529 N  
HETATM   27  H1  UNL     1     -13.782  14.274  73.426  1.00  0.00     0.000 HD 
HETATM   28  H2  UNL     1     -14.354  14.121  71.679  1.00  0.00     0.000 HD 
ENDBRANCH  20  23
ENDBRANCH  15  17
ENDBRANCH   5   8
TORSDOF 3
ENDMDL
MODEL      134
REMARK 921   NORMALIZED FREE ENERGY PREDICTED BY IDOCK:   59.96 KCAL/MOL
REMARK 922        TOTAL FREE ENERGY PREDICTED BY IDOCK:   69.81 KCAL/MOL
REMARK 923 INTER-LIGAND FREE ENERGY PREDICTED BY IDOCK:   70.03 KCAL/MOL
REMARK 924 INTRA-LIGAND FREE ENERGY PREDICTED BY IDOCK:   -0.22 KCAL/MOL
REMARK 927      BINDING AFFINITY PREDICTED BY RF-SCORE:    0.00 PKD
ROOT
HETATM    1  C   UNL     1      -5.228  10.194  63.877  1.00  0.00    -0.111 C  
HETATM    2  C   UNL     1      -5.899  10.045  65.210  1.00  0.00    -0.091 A  
HETATM    3  C   UNL     1      -7.250   9.703  65.292  1.00  0.00    -0.113 A  
HETATM    4  C   UNL     1      -7.921   9.755  66.518  1.00  0.00    -0.112 A  
HETATM    5  C   UNL     1      -7.257  10.145  67.689  1.00  0.00    -0.088 A  
HETATM    6  C   UNL     1      -5.206  10.336  66.389  1.00  0.00    -0.043 A  
HETATM    7  C   UNL     1      -5.870  10.338  67.620  1.00  0.00    -0.045 A  
ENDROOT
BRANCH   5   8
HETATM    8  C   UNL     1      -8.029  10.375  68.925  1.00  0.00    -0.123 A  
HETATM    9  C   UNL     1      -7.818  11.353  69.884  1.00  0.00     1.026 A  
HETATM   10  C   UNL     1      -8.839  11.209  70.850  1.00  0.00     5.532 A  
HETATM   11  N   UNL     1      -9.692  10.239  70.484  1.00  0.00     0.326 NA 
HETATM   12  C   UNL     1      -9.001  12.009  72.113  1.00  0.00    20.804 C  
HETATM   13  F   UNL     1      -8.019  12.947  72.242  1.00  0.00     9.617 F  
HETATM   14  F   UNL     1     -10.181  12.680  72.164  1.00  0.00     9.045 F  
HETATM   15  N   UNL     1      -9.112   9.629  69.413  1.00  0.00    -0.175 NA 
HETATM   16  F   UNL     1      -8.932  11.233  73.227  1.00  0.00    13.337 F  
BRANCH  15  17
HETATM   17  C   UNL     1      -9.653   8.379  68.977  1.00  0.00    -0.160 A  
HETATM   18  C   UNL     1     -10.190   8.280  67.682  1.00  0.00    -0.294 A  
HETATM   19  C   UNL     1     -10.623   7.044  67.190  1.00  0.00    -0.412 A  
HETATM   20  C   UNL     1     -10.530   5.911  68.002  1.00  0.00    -0.234 A  
HETATM   21  C   UNL     1     -10.085   6.016  69.321  1.00  0.00    -0.235 A  
HETATM   22  C   UNL     1      -9.664   7.254  69.812  1.00  0.00    -0.166 A  
BRANCH  20  23
HETATM   23  S   UNL     1     -10.999   4.322  67.367  1.00  0.00     3.094 S  
HETATM   24  O   UNL     1     -12.385   4.387  66.970  1.00  0.00     8.666 OA 
HETATM   25  O   UNL     1     -10.483   3.303  68.254  1.00  0.00     1.344 OA 
HETATM   26  N   UNL     1     -10.080   4.253  65.970  1.00  0.00    -0.360 N  
HETATM   27  H1  UNL     1     -10.350   3.339  65.606  1.00  0.00     0.000 HD 
HETATM   28  H2  UNL     1      -9.427   4.937  65.588  1.00  0.00     0.000 HD 
ENDBRANCH  20  23
ENDBRANCH  15  17
ENDBRANCH   5   8
TORSDOF 3
ENDMDL
