MODEL        1
REMARK 921   NORMALIZED FREE ENERGY PREDICTED BY IDOCK:   -6.51 KCAL/MOL
REMARK 922        TOTAL FREE ENERGY PREDICTED BY IDOCK:  -11.83 KCAL/MOL
REMARK 923 INTER-LIGAND FREE ENERGY PREDICTED BY IDOCK:  -10.70 KCAL/MOL
REMARK 924 INTRA-LIGAND FREE ENERGY PREDICTED BY IDOCK:   -1.13 KCAL/MOL
REMARK 927      BINDING AFFINITY PREDICTED BY RF-SCORE:    0.00 PKD
ROOT
HETATM    1  C   UNL     1     -14.072   8.596  72.212  1.00  0.00    -0.491 C  
HETATM    2  C   UNL     1     -12.870   9.524  72.326  1.00  0.00    -0.346 C  
ENDROOT
BRANCH   2   3
HETATM    3  N   UNL     1     -11.600   8.863  72.010  1.00  0.00    -0.367 N  
BRANCH   3   4
HETATM    4  C   UNL     1     -11.290   7.605  72.698  1.00  0.00    -0.370 C  
HETATM    5  C   UNL     1     -11.172   6.403  71.780  1.00  0.00    -0.324 C  
ENDBRANCH   3   4
BRANCH   3   6
HETATM    6  C   UNL     1     -10.878   9.371  70.930  1.00  0.00    -0.322 C  
HETATM    7  O   UNL     1      -9.663   9.557  70.991  1.00  0.00    -0.250 OA 
BRANCH   6   8
HETATM    8  N   UNL     1     -11.626   9.603  69.791  1.00  0.00    -0.443 N  
HETATM    9  H   UNL     1     -12.250   8.871  69.452  1.00  0.00     0.000 HD 
BRANCH   8  10
HETATM   10  C   UNL     1     -11.551  10.817  69.085  1.00  0.00    -0.305 A  
HETATM   11  C   UNL     1     -11.386  10.860  67.703  1.00  0.00    -0.345 A  
HETATM   12  C   UNL     1     -11.383  12.085  67.031  1.00  0.00    -0.396 A  
HETATM   13  C   UNL     1     -11.568  13.289  67.723  1.00  0.00    -0.342 A  
HETATM   14  C   UNL     1     -11.664  12.012  69.795  1.00  0.00    -0.390 A  
HETATM   15  C   UNL     1     -11.701  13.247  69.123  1.00  0.00    -0.379 A  
BRANCH  13  16
HETATM   16  O   UNL     1     -11.675  14.505  67.102  1.00  0.00    -0.377 OA 
BRANCH  16  17
HETATM   17  C   UNL     1     -11.948  14.507  65.692  1.00  0.00    -0.311 C  
BRANCH  17  18
HETATM   18  C   UNL     1     -10.935  15.418  64.986  1.00  0.00    -0.436 C  
HETATM   19  H   UNL     1     -11.005  16.840  63.633  1.00  0.00     0.000 HD 
HETATM   20  O   UNL     1     -11.633  16.275  64.070  1.00  0.00    -0.953 OA 
BRANCH  18  21
HETATM   21  C   UNL     1     -10.121  16.299  65.953  1.00  0.00    -0.357 C  
BRANCH  21  22
HETATM   22  N   UNL     1     -10.392  17.734  65.808  1.00  0.00    -0.609 NA 
HETATM   23  C   UNL     1      -9.607  18.614  66.701  1.00  0.00    -0.333 C  
HETATM   24  H   UNL     1     -11.389  17.917  65.922  1.00  0.00     0.000 HD 
HETATM   25  C   UNL     1     -10.100  20.053  66.457  1.00  0.00    -0.606 C  
HETATM   26  C   UNL     1      -8.105  18.565  66.370  1.00  0.00    -0.295 C  
HETATM   27  C   UNL     1      -9.833  18.271  68.182  1.00  0.00    -0.356 C  
ENDBRANCH  21  22
ENDBRANCH  18  21
ENDBRANCH  17  18
ENDBRANCH  16  17
ENDBRANCH  13  16
BRANCH  15  28
HETATM   28  C   UNL     1     -11.977  14.424  70.003  1.00  0.00    -0.334 C  
HETATM   29  O   UNL     1     -13.094  14.544  70.510  1.00  0.00    -0.330 OA 
HETATM   30  C   UNL     1     -10.901  15.426  70.322  1.00  0.00    -0.332 C  
ENDBRANCH  15  28
ENDBRANCH   8  10
ENDBRANCH   6   8
ENDBRANCH   3   6
ENDBRANCH   2   3
TORSDOF 11
ENDMDL
MODEL        2
REMARK 921   NORMALIZED FREE ENERGY PREDICTED BY IDOCK:   -6.33 KCAL/MOL
REMARK 922        TOTAL FREE ENERGY PREDICTED BY IDOCK:  -11.54 KCAL/MOL
REMARK 923 INTER-LIGAND FREE ENERGY PREDICTED BY IDOCK:   -9.77 KCAL/MOL
REMARK 924 INTRA-LIGAND FREE ENERGY PREDICTED BY IDOCK:   -1.76 KCAL/MOL
REMARK 927      BINDING AFFINITY PREDICTED BY RF-SCORE:    0.00 PKD
ROOT
HETATM    1  C   UNL     1      -6.394  20.319  68.822  1.00  0.00    -0.347 C  
HETATM    2  C   UNL     1      -7.570  19.379  68.599  1.00  0.00    -0.363 C  
ENDROOT
BRANCH   2   3
HETATM    3  N   UNL     1      -7.997  19.312  67.198  1.00  0.00    -0.260 N  
BRANCH   3   4
HETATM    4  C   UNL     1      -7.080  18.702  66.229  1.00  0.00    -0.245 C  
HETATM    5  C   UNL     1      -6.548  17.343  66.643  1.00  0.00    -0.264 C  
ENDBRANCH   3   4
BRANCH   3   6
HETATM    6  C   UNL     1      -9.324  19.645  66.927  1.00  0.00    -0.355 C  
HETATM    7  O   UNL     1      -9.837  20.677  67.358  1.00  0.00    -0.464 OA 
BRANCH   6   8
HETATM    8  N   UNL     1      -9.991  18.750  66.110  1.00  0.00    -0.371 N  
HETATM    9  H   UNL     1     -10.192  19.016  65.147  1.00  0.00     0.000 HD 
BRANCH   8  10
HETATM   10  C   UNL     1     -10.399  17.484  66.568  1.00  0.00    -0.325 A  
HETATM   11  C   UNL     1     -10.604  17.219  67.920  1.00  0.00    -0.384 A  
HETATM   12  C   UNL     1     -11.073  15.968  68.330  1.00  0.00    -0.351 A  
HETATM   13  C   UNL     1     -11.367  14.966  67.395  1.00  0.00    -0.347 A  
HETATM   14  C   UNL     1     -10.618  16.472  65.634  1.00  0.00    -0.317 A  
HETATM   15  C   UNL     1     -11.127  15.223  66.033  1.00  0.00    -0.278 A  
BRANCH  13  16
HETATM   16  O   UNL     1     -11.923  13.761  67.734  1.00  0.00    -0.361 OA 
BRANCH  16  17
HETATM   17  C   UNL     1     -11.106  12.838  68.471  1.00  0.00    -0.266 C  
BRANCH  17  18
HETATM   18  C   UNL     1     -12.012  11.916  69.298  1.00  0.00    -0.281 C  
HETATM   19  H   UNL     1     -11.849  10.151  70.145  1.00  0.00     0.000 HD 
HETATM   20  O   UNL     1     -11.288  10.722  69.633  1.00  0.00    -0.247 OA 
BRANCH  18  21
HETATM   21  C   UNL     1     -12.521  12.560  70.602  1.00  0.00    -0.238 C  
BRANCH  21  22
HETATM   22  N   UNL     1     -11.832  13.809  70.946  1.00  0.00    -0.505 NA 
HETATM   23  C   UNL     1     -12.654  14.797  71.677  1.00  0.00    -0.328 C  
HETATM   24  H   UNL     1     -11.435  14.234  70.108  1.00  0.00     0.000 HD 
HETATM   25  C   UNL     1     -11.783  16.055  71.861  1.00  0.00    -0.594 C  
HETATM   26  C   UNL     1     -13.047  14.287  73.074  1.00  0.00    -0.526 C  
HETATM   27  C   UNL     1     -13.911  15.192  70.886  1.00  0.00    -0.312 C  
ENDBRANCH  21  22
ENDBRANCH  18  21
ENDBRANCH  17  18
ENDBRANCH  16  17
ENDBRANCH  13  16
BRANCH  15  28
HETATM   28  C   UNL     1     -11.451  14.297  64.905  1.00  0.00    -0.378 C  
HETATM   29  O   UNL     1     -12.573  14.342  64.397  1.00  0.00    -0.665 OA 
HETATM   30  C   UNL     1     -10.416  13.357  64.348  1.00  0.00    -0.403 C  
ENDBRANCH  15  28
ENDBRANCH   8  10
ENDBRANCH   6   8
ENDBRANCH   3   6
ENDBRANCH   2   3
TORSDOF 11
ENDMDL
MODEL        3
REMARK 921   NORMALIZED FREE ENERGY PREDICTED BY IDOCK:   -6.29 KCAL/MOL
REMARK 922        TOTAL FREE ENERGY PREDICTED BY IDOCK:  -11.47 KCAL/MOL
REMARK 923 INTER-LIGAND FREE ENERGY PREDICTED BY IDOCK:  -10.36 KCAL/MOL
REMARK 924 INTRA-LIGAND FREE ENERGY PREDICTED BY IDOCK:   -1.11 KCAL/MOL
REMARK 927      BINDING AFFINITY PREDICTED BY RF-SCORE:    0.00 PKD
ROOT
HETATM    1  C   UNL     1     -14.265   8.515  72.026  1.00  0.00    -0.535 C  
HETATM    2  C   UNL     1     -13.194   9.596  72.071  1.00  0.00    -0.453 C  
ENDROOT
BRANCH   2   3
HETATM    3  N   UNL     1     -11.839   9.074  71.864  1.00  0.00    -0.365 N  
BRANCH   3   4
HETATM    4  C   UNL     1     -11.412   7.931  72.678  1.00  0.00    -0.395 C  
HETATM    5  C   UNL     1     -11.177   6.656  71.889  1.00  0.00    -0.302 C  
ENDBRANCH   3   4
BRANCH   3   6
HETATM    6  C   UNL     1     -11.134   9.570  70.768  1.00  0.00    -0.323 C  
HETATM    7  O   UNL     1      -9.908   9.678  70.778  1.00  0.00    -0.260 OA 
BRANCH   6   8
HETATM    8  N   UNL     1     -11.914   9.885  69.671  1.00  0.00    -0.461 N  
HETATM    9  H   UNL     1     -12.511   9.165  69.266  1.00  0.00     0.000 HD 
BRANCH   8  10
HETATM   10  C   UNL     1     -11.909  11.170  69.097  1.00  0.00    -0.350 A  
HETATM   11  C   UNL     1     -11.792  12.323  69.869  1.00  0.00    -0.383 A  
HETATM   12  C   UNL     1     -11.725  13.577  69.257  1.00  0.00    -0.382 A  
HETATM   13  C   UNL     1     -11.751  13.702  67.861  1.00  0.00    -0.360 A  
HETATM   14  C   UNL     1     -12.010  11.285  67.711  1.00  0.00    -0.014 A  
HETATM   15  C   UNL     1     -11.904  12.540  67.084  1.00  0.00    -0.386 A  
BRANCH  13  16
HETATM   16  O   UNL     1     -11.586  14.895  67.210  1.00  0.00    -0.360 OA 
BRANCH  16  17
HETATM   17  C   UNL     1     -10.285  15.503  67.260  1.00  0.00    -0.260 C  
BRANCH  17  18
HETATM   18  C   UNL     1     -10.042  16.276  65.957  1.00  0.00    -0.356 C  
HETATM   19  H   UNL     1     -10.806  16.285  64.147  1.00  0.00     0.000 HD 
HETATM   20  O   UNL     1     -10.956  15.806  64.954  1.00  0.00    -0.433 OA 
BRANCH  18  21
HETATM   21  C   UNL     1     -10.220  17.800  66.102  1.00  0.00    -0.339 C  
BRANCH  21  22
HETATM   22  N   UNL     1      -8.956  18.544  66.062  1.00  0.00    -0.484 NA 
HETATM   23  C   UNL     1      -8.739  19.475  67.190  1.00  0.00    -0.301 C  
HETATM   24  H   UNL     1      -8.868  19.040  65.175  1.00  0.00     0.000 HD 
HETATM   25  C   UNL     1      -7.414  20.212  66.915  1.00  0.00    -0.320 C  
HETATM   26  C   UNL     1      -8.595  18.725  68.526  1.00  0.00    -0.378 C  
HETATM   27  C   UNL     1      -9.862  20.520  67.290  1.00  0.00    -0.581 C  
ENDBRANCH  21  22
ENDBRANCH  18  21
ENDBRANCH  17  18
ENDBRANCH  16  17
ENDBRANCH  13  16
BRANCH  15  28
HETATM   28  C   UNL     1     -11.878  12.486  65.591  1.00  0.00    -0.438 C  
HETATM   29  O   UNL     1     -12.932  12.625  64.967  1.00  0.00    -0.812 OA 
HETATM   30  C   UNL     1     -10.583  12.320  64.840  1.00  0.00    -0.329 C  
ENDBRANCH  15  28
ENDBRANCH   8  10
ENDBRANCH   6   8
ENDBRANCH   3   6
ENDBRANCH   2   3
TORSDOF 11
ENDMDL
MODEL        4
REMARK 921   NORMALIZED FREE ENERGY PREDICTED BY IDOCK:   -6.22 KCAL/MOL
REMARK 922        TOTAL FREE ENERGY PREDICTED BY IDOCK:  -11.35 KCAL/MOL
REMARK 923 INTER-LIGAND FREE ENERGY PREDICTED BY IDOCK:  -10.26 KCAL/MOL
REMARK 924 INTRA-LIGAND FREE ENERGY PREDICTED BY IDOCK:   -1.09 KCAL/MOL
REMARK 927      BINDING AFFINITY PREDICTED BY RF-SCORE:    0.00 PKD
ROOT
HETATM    1  C   UNL     1     -11.534   6.833  72.156  1.00  0.00    -0.319 C  
HETATM    2  C   UNL     1     -11.279   8.295  72.497  1.00  0.00    -0.376 C  
ENDROOT
BRANCH   2   3
HETATM    3  N   UNL     1     -11.809   9.223  71.493  1.00  0.00    -0.347 N  
BRANCH   3   4
HETATM    4  C   UNL     1     -13.108   9.852  71.758  1.00  0.00    -0.452 C  
HETATM    5  C   UNL     1     -13.063  11.366  71.837  1.00  0.00    -0.505 C  
ENDBRANCH   3   4
BRANCH   3   6
HETATM    6  C   UNL     1     -10.948   9.594  70.461  1.00  0.00    -0.313 C  
HETATM    7  O   UNL     1      -9.783   9.928  70.674  1.00  0.00    -0.158 OA 
BRANCH   6   8
HETATM    8  N   UNL     1     -11.496   9.517  69.193  1.00  0.00    -0.439 N  
HETATM    9  H   UNL     1     -12.055   8.701  68.945  1.00  0.00     0.000 HD 
BRANCH   8  10
HETATM   10  C   UNL     1     -11.304  10.529  68.236  1.00  0.00    -0.264 A  
HETATM   11  C   UNL     1     -11.751  11.833  68.439  1.00  0.00    -0.389 A  
HETATM   12  C   UNL     1     -11.484  12.826  67.493  1.00  0.00    -0.390 A  
HETATM   13  C   UNL     1     -10.745  12.541  66.337  1.00  0.00    -0.249 A  
HETATM   14  C   UNL     1     -10.631  10.217  67.055  1.00  0.00    -0.290 A  
HETATM   15  C   UNL     1     -10.323  11.217  66.116  1.00  0.00    -0.300 A  
BRANCH  13  16
HETATM   16  O   UNL     1     -10.369  13.496  65.431  1.00  0.00    -0.299 OA 
BRANCH  16  17
HETATM   17  C   UNL     1     -11.361  14.454  65.027  1.00  0.00    -0.373 C  
BRANCH  17  18
HETATM   18  C   UNL     1     -10.693  15.824  64.851  1.00  0.00    -0.361 C  
HETATM   19  H   UNL     1     -11.141  17.520  63.968  1.00  0.00     0.000 HD 
HETATM   20  O   UNL     1     -11.555  16.671  64.077  1.00  0.00    -1.197 OA 
BRANCH  18  21
HETATM   21  C   UNL     1     -10.381  16.533  66.183  1.00  0.00    -0.334 C  
BRANCH  21  22
HETATM   22  N   UNL     1      -9.238  17.451  66.105  1.00  0.00    -0.472 NA 
HETATM   23  C   UNL     1      -9.491  18.812  66.623  1.00  0.00    -0.330 C  
HETATM   24  H   UNL     1      -8.890  17.499  65.147  1.00  0.00     0.000 HD 
HETATM   25  C   UNL     1      -8.212  19.633  66.370  1.00  0.00    -0.356 C  
HETATM   26  C   UNL     1      -9.756  18.804  68.139  1.00  0.00    -0.384 C  
HETATM   27  C   UNL     1     -10.656  19.495  65.888  1.00  0.00    -0.572 C  
ENDBRANCH  21  22
ENDBRANCH  18  21
ENDBRANCH  17  18
ENDBRANCH  16  17
ENDBRANCH  13  16
BRANCH  15  28
HETATM   28  C   UNL     1      -9.469  10.758  64.979  1.00  0.00    -0.241 C  
HETATM   29  O   UNL     1      -8.347  10.306  65.216  1.00  0.00    -0.152 OA 
HETATM   30  C   UNL     1      -9.977  10.787  63.562  1.00  0.00    -0.403 C  
ENDBRANCH  15  28
ENDBRANCH   8  10
ENDBRANCH   6   8
ENDBRANCH   3   6
ENDBRANCH   2   3
TORSDOF 11
ENDMDL
MODEL        5
REMARK 921   NORMALIZED FREE ENERGY PREDICTED BY IDOCK:   -6.17 KCAL/MOL
REMARK 922        TOTAL FREE ENERGY PREDICTED BY IDOCK:  -11.27 KCAL/MOL
REMARK 923 INTER-LIGAND FREE ENERGY PREDICTED BY IDOCK:   -9.73 KCAL/MOL
REMARK 924 INTRA-LIGAND FREE ENERGY PREDICTED BY IDOCK:   -1.54 KCAL/MOL
REMARK 927      BINDING AFFINITY PREDICTED BY RF-SCORE:    0.00 PKD
ROOT
HETATM    1  C   UNL     1      -9.818   8.043  70.895  1.00  0.00    -0.195 C  
HETATM    2  C   UNL     1     -10.752   8.740  71.876  1.00  0.00    -0.359 C  
ENDROOT
BRANCH   2   3
HETATM    3  N   UNL     1     -12.152   8.739  71.439  1.00  0.00    -0.297 N  
BRANCH   3   4
HETATM    4  C   UNL     1     -12.877   7.464  71.462  1.00  0.00    -0.375 C  
HETATM    5  C   UNL     1     -14.387   7.605  71.504  1.00  0.00    -0.589 C  
ENDBRANCH   3   4
BRANCH   3   6
HETATM    6  C   UNL     1     -12.748   9.982  71.231  1.00  0.00    -0.399 C  
HETATM    7  O   UNL     1     -13.263  10.618  72.150  1.00  0.00    -0.464 OA 
BRANCH   6   8
HETATM    8  N   UNL     1     -12.675  10.450  69.932  1.00  0.00    -0.537 N  
HETATM    9  H   UNL     1     -13.337  10.097  69.242  1.00  0.00     0.000 HD 
BRANCH   8  10
HETATM   10  C   UNL     1     -11.714  11.397  69.534  1.00  0.00    -0.348 A  
HETATM   11  C   UNL     1     -10.597  11.045  68.780  1.00  0.00    -0.232 A  
HETATM   12  C   UNL     1      -9.700  12.026  68.348  1.00  0.00    -0.199 A  
HETATM   13  C   UNL     1      -9.914  13.379  68.642  1.00  0.00    -0.135 A  
HETATM   14  C   UNL     1     -11.899  12.732  69.895  1.00  0.00    -0.371 A  
HETATM   15  C   UNL     1     -11.023  13.730  69.432  1.00  0.00    -0.142 A  
BRANCH  13  16
HETATM   16  O   UNL     1      -9.123  14.387  68.158  1.00  0.00    -0.180 OA 
BRANCH  16  17
HETATM   17  C   UNL     1      -8.894  14.427  66.741  1.00  0.00    -0.200 C  
BRANCH  17  18
HETATM   18  C   UNL     1      -9.774  15.522  66.121  1.00  0.00    -0.319 C  
HETATM   19  H   UNL     1      -9.487  17.299  65.336  1.00  0.00     0.000 HD 
HETATM   20  O   UNL     1      -8.943  16.621  65.720  1.00  0.00    -0.498 OA 
BRANCH  18  21
HETATM   21  C   UNL     1     -10.579  15.046  64.897  1.00  0.00    -0.374 C  
BRANCH  21  22
HETATM   22  N   UNL     1     -10.196  13.709  64.427  1.00  0.00    -0.712 NA 
HETATM   23  C   UNL     1     -11.303  12.733  64.344  1.00  0.00    -0.347 C  
HETATM   24  H   UNL     1      -9.441  13.337  65.003  1.00  0.00     0.000 HD 
HETATM   25  C   UNL     1     -10.682  11.387  63.922  1.00  0.00    -0.462 C  
HETATM   26  C   UNL     1     -12.336  13.133  63.276  1.00  0.00    -0.366 C  
HETATM   27  C   UNL     1     -11.996  12.540  65.703  1.00  0.00    -0.492 C  
ENDBRANCH  21  22
ENDBRANCH  18  21
ENDBRANCH  17  18
ENDBRANCH  16  17
ENDBRANCH  13  16
BRANCH  15  28
HETATM   28  C   UNL     1     -11.437  15.125  69.776  1.00  0.00    -0.297 C  
HETATM   29  O   UNL     1     -11.910  15.844  68.895  1.00  0.00    -0.397 OA 
HETATM   30  C   UNL     1     -11.336  15.641  71.187  1.00  0.00    -0.446 C  
ENDBRANCH  15  28
ENDBRANCH   8  10
ENDBRANCH   6   8
ENDBRANCH   3   6
ENDBRANCH   2   3
TORSDOF 11
ENDMDL
MODEL        6
REMARK 921   NORMALIZED FREE ENERGY PREDICTED BY IDOCK:   -6.15 KCAL/MOL
REMARK 922        TOTAL FREE ENERGY PREDICTED BY IDOCK:  -11.24 KCAL/MOL
REMARK 923 INTER-LIGAND FREE ENERGY PREDICTED BY IDOCK:   -9.51 KCAL/MOL
REMARK 924 INTRA-LIGAND FREE ENERGY PREDICTED BY IDOCK:   -1.73 KCAL/MOL
REMARK 927      BINDING AFFINITY PREDICTED BY RF-SCORE:    0.00 PKD
ROOT
HETATM    1  C   UNL     1     -11.158   6.645  72.196  1.00  0.00    -0.288 C  
HETATM    2  C   UNL     1     -11.290   8.060  72.742  1.00  0.00    -0.374 C  
ENDROOT
BRANCH   2   3
HETATM    3  N   UNL     1     -11.909   8.990  71.791  1.00  0.00    -0.348 N  
BRANCH   3   4
HETATM    4  C   UNL     1     -13.236   9.523  72.119  1.00  0.00    -0.451 C  
HETATM    5  C   UNL     1     -14.359   8.508  72.018  1.00  0.00    -0.537 C  
ENDBRANCH   3   4
BRANCH   3   6
HETATM    6  C   UNL     1     -11.106   9.456  70.751  1.00  0.00    -0.300 C  
HETATM    7  O   UNL     1      -9.914   9.711  70.915  1.00  0.00    -0.262 OA 
BRANCH   6   8
HETATM    8  N   UNL     1     -11.746   9.566  69.530  1.00  0.00    -0.383 N  
HETATM    9  H   UNL     1     -12.414   8.846  69.256  1.00  0.00     0.000 HD 
BRANCH   8  10
HETATM   10  C   UNL     1     -11.502  10.639  68.655  1.00  0.00    -0.263 A  
HETATM   11  C   UNL     1     -11.735  11.962  69.025  1.00  0.00    -0.391 A  
HETATM   12  C   UNL     1     -11.418  13.005  68.151  1.00  0.00    -0.356 A  
HETATM   13  C   UNL     1     -10.841  12.748  66.900  1.00  0.00    -0.253 A  
HETATM   14  C   UNL     1     -10.996  10.367  67.384  1.00  0.00    -0.335 A  
HETATM   15  C   UNL     1     -10.637  11.411  66.513  1.00  0.00    -0.309 A  
BRANCH  13  16
HETATM   16  O   UNL     1     -10.418  13.735  66.050  1.00  0.00    -0.285 OA 
BRANCH  16  17
HETATM   17  C   UNL     1     -11.423  14.563  65.443  1.00  0.00    -0.348 C  
BRANCH  17  18
HETATM   18  C   UNL     1     -10.764  15.840  64.905  1.00  0.00    -0.361 C  
HETATM   19  H   UNL     1     -11.252  17.270  63.650  1.00  0.00     0.000 HD 
HETATM   20  O   UNL     1     -11.660  16.478  63.983  1.00  0.00    -1.154 OA 
BRANCH  18  21
HETATM   21  C   UNL     1     -10.394  16.853  66.006  1.00  0.00    -0.325 C  
BRANCH  21  22
HETATM   22  N   UNL     1     -10.976  16.535  67.315  1.00  0.00    -0.162 NA 
HETATM   23  C   UNL     1     -10.074  16.738  68.468  1.00  0.00    -0.281 C  
HETATM   24  H   UNL     1     -11.339  15.581  67.316  1.00  0.00     0.000 HD 
HETATM   25  C   UNL     1     -10.838  16.269  69.722  1.00  0.00    -0.356 C  
HETATM   26  C   UNL     1      -9.721  18.224  68.659  1.00  0.00    -0.379 C  
HETATM   27  C   UNL     1      -8.790  15.902  68.343  1.00  0.00    -0.184 C  
ENDBRANCH  21  22
ENDBRANCH  18  21
ENDBRANCH  17  18
ENDBRANCH  16  17
ENDBRANCH  13  16
BRANCH  15  28
HETATM   28  C   UNL     1      -9.970  10.965  65.252  1.00  0.00    -0.273 C  
HETATM   29  O   UNL     1     -10.591  11.031  64.190  1.00  0.00    -0.371 OA 
HETATM   30  C   UNL     1      -8.541  10.492  65.253  1.00  0.00    -0.185 C  
ENDBRANCH  15  28
ENDBRANCH   8  10
ENDBRANCH   6   8
ENDBRANCH   3   6
ENDBRANCH   2   3
TORSDOF 11
ENDMDL
MODEL        7
REMARK 921   NORMALIZED FREE ENERGY PREDICTED BY IDOCK:   -6.09 KCAL/MOL
REMARK 922        TOTAL FREE ENERGY PREDICTED BY IDOCK:  -11.13 KCAL/MOL
REMARK 923 INTER-LIGAND FREE ENERGY PREDICTED BY IDOCK:   -9.52 KCAL/MOL
REMARK 924 INTRA-LIGAND FREE ENERGY PREDICTED BY IDOCK:   -1.61 KCAL/MOL
REMARK 927      BINDING AFFINITY PREDICTED BY RF-SCORE:    0.00 PKD
ROOT
HETATM    1  C   UNL     1      -8.478  15.629  67.694  1.00  0.00    -0.169 C  
HETATM    2  C   UNL     1      -8.828  16.754  68.658  1.00  0.00    -0.255 C  
ENDROOT
BRANCH   2   3
HETATM    3  N   UNL     1     -10.237  17.156  68.589  1.00  0.00    -0.315 N  
BRANCH   3   4
HETATM    4  C   UNL     1     -10.620  18.141  67.571  1.00  0.00    -0.401 C  
HETATM    5  C   UNL     1     -10.384  19.583  67.978  1.00  0.00    -0.564 C  
ENDBRANCH   3   4
BRANCH   3   6
HETATM    6  C   UNL     1     -11.140  16.422  69.357  1.00  0.00    -0.300 C  
HETATM    7  O   UNL     1     -11.135  16.466  70.586  1.00  0.00    -0.323 OA 
BRANCH   6   8
HETATM    8  N   UNL     1     -12.054  15.683  68.627  1.00  0.00    -0.541 N  
HETATM    9  H   UNL     1     -12.940  16.114  68.365  1.00  0.00     0.000 HD 
BRANCH   8  10
HETATM   10  C   UNL     1     -11.798  14.357  68.237  1.00  0.00    -0.326 A  
HETATM   11  C   UNL     1     -11.417  13.378  69.151  1.00  0.00    -0.351 A  
HETATM   12  C   UNL     1     -11.235  12.056  68.735  1.00  0.00    -0.316 A  
HETATM   13  C   UNL     1     -11.453  11.683  67.402  1.00  0.00    -0.285 A  
HETATM   14  C   UNL     1     -11.947  14.013  66.893  1.00  0.00    -0.479 A  
HETATM   15  C   UNL     1     -11.805  12.678  66.473  1.00  0.00    -0.463 A  
BRANCH  13  16
HETATM   16  O   UNL     1     -11.389  10.387  66.964  1.00  0.00    -0.222 OA 
BRANCH  16  17
HETATM   17  C   UNL     1     -10.135   9.700  67.107  1.00  0.00    -0.218 C  
BRANCH  17  18
HETATM   18  C   UNL     1     -10.388   8.187  67.097  1.00  0.00    -0.321 C  
HETATM   19  H   UNL     1      -9.428   6.590  66.474  1.00  0.00     0.000 HD 
HETATM   20  O   UNL     1      -9.272   7.528  66.480  1.00  0.00    -0.160 OA 
BRANCH  18  21
HETATM   21  C   UNL     1     -10.593   7.586  68.501  1.00  0.00    -0.136 C  
BRANCH  21  22
HETATM   22  N   UNL     1     -11.120   8.547  69.478  1.00  0.00    -0.432 NA 
HETATM   23  C   UNL     1     -11.016   8.125  70.891  1.00  0.00    -0.242 C  
HETATM   24  H   UNL     1     -12.086   8.784  69.252  1.00  0.00     0.000 HD 
HETATM   25  C   UNL     1     -11.697   9.219  71.736  1.00  0.00    -0.456 C  
HETATM   26  C   UNL     1      -9.550   8.020  71.347  1.00  0.00    -0.195 C  
HETATM   27  C   UNL     1     -11.745   6.796  71.145  1.00  0.00    -0.394 C  
ENDBRANCH  21  22
ENDBRANCH  18  21
ENDBRANCH  17  18
ENDBRANCH  16  17
ENDBRANCH  13  16
BRANCH  15  28
HETATM   28  C   UNL     1     -12.143  12.442  65.036  1.00  0.00    -0.407 C  
HETATM   29  O   UNL     1     -13.323  12.487  64.682  1.00  0.00    -0.804 OA 
HETATM   30  C   UNL     1     -11.065  12.209  64.011  1.00  0.00    -0.449 C  
ENDBRANCH  15  28
ENDBRANCH   8  10
ENDBRANCH   6   8
ENDBRANCH   3   6
ENDBRANCH   2   3
TORSDOF 11
ENDMDL
MODEL        8
REMARK 921   NORMALIZED FREE ENERGY PREDICTED BY IDOCK:   -6.09 KCAL/MOL
REMARK 922        TOTAL FREE ENERGY PREDICTED BY IDOCK:  -11.13 KCAL/MOL
REMARK 923 INTER-LIGAND FREE ENERGY PREDICTED BY IDOCK:   -9.54 KCAL/MOL
REMARK 924 INTRA-LIGAND FREE ENERGY PREDICTED BY IDOCK:   -1.60 KCAL/MOL
REMARK 927      BINDING AFFINITY PREDICTED BY RF-SCORE:    0.00 PKD
ROOT
HETATM    1  C   UNL     1      -9.925  19.382  68.656  1.00  0.00    -0.527 C  
HETATM    2  C   UNL     1     -10.522  18.211  67.888  1.00  0.00    -0.392 C  
ENDROOT
BRANCH   2   3
HETATM    3  N   UNL     1     -10.193  16.908  68.475  1.00  0.00    -0.290 N  
BRANCH   3   4
HETATM    4  C   UNL     1      -8.837  16.387  68.273  1.00  0.00    -0.202 C  
HETATM    5  C   UNL     1      -8.611  15.741  66.918  1.00  0.00    -0.279 C  
ENDBRANCH   3   4
BRANCH   3   6
HETATM    6  C   UNL     1     -11.128  16.358  69.352  1.00  0.00    -0.300 C  
HETATM    7  O   UNL     1     -11.092  16.578  70.562  1.00  0.00    -0.313 OA 
BRANCH   6   8
HETATM    8  N   UNL     1     -12.106  15.589  68.749  1.00  0.00    -0.584 N  
HETATM    9  H   UNL     1     -13.038  15.984  68.624  1.00  0.00     0.000 HD 
BRANCH   8  10
HETATM   10  C   UNL     1     -11.855  14.278  68.304  1.00  0.00    -0.335 A  
HETATM   11  C   UNL     1     -11.557  13.243  69.187  1.00  0.00    -0.370 A  
HETATM   12  C   UNL     1     -11.379  11.941  68.712  1.00  0.00    -0.330 A  
HETATM   13  C   UNL     1     -11.518  11.644  67.349  1.00  0.00    -0.285 A  
HETATM   14  C   UNL     1     -11.924  14.010  66.938  1.00  0.00    -0.479 A  
HETATM   15  C   UNL     1     -11.785  12.696  66.455  1.00  0.00    -0.466 A  
BRANCH  13  16
HETATM   16  O   UNL     1     -11.455  10.372  66.846  1.00  0.00    -0.110 OA 
BRANCH  16  17
HETATM   17  C   UNL     1     -10.181   9.708  66.882  1.00  0.00    -0.237 C  
BRANCH  17  18
HETATM   18  C   UNL     1     -10.406   8.204  67.086  1.00  0.00    -0.321 C  
HETATM   19  H   UNL     1      -9.590   6.543  66.426  1.00  0.00     0.000 HD 
HETATM   20  O   UNL     1      -9.451   7.475  66.300  1.00  0.00    -0.169 OA 
BRANCH  18  21
HETATM   21  C   UNL     1     -10.274   7.754  68.554  1.00  0.00    -0.204 C  
BRANCH  21  22
HETATM   22  N   UNL     1     -10.937   8.654  69.505  1.00  0.00    -0.416 NA 
HETATM   23  C   UNL     1     -11.317   8.037  70.793  1.00  0.00    -0.272 C  
HETATM   24  H   UNL     1     -11.752   9.088  69.069  1.00  0.00     0.000 HD 
HETATM   25  C   UNL     1     -12.069   9.112  71.601  1.00  0.00    -0.432 C  
HETATM   26  C   UNL     1     -10.081   7.612  71.606  1.00  0.00    -0.212 C  
HETATM   27  C   UNL     1     -12.256   6.836  70.595  1.00  0.00    -0.312 C  
ENDBRANCH  21  22
ENDBRANCH  18  21
ENDBRANCH  17  18
ENDBRANCH  16  17
ENDBRANCH  13  16
BRANCH  15  28
HETATM   28  C   UNL     1     -12.034  12.546  64.988  1.00  0.00    -0.427 C  
HETATM   29  O   UNL     1     -13.193  12.573  64.571  1.00  0.00    -0.832 OA 
HETATM   30  C   UNL     1     -10.893  12.418  64.015  1.00  0.00    -0.441 C  
ENDBRANCH  15  28
ENDBRANCH   8  10
ENDBRANCH   6   8
ENDBRANCH   3   6
ENDBRANCH   2   3
TORSDOF 11
ENDMDL
MODEL        9
REMARK 921   NORMALIZED FREE ENERGY PREDICTED BY IDOCK:   -6.08 KCAL/MOL
REMARK 922        TOTAL FREE ENERGY PREDICTED BY IDOCK:  -11.12 KCAL/MOL
REMARK 923 INTER-LIGAND FREE ENERGY PREDICTED BY IDOCK:  -10.05 KCAL/MOL
REMARK 924 INTRA-LIGAND FREE ENERGY PREDICTED BY IDOCK:   -1.07 KCAL/MOL
REMARK 927      BINDING AFFINITY PREDICTED BY RF-SCORE:    0.00 PKD
ROOT
HETATM    1  C   UNL     1     -13.103  11.218  71.792  1.00  0.00    -0.527 C  
HETATM    2  C   UNL     1     -13.050   9.767  71.337  1.00  0.00    -0.400 C  
ENDROOT
BRANCH   2   3
HETATM    3  N   UNL     1     -11.697   9.202  71.369  1.00  0.00    -0.316 N  
BRANCH   3   4
HETATM    4  C   UNL     1     -11.415   8.150  72.352  1.00  0.00    -0.397 C  
HETATM    5  C   UNL     1     -11.899   6.770  71.946  1.00  0.00    -0.366 C  
ENDBRANCH   3   4
BRANCH   3   6
HETATM    6  C   UNL     1     -10.840   9.560  70.328  1.00  0.00    -0.269 C  
HETATM    7  O   UNL     1      -9.662   9.852  70.528  1.00  0.00    -0.203 OA 
BRANCH   6   8
HETATM    8  N   UNL     1     -11.409   9.518  69.069  1.00  0.00    -0.455 N  
HETATM    9  H   UNL     1     -11.954   8.699  68.800  1.00  0.00     0.000 HD 
BRANCH   8  10
HETATM   10  C   UNL     1     -11.259  10.570  68.148  1.00  0.00    -0.293 A  
HETATM   11  C   UNL     1     -11.687  11.866  68.431  1.00  0.00    -0.387 A  
HETATM   12  C   UNL     1     -11.460  12.898  67.516  1.00  0.00    -0.386 A  
HETATM   13  C   UNL     1     -10.782  12.661  66.313  1.00  0.00    -0.256 A  
HETATM   14  C   UNL     1     -10.648  10.307  66.922  1.00  0.00    -0.282 A  
HETATM   15  C   UNL     1     -10.382  11.347  66.013  1.00  0.00    -0.297 A  
BRANCH  13  16
HETATM   16  O   UNL     1     -10.445  13.653  65.432  1.00  0.00    -0.299 OA 
BRANCH  16  17
HETATM   17  C   UNL     1     -11.469  14.594  65.070  1.00  0.00    -0.386 C  
BRANCH  17  18
HETATM   18  C   UNL     1     -10.819  15.951  64.767  1.00  0.00    -0.324 C  
HETATM   19  H   UNL     1     -11.338  17.596  63.828  1.00  0.00     0.000 HD 
HETATM   20  O   UNL     1     -11.740  16.756  64.016  1.00  0.00    -1.120 OA 
BRANCH  18  21
HETATM   21  C   UNL     1     -10.406  16.732  66.029  1.00  0.00    -0.335 C  
BRANCH  21  22
HETATM   22  N   UNL     1      -9.330  17.702  65.792  1.00  0.00    -0.470 NA 
HETATM   23  C   UNL     1      -9.348  18.887  66.676  1.00  0.00    -0.330 C  
HETATM   24  H   UNL     1      -9.329  17.993  64.814  1.00  0.00     0.000 HD 
HETATM   25  C   UNL     1      -8.206  19.811  66.209  1.00  0.00    -0.372 C  
HETATM   26  C   UNL     1      -9.080  18.506  68.142  1.00  0.00    -0.329 C  
HETATM   27  C   UNL     1     -10.672  19.661  66.565  1.00  0.00    -0.543 C  
ENDBRANCH  21  22
ENDBRANCH  18  21
ENDBRANCH  17  18
ENDBRANCH  16  17
ENDBRANCH  13  16
BRANCH  15  28
HETATM   28  C   UNL     1      -9.589  10.934  64.815  1.00  0.00    -0.252 C  
HETATM   29  O   UNL     1     -10.091  11.047  63.696  1.00  0.00    -0.312 OA 
HETATM   30  C   UNL     1      -8.174  10.437  64.952  1.00  0.00    -0.145 C  
ENDBRANCH  15  28
ENDBRANCH   8  10
ENDBRANCH   6   8
ENDBRANCH   3   6
ENDBRANCH   2   3
TORSDOF 11
ENDMDL
MODEL       10
REMARK 921   NORMALIZED FREE ENERGY PREDICTED BY IDOCK:   -6.01 KCAL/MOL
REMARK 922        TOTAL FREE ENERGY PREDICTED BY IDOCK:  -11.00 KCAL/MOL
REMARK 923 INTER-LIGAND FREE ENERGY PREDICTED BY IDOCK:   -9.50 KCAL/MOL
REMARK 924 INTRA-LIGAND FREE ENERGY PREDICTED BY IDOCK:   -1.50 KCAL/MOL
REMARK 927      BINDING AFFINITY PREDICTED BY RF-SCORE:    0.00 PKD
ROOT
HETATM    1  C   UNL     1      -9.382   9.053  71.074  1.00  0.00    -0.339 C  
HETATM    2  C   UNL     1     -10.393   8.752  72.172  1.00  0.00    -0.308 C  
ENDROOT
BRANCH   2   3
HETATM    3  N   UNL     1     -11.645   8.183  71.663  1.00  0.00    -0.266 N  
BRANCH   3   4
HETATM    4  C   UNL     1     -11.611   6.816  71.133  1.00  0.00    -0.329 C  
HETATM    5  C   UNL     1     -11.085   5.780  72.109  1.00  0.00    -0.327 C  
ENDBRANCH   3   4
BRANCH   3   6
HETATM    6  C   UNL     1     -12.812   8.905  71.911  1.00  0.00    -0.380 C  
HETATM    7  O   UNL     1     -13.342   8.923  73.021  1.00  0.00    -0.308 OA 
BRANCH   6   8
HETATM    8  N   UNL     1     -13.290   9.621  70.829  1.00  0.00    -0.603 N  
HETATM    9  H   UNL     1     -14.109   9.274  70.329  1.00  0.00     0.000 HD 
BRANCH   8  10
HETATM   10  C   UNL     1     -12.682  10.814  70.397  1.00  0.00    -0.269 A  
HETATM   11  C   UNL     1     -11.973  10.890  69.200  1.00  0.00    -0.359 A  
HETATM   12  C   UNL     1     -11.439  12.109  68.773  1.00  0.00    -0.359 A  
HETATM   13  C   UNL     1     -11.623  13.279  69.522  1.00  0.00    -0.286 A  
HETATM   14  C   UNL     1     -12.809  11.956  71.187  1.00  0.00    -0.346 A  
HETATM   15  C   UNL     1     -12.309  13.194  70.747  1.00  0.00    -0.404 A  
BRANCH  13  16
HETATM   16  O   UNL     1     -11.210  14.514  69.100  1.00  0.00    -0.245 OA 
BRANCH  16  17
HETATM   17  C   UNL     1     -11.877  15.083  67.962  1.00  0.00    -0.241 C  
BRANCH  17  18
HETATM   18  C   UNL     1     -10.830  15.479  66.913  1.00  0.00    -0.301 C  
HETATM   19  H   UNL     1      -9.399  16.817  66.770  1.00  0.00     0.000 HD 
HETATM   20  O   UNL     1     -10.048  16.572  67.419  1.00  0.00    -0.265 OA 
BRANCH  18  21
HETATM   21  C   UNL     1      -9.874  14.332  66.531  1.00  0.00    -0.288 C  
BRANCH  21  22
HETATM   22  N   UNL     1      -9.957  13.947  65.117  1.00  0.00    -0.583 NA 
HETATM   23  C   UNL     1     -10.528  12.607  64.865  1.00  0.00    -0.309 C  
HETATM   24  H   UNL     1      -9.040  14.027  64.677  1.00  0.00     0.000 HD 
HETATM   25  C   UNL     1     -10.445  12.363  63.345  1.00  0.00    -0.353 C  
HETATM   26  C   UNL     1     -12.010  12.534  65.274  1.00  0.00    -0.490 C  
HETATM   27  C   UNL     1      -9.729  11.503  65.576  1.00  0.00    -0.259 C  
ENDBRANCH  21  22
ENDBRANCH  18  21
ENDBRANCH  17  18
ENDBRANCH  16  17
ENDBRANCH  13  16
BRANCH  15  28
HETATM   28  C   UNL     1     -12.655  14.351  71.629  1.00  0.00    -0.353 C  
HETATM   29  O   UNL     1     -11.776  14.850  72.335  1.00  0.00    -0.333 OA 
HETATM   30  C   UNL     1     -14.037  14.946  71.626  1.00  0.00    -0.601 C  
ENDBRANCH  15  28
ENDBRANCH   8  10
ENDBRANCH   6   8
ENDBRANCH   3   6
ENDBRANCH   2   3
TORSDOF 11
ENDMDL
MODEL       11
REMARK 921   NORMALIZED FREE ENERGY PREDICTED BY IDOCK:   -5.98 KCAL/MOL
REMARK 922        TOTAL FREE ENERGY PREDICTED BY IDOCK:  -10.96 KCAL/MOL
REMARK 923 INTER-LIGAND FREE ENERGY PREDICTED BY IDOCK:   -9.30 KCAL/MOL
REMARK 924 INTRA-LIGAND FREE ENERGY PREDICTED BY IDOCK:   -1.66 KCAL/MOL
REMARK 927      BINDING AFFINITY PREDICTED BY RF-SCORE:    0.00 PKD
ROOT
HETATM    1  C   UNL     1     -13.833   9.084  72.210  1.00  0.00    -0.547 C  
HETATM    2  C   UNL     1     -12.658   9.910  71.707  1.00  0.00    -0.414 C  
ENDROOT
BRANCH   2   3
HETATM    3  N   UNL     1     -11.415   9.138  71.598  1.00  0.00    -0.358 N  
BRANCH   3   4
HETATM    4  C   UNL     1     -11.202   8.044  72.551  1.00  0.00    -0.388 C  
HETATM    5  C   UNL     1     -11.026   6.681  71.908  1.00  0.00    -0.277 C  
ENDBRANCH   3   4
BRANCH   3   6
HETATM    6  C   UNL     1     -10.626   9.369  70.472  1.00  0.00    -0.271 C  
HETATM    7  O   UNL     1      -9.426   9.628  70.561  1.00  0.00    -0.256 OA 
BRANCH   6   8
HETATM    8  N   UNL     1     -11.289   9.243  69.265  1.00  0.00    -0.431 N  
HETATM    9  H   UNL     1     -11.827   8.397  69.083  1.00  0.00     0.000 HD 
BRANCH   8  10
HETATM   10  C   UNL     1     -11.242  10.247  68.281  1.00  0.00    -0.232 A  
HETATM   11  C   UNL     1     -11.825  11.498  68.473  1.00  0.00    -0.365 A  
HETATM   12  C   UNL     1     -11.700  12.491  67.498  1.00  0.00    -0.439 A  
HETATM   13  C   UNL     1     -10.971  12.262  66.323  1.00  0.00    -0.291 A  
HETATM   14  C   UNL     1     -10.575   9.983  67.085  1.00  0.00    -0.296 A  
HETATM   15  C   UNL     1     -10.411  10.989  66.115  1.00  0.00    -0.306 A  
BRANCH  13  16
HETATM   16  O   UNL     1     -10.732  13.231  65.386  1.00  0.00    -0.285 OA 
BRANCH  16  17
HETATM   17  C   UNL     1     -11.795  14.154  65.101  1.00  0.00    -0.372 C  
BRANCH  17  18
HETATM   18  C   UNL     1     -11.193  15.477  64.610  1.00  0.00    -0.371 C  
HETATM   19  H   UNL     1     -11.834  17.051  63.625  1.00  0.00     0.000 HD 
HETATM   20  O   UNL     1     -12.207  16.231  63.929  1.00  0.00    -0.945 OA 
BRANCH  18  21
HETATM   21  C   UNL     1     -10.615  16.349  65.742  1.00  0.00    -0.315 C  
BRANCH  21  22
HETATM   22  N   UNL     1      -9.929  15.576  66.785  1.00  0.00    -0.243 NA 
HETATM   23  C   UNL     1     -10.165  16.041  68.168  1.00  0.00    -0.243 C  
HETATM   24  H   UNL     1      -8.927  15.539  66.593  1.00  0.00     0.000 HD 
HETATM   25  C   UNL     1      -9.296  15.164  69.090  1.00  0.00    -0.215 C  
HETATM   26  C   UNL     1     -11.634  15.855  68.586  1.00  0.00    -0.383 C  
HETATM   27  C   UNL     1      -9.743  17.507  68.357  1.00  0.00    -0.316 C  
ENDBRANCH  21  22
ENDBRANCH  18  21
ENDBRANCH  17  18
ENDBRANCH  16  17
ENDBRANCH  13  16
BRANCH  15  28
HETATM   28  C   UNL     1      -9.546  10.599  64.959  1.00  0.00    -0.265 C  
HETATM   29  O   UNL     1     -10.044  10.536  63.834  1.00  0.00    -0.327 OA 
HETATM   30  C   UNL     1      -8.075  10.340  65.141  1.00  0.00    -0.151 C  
ENDBRANCH  15  28
ENDBRANCH   8  10
ENDBRANCH   6   8
ENDBRANCH   3   6
ENDBRANCH   2   3
TORSDOF 11
ENDMDL
MODEL       12
REMARK 921   NORMALIZED FREE ENERGY PREDICTED BY IDOCK:   -5.98 KCAL/MOL
REMARK 922        TOTAL FREE ENERGY PREDICTED BY IDOCK:  -10.95 KCAL/MOL
REMARK 923 INTER-LIGAND FREE ENERGY PREDICTED BY IDOCK:   -9.83 KCAL/MOL
REMARK 924 INTRA-LIGAND FREE ENERGY PREDICTED BY IDOCK:   -1.13 KCAL/MOL
REMARK 927      BINDING AFFINITY PREDICTED BY RF-SCORE:    0.00 PKD
ROOT
HETATM    1  C   UNL     1      -6.172  20.655  68.231  1.00  0.00    -0.363 C  
HETATM    2  C   UNL     1      -7.367  19.712  68.206  1.00  0.00    -0.316 C  
ENDROOT
BRANCH   2   3
HETATM    3  N   UNL     1      -7.953  19.560  66.870  1.00  0.00    -0.267 N  
BRANCH   3   4
HETATM    4  C   UNL     1      -7.097  19.034  65.801  1.00  0.00    -0.253 C  
HETATM    5  C   UNL     1      -6.620  17.611  66.026  1.00  0.00    -0.280 C  
ENDBRANCH   3   4
BRANCH   3   6
HETATM    6  C   UNL     1      -9.333  19.730  66.764  1.00  0.00    -0.374 C  
HETATM    7  O   UNL     1      -9.915  20.670  67.303  1.00  0.00    -0.448 OA 
BRANCH   6   8
HETATM    8  N   UNL     1      -9.974  18.790  65.979  1.00  0.00    -0.321 N  
HETATM    9  H   UNL     1     -10.168  19.011  65.002  1.00  0.00     0.000 HD 
BRANCH   8  10
HETATM   10  C   UNL     1     -10.367  17.538  66.486  1.00  0.00    -0.325 A  
HETATM   11  C   UNL     1     -10.487  17.300  67.853  1.00  0.00    -0.382 A  
HETATM   12  C   UNL     1     -10.944  16.063  68.316  1.00  0.00    -0.335 A  
HETATM   13  C   UNL     1     -11.310  15.048  67.421  1.00  0.00    -0.332 A  
HETATM   14  C   UNL     1     -10.659  16.513  65.587  1.00  0.00    -0.317 A  
HETATM   15  C   UNL     1     -11.156  15.278  66.042  1.00  0.00    -0.278 A  
BRANCH  13  16
HETATM   16  O   UNL     1     -11.858  13.858  67.818  1.00  0.00    -0.344 OA 
BRANCH  16  17
HETATM   17  C   UNL     1     -11.174  13.123  68.845  1.00  0.00    -0.277 C  
BRANCH  17  18
HETATM   18  C   UNL     1     -11.779  11.716  68.943  1.00  0.00    -0.334 C  
HETATM   19  H   UNL     1     -12.399  10.345  67.680  1.00  0.00     0.000 HD 
HETATM   20  O   UNL     1     -12.024  11.217  67.619  1.00  0.00    -0.613 OA 
BRANCH  18  21
HETATM   21  C   UNL     1     -10.879  10.708  69.685  1.00  0.00    -0.268 C  
BRANCH  21  22
HETATM   22  N   UNL     1     -11.472   9.370  69.803  1.00  0.00    -0.440 NA 
HETATM   23  C   UNL     1     -11.632   8.876  71.187  1.00  0.00    -0.300 C  
HETATM   24  H   UNL     1     -10.939   8.699  69.249  1.00  0.00     0.000 HD 
HETATM   25  C   UNL     1     -12.180   7.439  71.088  1.00  0.00    -0.357 C  
HETATM   26  C   UNL     1     -12.650   9.716  71.977  1.00  0.00    -0.443 C  
HETATM   27  C   UNL     1     -10.290   8.830  71.935  1.00  0.00    -0.414 C  
ENDBRANCH  21  22
ENDBRANCH  18  21
ENDBRANCH  17  18
ENDBRANCH  16  17
ENDBRANCH  13  16
BRANCH  15  28
HETATM   28  C   UNL     1     -11.565  14.337  64.955  1.00  0.00    -0.367 C  
HETATM   29  O   UNL     1     -12.621  14.538  64.353  1.00  0.00    -0.665 OA 
HETATM   30  C   UNL     1     -10.683  13.186  64.550  1.00  0.00    -0.416 C  
ENDBRANCH  15  28
ENDBRANCH   8  10
ENDBRANCH   6   8
ENDBRANCH   3   6
ENDBRANCH   2   3
TORSDOF 11
ENDMDL
MODEL       13
REMARK 921   NORMALIZED FREE ENERGY PREDICTED BY IDOCK:   -5.97 KCAL/MOL
REMARK 922        TOTAL FREE ENERGY PREDICTED BY IDOCK:  -10.94 KCAL/MOL
REMARK 923 INTER-LIGAND FREE ENERGY PREDICTED BY IDOCK:   -8.79 KCAL/MOL
REMARK 924 INTRA-LIGAND FREE ENERGY PREDICTED BY IDOCK:   -2.15 KCAL/MOL
REMARK 927      BINDING AFFINITY PREDICTED BY RF-SCORE:    0.00 PKD
ROOT
HETATM    1  C   UNL     1      -8.279  14.507  67.836  1.00  0.00    -0.155 C  
HETATM    2  C   UNL     1      -8.385  15.508  66.694  1.00  0.00    -0.251 C  
ENDROOT
BRANCH   2   3
HETATM    3  N   UNL     1      -9.769  15.863  66.364  1.00  0.00    -0.266 N  
BRANCH   3   4
HETATM    4  C   UNL     1     -10.159  17.273  66.464  1.00  0.00    -0.309 C  
HETATM    5  C   UNL     1     -10.526  17.722  67.866  1.00  0.00    -0.401 C  
ENDBRANCH   3   4
BRANCH   3   6
HETATM    6  C   UNL     1     -10.553  14.867  65.782  1.00  0.00    -0.331 C  
HETATM    7  O   UNL     1     -10.165  14.216  64.813  1.00  0.00    -0.419 OA 
BRANCH   6   8
HETATM    8  N   UNL     1     -11.769  14.649  66.405  1.00  0.00    -0.355 N  
HETATM    9  H   UNL     1     -12.593  15.146  66.068  1.00  0.00     0.000 HD 
BRANCH   8  10
HETATM   10  C   UNL     1     -11.902  13.763  67.490  1.00  0.00    -0.387 A  
HETATM   11  C   UNL     1     -11.702  12.391  67.352  1.00  0.00    -0.417 A  
HETATM   12  C   UNL     1     -11.780  11.553  68.467  1.00  0.00    -0.379 A  
HETATM   13  C   UNL     1     -12.034  12.071  69.744  1.00  0.00    -0.300 A  
HETATM   14  C   UNL     1     -12.228  14.282  68.743  1.00  0.00    -0.226 A  
HETATM   15  C   UNL     1     -12.269  13.451  69.877  1.00  0.00    -0.337 A  
BRANCH  13  16
HETATM   16  O   UNL     1     -12.019  11.308  70.882  1.00  0.00    -0.326 OA 
BRANCH  16  17
HETATM   17  C   UNL     1     -13.178  10.506  71.157  1.00  0.00    -0.269 C  
BRANCH  17  18
HETATM   18  C   UNL     1     -12.807   9.424  72.180  1.00  0.00    -0.401 C  
HETATM   19  H   UNL     1     -13.715   7.906  73.035  1.00  0.00     0.000 HD 
HETATM   20  O   UNL     1     -13.945   8.576  72.401  1.00  0.00    -0.364 OA 
BRANCH  18  21
HETATM   21  C   UNL     1     -11.621   8.543  71.743  1.00  0.00    -0.312 C  
BRANCH  21  22
HETATM   22  N   UNL     1     -11.472   8.441  70.287  1.00  0.00    -0.454 NA 
HETATM   23  C   UNL     1     -10.081   8.295  69.807  1.00  0.00    -0.197 C  
HETATM   24  H   UNL     1     -11.920   9.236  69.831  1.00  0.00     0.000 HD 
HETATM   25  C   UNL     1     -10.137   8.295  68.267  1.00  0.00    -0.231 C  
HETATM   26  C   UNL     1      -9.460   6.962  70.258  1.00  0.00    -0.162 C  
HETATM   27  C   UNL     1      -9.197   9.469  70.258  1.00  0.00    -0.303 C  
ENDBRANCH  21  22
ENDBRANCH  18  21
ENDBRANCH  17  18
ENDBRANCH  16  17
ENDBRANCH  13  16
BRANCH  15  28
HETATM   28  C   UNL     1     -12.482  14.175  71.167  1.00  0.00    -0.371 C  
HETATM   29  O   UNL     1     -11.544  14.796  71.668  1.00  0.00    -0.330 OA 
HETATM   30  C   UNL     1     -13.833  14.201  71.831  1.00  0.00    -0.539 C  
ENDBRANCH  15  28
ENDBRANCH   8  10
ENDBRANCH   6   8
ENDBRANCH   3   6
ENDBRANCH   2   3
TORSDOF 11
ENDMDL
MODEL       14
REMARK 921   NORMALIZED FREE ENERGY PREDICTED BY IDOCK:   -5.97 KCAL/MOL
REMARK 922        TOTAL FREE ENERGY PREDICTED BY IDOCK:  -10.94 KCAL/MOL
REMARK 923 INTER-LIGAND FREE ENERGY PREDICTED BY IDOCK:   -9.73 KCAL/MOL
REMARK 924 INTRA-LIGAND FREE ENERGY PREDICTED BY IDOCK:   -1.21 KCAL/MOL
REMARK 927      BINDING AFFINITY PREDICTED BY RF-SCORE:    0.00 PKD
ROOT
HETATM    1  C   UNL     1     -11.383   6.385  70.279  1.00  0.00    -0.468 C  
HETATM    2  C   UNL     1     -12.215   7.026  71.381  1.00  0.00    -0.366 C  
ENDROOT
BRANCH   2   3
HETATM    3  N   UNL     1     -11.577   8.207  71.972  1.00  0.00    -0.306 N  
BRANCH   3   4
HETATM    4  C   UNL     1     -10.219   8.059  72.505  1.00  0.00    -0.294 C  
HETATM    5  C   UNL     1     -10.105   7.087  73.664  1.00  0.00    -0.376 C  
ENDBRANCH   3   4
BRANCH   3   6
HETATM    6  C   UNL     1     -12.228   9.428  71.798  1.00  0.00    -0.390 C  
HETATM    7  O   UNL     1     -13.409   9.585  72.108  1.00  0.00    -0.414 OA 
BRANCH   6   8
HETATM    8  N   UNL     1     -11.434  10.442  71.295  1.00  0.00    -0.203 N  
HETATM    9  H   UNL     1     -10.827  10.956  71.933  1.00  0.00     0.000 HD 
BRANCH   8  10
HETATM   10  C   UNL     1     -11.438  10.784  69.931  1.00  0.00    -0.321 A  
HETATM   11  C   UNL     1     -11.921  12.010  69.478  1.00  0.00    -0.346 A  
HETATM   12  C   UNL     1     -11.848  12.339  68.122  1.00  0.00    -0.372 A  
HETATM   13  C   UNL     1     -11.270  11.460  67.196  1.00  0.00    -0.296 A  
HETATM   14  C   UNL     1     -10.927   9.871  69.009  1.00  0.00    -0.223 A  
HETATM   15  C   UNL     1     -10.813  10.210  67.649  1.00  0.00    -0.346 A  
BRANCH  13  16
HETATM   16  O   UNL     1     -11.081  11.776  65.877  1.00  0.00    -0.309 OA 
BRANCH  16  17
HETATM   17  C   UNL     1     -12.160  12.433  65.192  1.00  0.00    -0.405 C  
BRANCH  17  18
HETATM   18  C   UNL     1     -11.578  13.445  64.196  1.00  0.00    -0.398 C  
HETATM   19  H   UNL     1     -12.220  15.051  63.265  1.00  0.00     0.000 HD 
HETATM   20  O   UNL     1     -12.580  14.424  63.882  1.00  0.00    -0.814 OA 
BRANCH  18  21
HETATM   21  C   UNL     1     -10.329  14.178  64.721  1.00  0.00    -0.359 C  
BRANCH  21  22
HETATM   22  N   UNL     1     -10.488  15.636  64.783  1.00  0.00    -0.631 NA 
HETATM   23  C   UNL     1     -10.108  16.253  66.072  1.00  0.00    -0.356 C  
HETATM   24  H   UNL     1     -11.443  15.896  64.537  1.00  0.00     0.000 HD 
HETATM   25  C   UNL     1     -10.430  17.756  65.960  1.00  0.00    -0.286 C  
HETATM   26  C   UNL     1      -8.601  16.112  66.348  1.00  0.00    -0.365 C  
HETATM   27  C   UNL     1     -10.916  15.672  67.243  1.00  0.00    -0.275 C  
ENDBRANCH  21  22
ENDBRANCH  18  21
ENDBRANCH  17  18
ENDBRANCH  16  17
ENDBRANCH  13  16
BRANCH  15  28
HETATM   28  C   UNL     1     -10.109   9.189  66.813  1.00  0.00    -0.271 C  
HETATM   29  O   UNL     1      -9.170   9.544  66.099  1.00  0.00    -0.154 OA 
HETATM   30  C   UNL     1     -10.492   7.735  66.875  1.00  0.00    -0.388 C  
ENDBRANCH  15  28
ENDBRANCH   8  10
ENDBRANCH   6   8
ENDBRANCH   3   6
ENDBRANCH   2   3
TORSDOF 11
ENDMDL
MODEL       15
REMARK 921   NORMALIZED FREE ENERGY PREDICTED BY IDOCK:   -5.93 KCAL/MOL
REMARK 922        TOTAL FREE ENERGY PREDICTED BY IDOCK:  -10.88 KCAL/MOL
REMARK 923 INTER-LIGAND FREE ENERGY PREDICTED BY IDOCK:   -9.92 KCAL/MOL
REMARK 924 INTRA-LIGAND FREE ENERGY PREDICTED BY IDOCK:   -0.96 KCAL/MOL
REMARK 927      BINDING AFFINITY PREDICTED BY RF-SCORE:    0.00 PKD
ROOT
HETATM    1  C   UNL     1     -11.047   5.621  71.428  1.00  0.00    -0.221 C  
HETATM    2  C   UNL     1     -12.035   6.695  70.992  1.00  0.00    -0.359 C  
ENDROOT
BRANCH   2   3
HETATM    3  N   UNL     1     -12.122   7.815  71.933  1.00  0.00    -0.293 N  
BRANCH   3   4
HETATM    4  C   UNL     1     -10.920   8.162  72.701  1.00  0.00    -0.370 C  
HETATM    5  C   UNL     1      -9.810   8.783  71.874  1.00  0.00    -0.395 C  
ENDBRANCH   3   4
BRANCH   3   6
HETATM    6  C   UNL     1     -13.276   8.597  71.879  1.00  0.00    -0.375 C  
HETATM    7  O   UNL     1     -14.325   8.174  71.394  1.00  0.00    -0.407 OA 
BRANCH   6   8
HETATM    8  N   UNL     1     -13.153   9.852  72.446  1.00  0.00    -0.506 N  
HETATM    9  H   UNL     1     -13.208   9.944  73.460  1.00  0.00     0.000 HD 
BRANCH   8  10
HETATM   10  C   UNL     1     -12.955  11.005  71.666  1.00  0.00    -0.456 A  
HETATM   11  C   UNL     1     -13.275  12.278  72.134  1.00  0.00    -0.466 A  
HETATM   12  C   UNL     1     -13.002  13.405  71.354  1.00  0.00    -0.412 A  
HETATM   13  C   UNL     1     -12.383  13.285  70.103  1.00  0.00    -0.236 A  
HETATM   14  C   UNL     1     -12.406  10.867  70.392  1.00  0.00    -0.436 A  
HETATM   15  C   UNL     1     -12.091  11.998  69.617  1.00  0.00    -0.295 A  
BRANCH  13  16
HETATM   16  O   UNL     1     -12.001  14.360  69.346  1.00  0.00    -0.301 OA 
BRANCH  16  17
HETATM   17  C   UNL     1     -12.023  15.653  69.973  1.00  0.00    -0.368 C  
BRANCH  17  18
HETATM   18  C   UNL     1     -10.717  16.389  69.650  1.00  0.00    -0.337 C  
HETATM   19  H   UNL     1      -8.810  15.926  69.561  1.00  0.00     0.000 HD 
HETATM   20  O   UNL     1      -9.619  15.470  69.761  1.00  0.00    -0.279 OA 
BRANCH  18  21
HETATM   21  C   UNL     1     -10.691  17.009  68.240  1.00  0.00    -0.372 C  
BRANCH  21  22
HETATM   22  N   UNL     1      -9.473  17.778  67.959  1.00  0.00    -0.273 NA 
HETATM   23  C   UNL     1      -9.697  19.130  67.404  1.00  0.00    -0.320 C  
HETATM   24  H   UNL     1      -8.854  17.245  67.347  1.00  0.00     0.000 HD 
HETATM   25  C   UNL     1      -8.309  19.726  67.101  1.00  0.00    -0.355 C  
HETATM   26  C   UNL     1     -10.397  20.051  68.418  1.00  0.00    -0.465 C  
HETATM   27  C   UNL     1     -10.499  19.082  66.093  1.00  0.00    -0.541 C  
ENDBRANCH  21  22
ENDBRANCH  18  21
ENDBRANCH  17  18
ENDBRANCH  16  17
ENDBRANCH  13  16
BRANCH  15  28
HETATM   28  C   UNL     1     -11.371  11.695  68.342  1.00  0.00    -0.279 C  
HETATM   29  O   UNL     1     -12.025  11.480  67.320  1.00  0.00    -0.605 OA 
HETATM   30  C   UNL     1      -9.867  11.703  68.278  1.00  0.00    -0.199 C  
ENDBRANCH  15  28
ENDBRANCH   8  10
ENDBRANCH   6   8
ENDBRANCH   3   6
ENDBRANCH   2   3
TORSDOF 11
ENDMDL
MODEL       16
REMARK 921   NORMALIZED FREE ENERGY PREDICTED BY IDOCK:   -5.91 KCAL/MOL
REMARK 922        TOTAL FREE ENERGY PREDICTED BY IDOCK:  -10.85 KCAL/MOL
REMARK 923 INTER-LIGAND FREE ENERGY PREDICTED BY IDOCK:   -9.88 KCAL/MOL
REMARK 924 INTRA-LIGAND FREE ENERGY PREDICTED BY IDOCK:   -0.96 KCAL/MOL
REMARK 927      BINDING AFFINITY PREDICTED BY RF-SCORE:    0.00 PKD
ROOT
HETATM    1  C   UNL     1     -10.633   6.969  73.235  1.00  0.00    -0.378 C  
HETATM    2  C   UNL     1     -11.439   8.084  72.584  1.00  0.00    -0.402 C  
ENDROOT
BRANCH   2   3
HETATM    3  N   UNL     1     -11.392   8.050  71.119  1.00  0.00    -0.261 N  
BRANCH   3   4
HETATM    4  C   UNL     1     -12.003   6.902  70.439  1.00  0.00    -0.258 C  
HETATM    5  C   UNL     1     -11.146   6.296  69.344  1.00  0.00    -0.477 C  
ENDBRANCH   3   4
BRANCH   3   6
HETATM    6  C   UNL     1     -10.954   9.207  70.475  1.00  0.00    -0.258 C  
HETATM    7  O   UNL     1      -9.779   9.567  70.514  1.00  0.00    -0.250 OA 
BRANCH   6   8
HETATM    8  N   UNL     1     -11.932   9.880  69.765  1.00  0.00    -0.465 N  
HETATM    9  H   UNL     1     -12.904   9.591  69.867  1.00  0.00     0.000 HD 
BRANCH   8  10
HETATM   10  C   UNL     1     -11.625  10.952  68.907  1.00  0.00    -0.309 A  
HETATM   11  C   UNL     1     -11.758  12.280  69.307  1.00  0.00    -0.388 A  
HETATM   12  C   UNL     1     -11.380  13.315  68.449  1.00  0.00    -0.326 A  
HETATM   13  C   UNL     1     -10.841  13.045  67.184  1.00  0.00    -0.260 A  
HETATM   14  C   UNL     1     -11.159  10.670  67.624  1.00  0.00    -0.385 A  
HETATM   15  C   UNL     1     -10.740  11.705  66.768  1.00  0.00    -0.299 A  
BRANCH  13  16
HETATM   16  O   UNL     1     -10.362  14.016  66.347  1.00  0.00    -0.278 OA 
BRANCH  16  17
HETATM   17  C   UNL     1     -11.304  14.668  65.479  1.00  0.00    -0.341 C  
BRANCH  17  18
HETATM   18  C   UNL     1     -10.712  16.002  65.007  1.00  0.00    -0.378 C  
HETATM   19  H   UNL     1     -11.255  17.447  63.792  1.00  0.00     0.000 HD 
HETATM   20  O   UNL     1     -11.621  16.620  64.084  1.00  0.00    -1.102 OA 
BRANCH  18  21
HETATM   21  C   UNL     1     -10.434  16.993  66.154  1.00  0.00    -0.271 C  
BRANCH  21  22
HETATM   22  N   UNL     1      -9.154  17.700  66.020  1.00  0.00    -0.514 NA 
HETATM   23  C   UNL     1      -9.041  18.946  66.809  1.00  0.00    -0.312 C  
HETATM   24  H   UNL     1      -8.957  17.887  65.037  1.00  0.00     0.000 HD 
HETATM   25  C   UNL     1      -7.676  19.572  66.462  1.00  0.00    -0.294 C  
HETATM   26  C   UNL     1      -9.062  18.665  68.321  1.00  0.00    -0.347 C  
HETATM   27  C   UNL     1     -10.141  19.955  66.443  1.00  0.00    -0.615 C  
ENDBRANCH  21  22
ENDBRANCH  18  21
ENDBRANCH  17  18
ENDBRANCH  16  17
ENDBRANCH  13  16
BRANCH  15  28
HETATM   28  C   UNL     1     -10.125  11.239  65.487  1.00  0.00    -0.257 C  
HETATM   29  O   UNL     1      -8.959  10.839  65.492  1.00  0.00    -0.183 OA 
HETATM   30  C   UNL     1     -10.922  11.198  64.211  1.00  0.00    -0.276 C  
ENDBRANCH  15  28
ENDBRANCH   8  10
ENDBRANCH   6   8
ENDBRANCH   3   6
ENDBRANCH   2   3
TORSDOF 11
ENDMDL
MODEL       17
REMARK 921   NORMALIZED FREE ENERGY PREDICTED BY IDOCK:   -5.90 KCAL/MOL
REMARK 922        TOTAL FREE ENERGY PREDICTED BY IDOCK:  -10.83 KCAL/MOL
REMARK 923 INTER-LIGAND FREE ENERGY PREDICTED BY IDOCK:  -10.15 KCAL/MOL
REMARK 924 INTRA-LIGAND FREE ENERGY PREDICTED BY IDOCK:   -0.68 KCAL/MOL
REMARK 927      BINDING AFFINITY PREDICTED BY RF-SCORE:    0.00 PKD
ROOT
HETATM    1  C   UNL     1     -10.940   5.887  70.737  1.00  0.00    -0.343 C  
HETATM    2  C   UNL     1     -11.906   6.967  70.270  1.00  0.00    -0.258 C  
ENDROOT
BRANCH   2   3
HETATM    3  N   UNL     1     -11.478   8.321  70.635  1.00  0.00    -0.259 N  
BRANCH   3   4
HETATM    4  C   UNL     1     -11.927   8.859  71.924  1.00  0.00    -0.371 C  
HETATM    5  C   UNL     1     -13.041   9.884  71.818  1.00  0.00    -0.553 C  
ENDBRANCH   3   4
BRANCH   3   6
HETATM    6  C   UNL     1     -10.510   8.916  69.826  1.00  0.00    -0.212 C  
HETATM    7  O   UNL     1      -9.375   9.155  70.238  1.00  0.00    -0.185 OA 
BRANCH   6   8
HETATM    8  N   UNL     1     -10.916   9.171  68.529  1.00  0.00    -0.456 N  
HETATM    9  H   UNL     1     -11.113   8.385  67.910  1.00  0.00     0.000 HD 
BRANCH   8  10
HETATM   10  C   UNL     1     -11.064  10.481  68.039  1.00  0.00    -0.300 A  
HETATM   11  C   UNL     1     -10.852  10.796  66.698  1.00  0.00    -0.228 A  
HETATM   12  C   UNL     1     -11.073  12.097  66.237  1.00  0.00    -0.353 A  
HETATM   13  C   UNL     1     -11.532  13.101  67.100  1.00  0.00    -0.334 A  
HETATM   14  C   UNL     1     -11.449  11.488  68.923  1.00  0.00    -0.352 A  
HETATM   15  C   UNL     1     -11.712  12.789  68.460  1.00  0.00    -0.371 A  
BRANCH  13  16
HETATM   16  O   UNL     1     -11.861  14.361  66.679  1.00  0.00    -0.389 OA 
BRANCH  16  17
HETATM   17  C   UNL     1     -12.123  14.545  65.279  1.00  0.00    -0.337 C  
BRANCH  17  18
HETATM   18  C   UNL     1     -11.099  15.532  64.703  1.00  0.00    -0.359 C  
HETATM   19  H   UNL     1     -11.150  17.118  63.545  1.00  0.00     0.000 HD 
HETATM   20  O   UNL     1     -11.785  16.506  63.901  1.00  0.00    -1.148 OA 
BRANCH  18  21
HETATM   21  C   UNL     1     -10.284  16.274  65.780  1.00  0.00    -0.367 C  
BRANCH  21  22
HETATM   22  N   UNL     1     -10.496  17.726  65.779  1.00  0.00    -0.583 NA 
HETATM   23  C   UNL     1      -9.736  18.471  66.805  1.00  0.00    -0.333 C  
HETATM   24  H   UNL     1     -11.491  17.936  65.857  1.00  0.00     0.000 HD 
HETATM   25  C   UNL     1     -10.163  19.948  66.693  1.00  0.00    -0.609 C  
HETATM   26  C   UNL     1      -8.219  18.398  66.554  1.00  0.00    -0.289 C  
HETATM   27  C   UNL     1     -10.061  17.980  68.225  1.00  0.00    -0.390 C  
ENDBRANCH  21  22
ENDBRANCH  18  21
ENDBRANCH  17  18
ENDBRANCH  16  17
ENDBRANCH  13  16
BRANCH  15  28
HETATM   28  C   UNL     1     -12.261  13.716  69.496  1.00  0.00    -0.264 C  
HETATM   29  O   UNL     1     -12.768  13.244  70.516  1.00  0.00    -0.214 OA 
HETATM   30  C   UNL     1     -12.155  15.210  69.339  1.00  0.00    -0.293 C  
ENDBRANCH  15  28
ENDBRANCH   8  10
ENDBRANCH   6   8
ENDBRANCH   3   6
ENDBRANCH   2   3
TORSDOF 11
ENDMDL
MODEL       18
REMARK 921   NORMALIZED FREE ENERGY PREDICTED BY IDOCK:   -5.90 KCAL/MOL
REMARK 922        TOTAL FREE ENERGY PREDICTED BY IDOCK:  -10.83 KCAL/MOL
REMARK 923 INTER-LIGAND FREE ENERGY PREDICTED BY IDOCK:   -9.32 KCAL/MOL
REMARK 924 INTRA-LIGAND FREE ENERGY PREDICTED BY IDOCK:   -1.51 KCAL/MOL
REMARK 927      BINDING AFFINITY PREDICTED BY RF-SCORE:    0.00 PKD
ROOT
HETATM    1  C   UNL     1      -8.063   8.900  68.974  1.00  0.00    -0.115 C  
HETATM    2  C   UNL     1      -8.996   9.404  70.066  1.00  0.00    -0.212 C  
ENDROOT
BRANCH   2   3
HETATM    3  N   UNL     1     -10.371   8.915  69.920  1.00  0.00    -0.200 N  
BRANCH   3   4
HETATM    4  C   UNL     1     -10.595   7.736  69.076  1.00  0.00    -0.166 C  
HETATM    5  C   UNL     1     -11.294   6.588  69.780  1.00  0.00    -0.456 C  
ENDBRANCH   3   4
BRANCH   3   6
HETATM    6  C   UNL     1     -11.334   9.481  70.755  1.00  0.00    -0.321 C  
HETATM    7  O   UNL     1     -11.270   9.383  71.980  1.00  0.00    -0.287 OA 
BRANCH   6   8
HETATM    8  N   UNL     1     -12.327  10.187  70.101  1.00  0.00    -0.504 N  
HETATM    9  H   UNL     1     -13.293   9.870  70.180  1.00  0.00     0.000 HD 
BRANCH   8  10
HETATM   10  C   UNL     1     -12.045  11.328  69.329  1.00  0.00    -0.303 A  
HETATM   11  C   UNL     1     -11.841  11.257  67.953  1.00  0.00    -0.209 A  
HETATM   12  C   UNL     1     -11.628  12.422  67.211  1.00  0.00    -0.435 A  
HETATM   13  C   UNL     1     -11.637  13.682  67.826  1.00  0.00    -0.338 A  
HETATM   14  C   UNL     1     -11.984  12.568  69.964  1.00  0.00    -0.372 A  
HETATM   15  C   UNL     1     -11.809  13.749  69.220  1.00  0.00    -0.392 A  
BRANCH  13  16
HETATM   16  O   UNL     1     -11.536  14.858  67.132  1.00  0.00    -0.362 OA 
BRANCH  16  17
HETATM   17  C   UNL     1     -11.337  14.774  65.712  1.00  0.00    -0.336 C  
BRANCH  17  18
HETATM   18  C   UNL     1     -10.587  16.026  65.236  1.00  0.00    -0.402 C  
HETATM   19  H   UNL     1     -10.883  17.440  63.905  1.00  0.00     0.000 HD 
HETATM   20  O   UNL     1     -11.348  16.664  64.199  1.00  0.00    -1.141 OA 
BRANCH  18  21
HETATM   21  C   UNL     1     -10.331  17.053  66.356  1.00  0.00    -0.303 C  
BRANCH  21  22
HETATM   22  N   UNL     1      -9.366  16.595  67.363  1.00  0.00    -0.221 NA 
HETATM   23  C   UNL     1      -8.351  17.593  67.759  1.00  0.00    -0.226 C  
HETATM   24  H   UNL     1      -8.912  15.736  67.050  1.00  0.00     0.000 HD 
HETATM   25  C   UNL     1      -7.395  16.893  68.744  1.00  0.00    -0.227 C  
HETATM   26  C   UNL     1      -8.985  18.792  68.486  1.00  0.00    -0.375 C  
HETATM   27  C   UNL     1      -7.530  18.081  66.554  1.00  0.00    -0.275 C  
ENDBRANCH  21  22
ENDBRANCH  18  21
ENDBRANCH  17  18
ENDBRANCH  16  17
ENDBRANCH  13  16
BRANCH  15  28
HETATM   28  C   UNL     1     -11.917  15.007  70.020  1.00  0.00    -0.332 C  
HETATM   29  O   UNL     1     -11.020  15.848  69.940  1.00  0.00    -0.285 OA 
HETATM   30  C   UNL     1     -13.125  15.284  70.875  1.00  0.00    -0.523 C  
ENDBRANCH  15  28
ENDBRANCH   8  10
ENDBRANCH   6   8
ENDBRANCH   3   6
ENDBRANCH   2   3
TORSDOF 11
ENDMDL
MODEL       19
REMARK 921   NORMALIZED FREE ENERGY PREDICTED BY IDOCK:   -5.90 KCAL/MOL
REMARK 922        TOTAL FREE ENERGY PREDICTED BY IDOCK:  -10.82 KCAL/MOL
REMARK 923 INTER-LIGAND FREE ENERGY PREDICTED BY IDOCK:   -9.58 KCAL/MOL
REMARK 924 INTRA-LIGAND FREE ENERGY PREDICTED BY IDOCK:   -1.25 KCAL/MOL
REMARK 927      BINDING AFFINITY PREDICTED BY RF-SCORE:    0.00 PKD
ROOT
HETATM    1  C   UNL     1     -10.025   8.469  72.704  1.00  0.00    -0.265 C  
HETATM    2  C   UNL     1     -11.306   7.653  72.804  1.00  0.00    -0.367 C  
ENDROOT
BRANCH   2   3
HETATM    3  N   UNL     1     -12.110   7.687  71.578  1.00  0.00    -0.299 N  
BRANCH   3   4
HETATM    4  C   UNL     1     -11.605   6.963  70.406  1.00  0.00    -0.335 C  
HETATM    5  C   UNL     1     -10.737   5.763  70.740  1.00  0.00    -0.342 C  
ENDBRANCH   3   4
BRANCH   3   6
HETATM    6  C   UNL     1     -13.389   8.232  71.677  1.00  0.00    -0.330 C  
HETATM    7  O   UNL     1     -14.391   7.606  71.334  1.00  0.00    -0.433 OA 
BRANCH   6   8
HETATM    8  N   UNL     1     -13.437   9.501  72.226  1.00  0.00    -0.545 N  
HETATM    9  H   UNL     1     -13.798   9.617  73.172  1.00  0.00     0.000 HD 
BRANCH   8  10
HETATM   10  C   UNL     1     -13.004  10.636  71.517  1.00  0.00    -0.461 A  
HETATM   11  C   UNL     1     -13.165  11.926  72.018  1.00  0.00    -0.461 A  
HETATM   12  C   UNL     1     -12.662  13.023  71.313  1.00  0.00    -0.385 A  
HETATM   13  C   UNL     1     -11.970  12.851  70.107  1.00  0.00    -0.301 A  
HETATM   14  C   UNL     1     -12.382  10.457  70.282  1.00  0.00    -0.327 A  
HETATM   15  C   UNL     1     -11.839  11.552  69.585  1.00  0.00    -0.421 A  
BRANCH  13  16
HETATM   16  O   UNL     1     -11.370  13.880  69.431  1.00  0.00    -0.256 OA 
BRANCH  16  17
HETATM   17  C   UNL     1     -12.069  15.135  69.379  1.00  0.00    -0.260 C  
BRANCH  17  18
HETATM   18  C   UNL     1     -11.394  16.041  68.341  1.00  0.00    -0.355 C  
HETATM   19  H   UNL     1      -9.914  17.332  68.329  1.00  0.00     0.000 HD 
HETATM   20  O   UNL     1     -10.332  16.771  68.973  1.00  0.00    -0.287 OA 
BRANCH  18  21
HETATM   21  C   UNL     1     -10.810  15.273  67.139  1.00  0.00    -0.322 C  
BRANCH  21  22
HETATM   22  N   UNL     1     -11.696  14.220  66.630  1.00  0.00    -0.384 NA 
HETATM   23  C   UNL     1     -11.582  13.950  65.181  1.00  0.00    -0.335 C  
HETATM   24  H   UNL     1     -12.665  14.427  66.874  1.00  0.00     0.000 HD 
HETATM   25  C   UNL     1     -12.645  12.888  64.838  1.00  0.00    -0.525 C  
HETATM   26  C   UNL     1     -10.203  13.372  64.818  1.00  0.00    -0.339 C  
HETATM   27  C   UNL     1     -11.866  15.206  64.342  1.00  0.00    -0.314 C  
ENDBRANCH  21  22
ENDBRANCH  18  21
ENDBRANCH  17  18
ENDBRANCH  16  17
ENDBRANCH  13  16
BRANCH  15  28
HETATM   28  C   UNL     1     -11.072  11.185  68.355  1.00  0.00    -0.247 C  
HETATM   29  O   UNL     1     -11.672  11.078  67.284  1.00  0.00    -0.504 OA 
HETATM   30  C   UNL     1      -9.579  11.000  68.395  1.00  0.00    -0.181 C  
ENDBRANCH  15  28
ENDBRANCH   8  10
ENDBRANCH   6   8
ENDBRANCH   3   6
ENDBRANCH   2   3
TORSDOF 11
ENDMDL
MODEL       20
REMARK 921   NORMALIZED FREE ENERGY PREDICTED BY IDOCK:   -5.88 KCAL/MOL
REMARK 922        TOTAL FREE ENERGY PREDICTED BY IDOCK:  -10.79 KCAL/MOL
REMARK 923 INTER-LIGAND FREE ENERGY PREDICTED BY IDOCK:   -9.70 KCAL/MOL
REMARK 924 INTRA-LIGAND FREE ENERGY PREDICTED BY IDOCK:   -1.09 KCAL/MOL
REMARK 927      BINDING AFFINITY PREDICTED BY RF-SCORE:    0.00 PKD
ROOT
HETATM    1  C   UNL     1      -9.224   8.828  71.307  1.00  0.00    -0.309 C  
HETATM    2  C   UNL     1     -10.334   8.562  72.315  1.00  0.00    -0.332 C  
ENDROOT
BRANCH   2   3
HETATM    3  N   UNL     1     -11.572   8.080  71.695  1.00  0.00    -0.264 N  
BRANCH   3   4
HETATM    4  C   UNL     1     -11.595   6.705  71.186  1.00  0.00    -0.332 C  
HETATM    5  C   UNL     1     -11.427   6.593  69.682  1.00  0.00    -0.358 C  
ENDBRANCH   3   4
BRANCH   3   6
HETATM    6  C   UNL     1     -12.699   8.893  71.822  1.00  0.00    -0.364 C  
HETATM    7  O   UNL     1     -13.280   9.035  72.897  1.00  0.00    -0.339 OA 
BRANCH   6   8
HETATM    8  N   UNL     1     -13.074   9.547  70.663  1.00  0.00    -0.544 N  
HETATM    9  H   UNL     1     -13.772   9.117  70.057  1.00  0.00     0.000 HD 
BRANCH   8  10
HETATM   10  C   UNL     1     -12.523  10.788  70.296  1.00  0.00    -0.317 A  
HETATM   11  C   UNL     1     -11.722  10.935  69.165  1.00  0.00    -0.397 A  
HETATM   12  C   UNL     1     -11.247  12.196  68.797  1.00  0.00    -0.314 A  
HETATM   13  C   UNL     1     -11.581  13.338  69.538  1.00  0.00    -0.286 A  
HETATM   14  C   UNL     1     -12.802  11.905  71.082  1.00  0.00    -0.346 A  
HETATM   15  C   UNL     1     -12.361  13.184  70.698  1.00  0.00    -0.405 A  
BRANCH  13  16
HETATM   16  O   UNL     1     -11.228  14.607  69.164  1.00  0.00    -0.245 OA 
BRANCH  16  17
HETATM   17  C   UNL     1     -11.437  14.975  67.791  1.00  0.00    -0.334 C  
BRANCH  17  18
HETATM   18  C   UNL     1     -10.141  15.575  67.230  1.00  0.00    -0.250 C  
HETATM   19  H   UNL     1      -8.601  14.919  66.201  1.00  0.00     0.000 HD 
HETATM   20  O   UNL     1      -9.404  14.548  66.549  1.00  0.00    -0.269 OA 
BRANCH  18  21
HETATM   21  C   UNL     1     -10.374  16.739  66.248  1.00  0.00    -0.310 C  
BRANCH  21  22
HETATM   22  N   UNL     1      -9.210  17.619  66.094  1.00  0.00    -0.487 NA 
HETATM   23  C   UNL     1      -9.429  19.025  66.498  1.00  0.00    -0.345 C  
HETATM   24  H   UNL     1      -8.862  17.579  65.136  1.00  0.00     0.000 HD 
HETATM   25  C   UNL     1      -8.129  19.789  66.179  1.00  0.00    -0.357 C  
HETATM   26  C   UNL     1      -9.691  19.148  68.009  1.00  0.00    -0.414 C  
HETATM   27  C   UNL     1     -10.577  19.673  65.708  1.00  0.00    -0.537 C  
ENDBRANCH  21  22
ENDBRANCH  18  21
ENDBRANCH  17  18
ENDBRANCH  16  17
ENDBRANCH  13  16
BRANCH  15  28
HETATM   28  C   UNL     1     -12.866  14.298  71.558  1.00  0.00    -0.346 C  
HETATM   29  O   UNL     1     -14.076  14.530  71.588  1.00  0.00    -0.415 OA 
HETATM   30  C   UNL     1     -11.931  15.098  72.424  1.00  0.00    -0.488 C  
ENDBRANCH  15  28
ENDBRANCH   8  10
ENDBRANCH   6   8
ENDBRANCH   3   6
ENDBRANCH   2   3
TORSDOF 11
ENDMDL
MODEL       21
REMARK 921   NORMALIZED FREE ENERGY PREDICTED BY IDOCK:   -5.82 KCAL/MOL
REMARK 922        TOTAL FREE ENERGY PREDICTED BY IDOCK:  -10.70 KCAL/MOL
REMARK 923 INTER-LIGAND FREE ENERGY PREDICTED BY IDOCK:   -8.92 KCAL/MOL
REMARK 924 INTRA-LIGAND FREE ENERGY PREDICTED BY IDOCK:   -1.78 KCAL/MOL
REMARK 927      BINDING AFFINITY PREDICTED BY RF-SCORE:    0.00 PKD
ROOT
HETATM    1  C   UNL     1      -8.290  11.053  68.628  1.00  0.00    -0.153 C  
HETATM    2  C   UNL     1      -8.371   9.593  69.052  1.00  0.00    -0.122 C  
ENDROOT
BRANCH   2   3
HETATM    3  N   UNL     1      -9.745   9.082  69.104  1.00  0.00    -0.164 N  
BRANCH   3   4
HETATM    4  C   UNL     1     -10.099   7.974  68.210  1.00  0.00    -0.196 C  
HETATM    5  C   UNL     1     -10.102   8.337  66.737  1.00  0.00    -0.373 C  
ENDBRANCH   3   4
BRANCH   3   6
HETATM    6  C   UNL     1     -10.552   9.549  70.141  1.00  0.00    -0.254 C  
HETATM    7  O   UNL     1     -10.186   9.516  71.315  1.00  0.00    -0.296 OA 
BRANCH   6   8
HETATM    8  N   UNL     1     -11.763  10.082  69.738  1.00  0.00    -0.442 N  
HETATM    9  H   UNL     1     -12.618   9.555  69.913  1.00  0.00     0.000 HD 
BRANCH   8  10
HETATM   10  C   UNL     1     -11.850  11.329  69.094  1.00  0.00    -0.355 A  
HETATM   11  C   UNL     1     -11.778  12.530  69.796  1.00  0.00    -0.355 A  
HETATM   12  C   UNL     1     -11.802  13.749  69.112  1.00  0.00    -0.398 A  
HETATM   13  C   UNL     1     -11.877  13.790  67.713  1.00  0.00    -0.369 A  
HETATM   14  C   UNL     1     -11.998  11.358  67.707  1.00  0.00    -0.073 A  
HETATM   15  C   UNL     1     -11.985  12.578  67.008  1.00  0.00    -0.295 A  
BRANCH  13  16
HETATM   16  O   UNL     1     -11.801  14.951  66.991  1.00  0.00    -0.327 OA 
BRANCH  16  17
HETATM   17  C   UNL     1     -10.655  15.791  67.204  1.00  0.00    -0.313 C  
BRANCH  17  18
HETATM   18  C   UNL     1      -9.705  15.655  66.007  1.00  0.00    -0.346 C  
HETATM   19  H   UNL     1      -9.876  15.649  64.050  1.00  0.00     0.000 HD 
HETATM   20  O   UNL     1     -10.465  15.733  64.792  1.00  0.00    -0.490 OA 
BRANCH  18  21
HETATM   21  C   UNL     1      -8.607  16.736  65.965  1.00  0.00    -0.178 C  
BRANCH  21  22
HETATM   22  N   UNL     1      -9.129  18.104  66.068  1.00  0.00    -0.521 NA 
HETATM   23  C   UNL     1      -8.407  18.981  67.015  1.00  0.00    -0.276 C  
HETATM   24  H   UNL     1     -10.123  18.086  66.295  1.00  0.00     0.000 HD 
HETATM   25  C   UNL     1      -9.157  20.327  67.040  1.00  0.00    -0.481 C  
HETATM   26  C   UNL     1      -6.964  19.252  66.552  1.00  0.00    -0.221 C  
HETATM   27  C   UNL     1      -8.404  18.402  68.440  1.00  0.00    -0.328 C  
ENDBRANCH  21  22
ENDBRANCH  18  21
ENDBRANCH  17  18
ENDBRANCH  16  17
ENDBRANCH  13  16
BRANCH  15  28
HETATM   28  C   UNL     1     -12.000  12.439  65.520  1.00  0.00    -0.391 C  
HETATM   29  O   UNL     1     -13.042  12.675  64.906  1.00  0.00    -0.850 OA 
HETATM   30  C   UNL     1     -10.753  12.073  64.760  1.00  0.00    -0.352 C  
ENDBRANCH  15  28
ENDBRANCH   8  10
ENDBRANCH   6   8
ENDBRANCH   3   6
ENDBRANCH   2   3
TORSDOF 11
ENDMDL
MODEL       22
REMARK 921   NORMALIZED FREE ENERGY PREDICTED BY IDOCK:   -5.80 KCAL/MOL
REMARK 922        TOTAL FREE ENERGY PREDICTED BY IDOCK:  -10.65 KCAL/MOL
REMARK 923 INTER-LIGAND FREE ENERGY PREDICTED BY IDOCK:   -9.17 KCAL/MOL
REMARK 924 INTRA-LIGAND FREE ENERGY PREDICTED BY IDOCK:   -1.49 KCAL/MOL
REMARK 927      BINDING AFFINITY PREDICTED BY RF-SCORE:    0.00 PKD
ROOT
HETATM    1  C   UNL     1      -9.664  19.860  66.278  1.00  0.00    -0.551 C  
HETATM    2  C   UNL     1     -10.676  19.173  67.185  1.00  0.00    -0.471 C  
ENDROOT
BRANCH   2   3
HETATM    3  N   UNL     1     -10.509  17.717  67.236  1.00  0.00    -0.351 N  
BRANCH   3   4
HETATM    4  C   UNL     1     -10.410  16.992  65.964  1.00  0.00    -0.315 C  
HETATM    5  C   UNL     1      -9.411  15.850  65.972  1.00  0.00    -0.389 C  
ENDBRANCH   3   4
BRANCH   3   6
HETATM    6  C   UNL     1     -10.251  17.155  68.486  1.00  0.00    -0.346 C  
HETATM    7  O   UNL     1      -9.105  17.018  68.913  1.00  0.00    -0.262 OA 
BRANCH   6   8
HETATM    8  N   UNL     1     -11.378  16.810  69.210  1.00  0.00    -0.234 N  
HETATM    9  H   UNL     1     -12.044  17.539  69.463  1.00  0.00     0.000 HD 
BRANCH   8  10
HETATM   10  C   UNL     1     -11.631  15.486  69.608  1.00  0.00    -0.348 A  
HETATM   11  C   UNL     1     -12.341  15.186  70.769  1.00  0.00    -0.415 A  
HETATM   12  C   UNL     1     -12.629  13.858  71.096  1.00  0.00    -0.446 A  
HETATM   13  C   UNL     1     -12.233  12.806  70.258  1.00  0.00    -0.277 A  
HETATM   14  C   UNL     1     -11.168  14.444  68.805  1.00  0.00    -0.282 A  
HETATM   15  C   UNL     1     -11.486  13.108  69.105  1.00  0.00    -0.358 A  
BRANCH  13  16
HETATM   16  O   UNL     1     -12.577  11.499  70.479  1.00  0.00    -0.270 OA 
BRANCH  16  17
HETATM   17  C   UNL     1     -13.114  11.164  71.768  1.00  0.00    -0.431 C  
BRANCH  17  18
HETATM   18  C   UNL     1     -12.853   9.678  72.050  1.00  0.00    -0.410 C  
HETATM   19  H   UNL     1     -13.660   7.969  71.517  1.00  0.00     0.000 HD 
HETATM   20  O   UNL     1     -13.822   8.889  71.343  1.00  0.00    -0.354 OA 
BRANCH  18  21
HETATM   21  C   UNL     1     -11.446   9.210  71.634  1.00  0.00    -0.381 C  
BRANCH  21  22
HETATM   22  N   UNL     1     -11.333   8.891  70.206  1.00  0.00    -0.399 NA 
HETATM   23  C   UNL     1     -10.550   7.676  69.895  1.00  0.00    -0.235 C  
HETATM   24  H   UNL     1     -10.958   9.691  69.695  1.00  0.00     0.000 HD 
HETATM   25  C   UNL     1     -10.479   7.570  68.359  1.00  0.00    -0.212 C  
HETATM   26  C   UNL     1     -11.238   6.405  70.425  1.00  0.00    -0.435 C  
HETATM   27  C   UNL     1      -9.116   7.766  70.440  1.00  0.00    -0.155 C  
ENDBRANCH  21  22
ENDBRANCH  18  21
ENDBRANCH  17  18
ENDBRANCH  16  17
ENDBRANCH  13  16
BRANCH  15  28
HETATM   28  C   UNL     1     -11.050  12.119  68.072  1.00  0.00    -0.244 C  
HETATM   29  O   UNL     1     -10.252  11.235  68.387  1.00  0.00    -0.181 OA 
HETATM   30  C   UNL     1     -11.610  12.155  66.675  1.00  0.00    -0.416 C  
ENDBRANCH  15  28
ENDBRANCH   8  10
ENDBRANCH   6   8
ENDBRANCH   3   6
ENDBRANCH   2   3
TORSDOF 11
ENDMDL
MODEL       23
REMARK 921   NORMALIZED FREE ENERGY PREDICTED BY IDOCK:   -5.76 KCAL/MOL
REMARK 922        TOTAL FREE ENERGY PREDICTED BY IDOCK:  -10.60 KCAL/MOL
REMARK 923 INTER-LIGAND FREE ENERGY PREDICTED BY IDOCK:   -9.25 KCAL/MOL
REMARK 924 INTRA-LIGAND FREE ENERGY PREDICTED BY IDOCK:   -1.35 KCAL/MOL
REMARK 927      BINDING AFFINITY PREDICTED BY RF-SCORE:    0.00 PKD
ROOT
HETATM    1  C   UNL     1      -8.006  15.950  69.139  1.00  0.00    -0.233 C  
HETATM    2  C   UNL     1      -7.662  17.103  68.207  1.00  0.00    -0.220 C  
ENDROOT
BRANCH   2   3
HETATM    3  N   UNL     1      -8.827  17.630  67.488  1.00  0.00    -0.230 N  
BRANCH   3   4
HETATM    4  C   UNL     1      -9.122  19.061  67.614  1.00  0.00    -0.291 C  
HETATM    5  C   UNL     1      -9.861  19.437  68.885  1.00  0.00    -0.523 C  
ENDBRANCH   3   4
BRANCH   3   6
HETATM    6  C   UNL     1      -9.443  16.775  66.575  1.00  0.00    -0.266 C  
HETATM    7  O   UNL     1      -8.827  16.271  65.638  1.00  0.00    -0.374 OA 
BRANCH   6   8
HETATM    8  N   UNL     1     -10.776  16.513  66.836  1.00  0.00    -0.235 N  
HETATM    9  H   UNL     1     -11.490  17.067  66.364  1.00  0.00     0.000 HD 
BRANCH   8  10
HETATM   10  C   UNL     1     -11.176  15.506  67.733  1.00  0.00    -0.302 A  
HETATM   11  C   UNL     1     -10.934  14.157  67.485  1.00  0.00    -0.292 A  
HETATM   12  C   UNL     1     -11.289  13.192  68.431  1.00  0.00    -0.324 A  
HETATM   13  C   UNL     1     -11.870  13.557  69.652  1.00  0.00    -0.336 A  
HETATM   14  C   UNL     1     -11.821  15.877  68.912  1.00  0.00    -0.314 A  
HETATM   15  C   UNL     1     -12.146  14.916  69.887  1.00  0.00    -0.379 A  
BRANCH  13  16
HETATM   16  O   UNL     1     -12.142  12.663  70.653  1.00  0.00    -0.357 OA 
BRANCH  16  17
HETATM   17  C   UNL     1     -12.452  11.314  70.270  1.00  0.00    -0.250 C  
BRANCH  17  18
HETATM   18  C   UNL     1     -12.603  10.456  71.533  1.00  0.00    -0.439 C  
HETATM   19  H   UNL     1     -13.978   9.277  72.293  1.00  0.00     0.000 HD 
HETATM   20  O   UNL     1     -13.884   9.808  71.511  1.00  0.00    -0.236 OA 
BRANCH  18  21
HETATM   21  C   UNL     1     -11.514   9.376  71.678  1.00  0.00    -0.393 C  
BRANCH  21  22
HETATM   22  N   UNL     1     -11.564   8.348  70.631  1.00  0.00    -0.410 NA 
HETATM   23  C   UNL     1     -11.086   7.011  71.042  1.00  0.00    -0.264 C  
HETATM   24  H   UNL     1     -11.057   8.664  69.804  1.00  0.00     0.000 HD 
HETATM   25  C   UNL     1     -11.136   6.114  69.790  1.00  0.00    -0.486 C  
HETATM   26  C   UNL     1     -11.998   6.384  72.110  1.00  0.00    -0.346 C  
HETATM   27  C   UNL     1      -9.634   7.054  71.547  1.00  0.00    -0.159 C  
ENDBRANCH  21  22
ENDBRANCH  18  21
ENDBRANCH  17  18
ENDBRANCH  16  17
ENDBRANCH  13  16
BRANCH  15  28
HETATM   28  C   UNL     1     -12.693  15.483  71.157  1.00  0.00    -0.463 C  
HETATM   29  O   UNL     1     -13.914  15.528  71.317  1.00  0.00    -0.543 OA 
HETATM   30  C   UNL     1     -11.779  15.946  72.260  1.00  0.00    -0.586 C  
ENDBRANCH  15  28
ENDBRANCH   8  10
ENDBRANCH   6   8
ENDBRANCH   3   6
ENDBRANCH   2   3
TORSDOF 11
ENDMDL
MODEL       24
REMARK 921   NORMALIZED FREE ENERGY PREDICTED BY IDOCK:   -5.75 KCAL/MOL
REMARK 922        TOTAL FREE ENERGY PREDICTED BY IDOCK:  -10.58 KCAL/MOL
REMARK 923 INTER-LIGAND FREE ENERGY PREDICTED BY IDOCK:   -9.56 KCAL/MOL
REMARK 924 INTRA-LIGAND FREE ENERGY PREDICTED BY IDOCK:   -1.03 KCAL/MOL
REMARK 927      BINDING AFFINITY PREDICTED BY RF-SCORE:    0.00 PKD
ROOT
HETATM    1  C   UNL     1     -10.231  19.438  69.052  1.00  0.00    -0.307 C  
HETATM    2  C   UNL     1     -10.086  19.474  67.537  1.00  0.00    -0.406 C  
ENDROOT
BRANCH   2   3
HETATM    3  N   UNL     1      -8.860  18.827  67.059  1.00  0.00    -0.287 N  
BRANCH   3   4
HETATM    4  C   UNL     1      -7.576  19.358  67.529  1.00  0.00    -0.250 C  
HETATM    5  C   UNL     1      -6.900  20.309  66.557  1.00  0.00    -0.274 C  
ENDBRANCH   3   4
BRANCH   3   6
HETATM    6  C   UNL     1      -9.011  17.630  66.360  1.00  0.00    -0.231 C  
HETATM    7  O   UNL     1      -8.047  17.025  65.891  1.00  0.00    -0.494 OA 
BRANCH   6   8
HETATM    8  N   UNL     1     -10.311  17.168  66.276  1.00  0.00    -0.329 N  
HETATM    9  H   UNL     1     -11.035  17.790  65.918  1.00  0.00     0.000 HD 
BRANCH   8  10
HETATM   10  C   UNL     1     -10.666  15.865  66.672  1.00  0.00    -0.270 A  
HETATM   11  C   UNL     1     -10.767  15.502  68.013  1.00  0.00    -0.283 A  
HETATM   12  C   UNL     1     -11.186  14.216  68.365  1.00  0.00    -0.289 A  
HETATM   13  C   UNL     1     -11.535  13.276  67.385  1.00  0.00    -0.332 A  
HETATM   14  C   UNL     1     -10.939  14.917  65.686  1.00  0.00    -0.347 A  
HETATM   15  C   UNL     1     -11.399  13.633  66.031  1.00  0.00    -0.322 A  
BRANCH  13  16
HETATM   16  O   UNL     1     -12.047  12.041  67.676  1.00  0.00    -0.547 OA 
BRANCH  16  17
HETATM   17  C   UNL     1     -11.986  11.604  69.044  1.00  0.00    -0.305 C  
BRANCH  17  18
HETATM   18  C   UNL     1     -11.071  10.375  69.137  1.00  0.00    -0.246 C  
HETATM   19  H   UNL     1      -9.161  10.003  68.865  1.00  0.00     0.000 HD 
HETATM   20  O   UNL     1      -9.728  10.763  68.807  1.00  0.00    -0.177 OA 
BRANCH  18  21
HETATM   21  C   UNL     1     -11.060   9.719  70.531  1.00  0.00    -0.321 C  
BRANCH  21  22
HETATM   22  N   UNL     1     -12.325   9.060  70.878  1.00  0.00    -0.476 NA 
HETATM   23  C   UNL     1     -12.191   7.686  71.408  1.00  0.00    -0.326 C  
HETATM   24  H   UNL     1     -12.957   9.067  70.077  1.00  0.00     0.000 HD 
HETATM   25  C   UNL     1     -13.620   7.148  71.622  1.00  0.00    -0.399 C  
HETATM   26  C   UNL     1     -11.471   7.669  72.767  1.00  0.00    -0.384 C  
HETATM   27  C   UNL     1     -11.470   6.759  70.416  1.00  0.00    -0.419 C  
ENDBRANCH  21  22
ENDBRANCH  18  21
ENDBRANCH  17  18
ENDBRANCH  16  17
ENDBRANCH  13  16
BRANCH  15  28
HETATM   28  C   UNL     1     -11.793  12.783  64.866  1.00  0.00    -0.379 C  
HETATM   29  O   UNL     1     -12.979  12.734  64.534  1.00  0.00    -0.730 OA 
HETATM   30  C   UNL     1     -10.762  12.035  64.065  1.00  0.00    -0.426 C  
ENDBRANCH  15  28
ENDBRANCH   8  10
ENDBRANCH   6   8
ENDBRANCH   3   6
ENDBRANCH   2   3
TORSDOF 11
ENDMDL
MODEL       25
REMARK 921   NORMALIZED FREE ENERGY PREDICTED BY IDOCK:   -5.73 KCAL/MOL
REMARK 922        TOTAL FREE ENERGY PREDICTED BY IDOCK:  -10.55 KCAL/MOL
REMARK 923 INTER-LIGAND FREE ENERGY PREDICTED BY IDOCK:   -9.26 KCAL/MOL
REMARK 924 INTRA-LIGAND FREE ENERGY PREDICTED BY IDOCK:   -1.29 KCAL/MOL
REMARK 927      BINDING AFFINITY PREDICTED BY RF-SCORE:    0.00 PKD
ROOT
HETATM    1  C   UNL     1      -9.495  20.332  67.470  1.00  0.00    -0.539 C  
HETATM    2  C   UNL     1      -8.639  19.079  67.587  1.00  0.00    -0.289 C  
ENDROOT
BRANCH   2   3
HETATM    3  N   UNL     1      -9.424  17.840  67.572  1.00  0.00    -0.255 N  
BRANCH   3   4
HETATM    4  C   UNL     1     -10.060  17.416  68.823  1.00  0.00    -0.346 C  
HETATM    5  C   UNL     1     -11.221  16.457  68.640  1.00  0.00    -0.332 C  
ENDBRANCH   3   4
BRANCH   3   6
HETATM    6  C   UNL     1      -9.677  17.270  66.325  1.00  0.00    -0.266 C  
HETATM    7  O   UNL     1     -10.514  17.737  65.554  1.00  0.00    -0.646 OA 
BRANCH   6   8
HETATM    8  N   UNL     1      -8.889  16.175  66.018  1.00  0.00    -0.325 N  
HETATM    9  H   UNL     1      -7.962  16.329  65.622  1.00  0.00     0.000 HD 
BRANCH   8  10
HETATM   10  C   UNL     1      -9.328  14.857  66.235  1.00  0.00    -0.296 A  
HETATM   11  C   UNL     1      -8.791  14.055  67.240  1.00  0.00    -0.225 A  
HETATM   12  C   UNL     1      -9.299  12.773  67.466  1.00  0.00    -0.189 A  
HETATM   13  C   UNL     1     -10.369  12.277  66.709  1.00  0.00    -0.217 A  
HETATM   14  C   UNL     1     -10.343  14.347  65.426  1.00  0.00    -0.400 A  
HETATM   15  C   UNL     1     -10.888  13.074  65.672  1.00  0.00    -0.293 A  
BRANCH  13  16
HETATM   16  O   UNL     1     -10.970  11.072  66.957  1.00  0.00    -0.277 OA 
BRANCH  16  17
HETATM   17  C   UNL     1     -10.304   9.889  66.485  1.00  0.00    -0.188 C  
BRANCH  17  18
HETATM   18  C   UNL     1     -10.531   8.752  67.490  1.00  0.00    -0.271 C  
HETATM   19  H   UNL     1      -9.902   6.904  67.710  1.00  0.00     0.000 HD 
HETATM   20  O   UNL     1      -9.761   7.609  67.088  1.00  0.00    -0.157 OA 
BRANCH  18  21
HETATM   21  C   UNL     1     -10.142   9.118  68.935  1.00  0.00    -0.197 C  
BRANCH  21  22
HETATM   22  N   UNL     1     -11.293   9.437  69.789  1.00  0.00    -0.425 NA 
HETATM   23  C   UNL     1     -11.463   8.559  70.966  1.00  0.00    -0.273 C  
HETATM   24  H   UNL     1     -12.149   9.451  69.234  1.00  0.00     0.000 HD 
HETATM   25  C   UNL     1     -12.760   9.001  71.670  1.00  0.00    -0.421 C  
HETATM   26  C   UNL     1     -10.304   8.719  71.966  1.00  0.00    -0.411 C  
HETATM   27  C   UNL     1     -11.611   7.084  70.561  1.00  0.00    -0.364 C  
ENDBRANCH  21  22
ENDBRANCH  18  21
ENDBRANCH  17  18
ENDBRANCH  16  17
ENDBRANCH  13  16
BRANCH  15  28
HETATM   28  C   UNL     1     -12.067  12.729  64.821  1.00  0.00    -0.432 C  
HETATM   29  O   UNL     1     -13.157  13.250  65.067  1.00  0.00    -0.737 OA 
HETATM   30  C   UNL     1     -11.932  11.805  63.641  1.00  0.00    -0.490 C  
ENDBRANCH  15  28
ENDBRANCH   8  10
ENDBRANCH   6   8
ENDBRANCH   3   6
ENDBRANCH   2   3
TORSDOF 11
ENDMDL
MODEL       26
REMARK 921   NORMALIZED FREE ENERGY PREDICTED BY IDOCK:   -5.73 KCAL/MOL
REMARK 922        TOTAL FREE ENERGY PREDICTED BY IDOCK:  -10.54 KCAL/MOL
REMARK 923 INTER-LIGAND FREE ENERGY PREDICTED BY IDOCK:   -9.27 KCAL/MOL
REMARK 924 INTRA-LIGAND FREE ENERGY PREDICTED BY IDOCK:   -1.27 KCAL/MOL
REMARK 927      BINDING AFFINITY PREDICTED BY RF-SCORE:    0.00 PKD
ROOT
HETATM    1  C   UNL     1     -11.280   6.143  69.871  1.00  0.00    -0.484 C  
HETATM    2  C   UNL     1     -10.467   6.997  70.834  1.00  0.00    -0.214 C  
ENDROOT
BRANCH   2   3
HETATM    3  N   UNL     1     -10.815   8.421  70.777  1.00  0.00    -0.219 N  
BRANCH   3   4
HETATM    4  C   UNL     1     -11.631   8.972  71.864  1.00  0.00    -0.370 C  
HETATM    5  C   UNL     1     -13.124   8.956  71.595  1.00  0.00    -0.405 C  
ENDBRANCH   3   4
BRANCH   3   6
HETATM    6  C   UNL     1     -10.175   9.187  69.804  1.00  0.00    -0.207 C  
HETATM    7  O   UNL     1      -8.990   9.505  69.902  1.00  0.00    -0.177 OA 
BRANCH   6   8
HETATM    8  N   UNL     1     -10.963   9.519  68.716  1.00  0.00    -0.426 N  
HETATM    9  H   UNL     1     -11.300   8.776  68.106  1.00  0.00     0.000 HD 
BRANCH   8  10
HETATM   10  C   UNL     1     -11.312  10.851  68.428  1.00  0.00    -0.304 A  
HETATM   11  C   UNL     1     -11.457  11.810  69.428  1.00  0.00    -0.371 A  
HETATM   12  C   UNL     1     -11.740  13.137  69.097  1.00  0.00    -0.376 A  
HETATM   13  C   UNL     1     -11.861  13.537  67.759  1.00  0.00    -0.362 A  
HETATM   14  C   UNL     1     -11.501  11.221  67.097  1.00  0.00    -0.217 A  
HETATM   15  C   UNL     1     -11.748  12.562  66.752  1.00  0.00    -0.453 A  
BRANCH  13  16
HETATM   16  O   UNL     1     -12.035  14.840  67.376  1.00  0.00    -0.357 OA 
BRANCH  16  17
HETATM   17  C   UNL     1     -10.864  15.668  67.291  1.00  0.00    -0.298 C  
BRANCH  17  18
HETATM   18  C   UNL     1     -11.000  16.832  68.282  1.00  0.00    -0.327 C  
HETATM   19  H   UNL     1     -10.399  17.219  70.111  1.00  0.00     0.000 HD 
HETATM   20  O   UNL     1     -10.315  16.498  69.498  1.00  0.00    -0.287 OA 
BRANCH  18  21
HETATM   21  C   UNL     1     -10.431  18.162  67.752  1.00  0.00    -0.404 C  
BRANCH  21  22
HETATM   22  N   UNL     1      -9.255  18.633  68.493  1.00  0.00    -0.338 NA 
HETATM   23  C   UNL     1      -8.066  18.927  67.664  1.00  0.00    -0.255 C  
HETATM   24  H   UNL     1      -9.014  17.969  69.230  1.00  0.00     0.000 HD 
HETATM   25  C   UNL     1      -6.931  19.315  68.631  1.00  0.00    -0.343 C  
HETATM   26  C   UNL     1      -8.312  20.117  66.720  1.00  0.00    -0.356 C  
HETATM   27  C   UNL     1      -7.615  17.698  66.858  1.00  0.00    -0.244 C  
ENDBRANCH  21  22
ENDBRANCH  18  21
ENDBRANCH  17  18
ENDBRANCH  16  17
ENDBRANCH  13  16
BRANCH  15  28
HETATM   28  C   UNL     1     -11.777  12.827  65.281  1.00  0.00    -0.368 C  
HETATM   29  O   UNL     1     -12.863  12.994  64.723  1.00  0.00    -0.708 OA 
HETATM   30  C   UNL     1     -10.504  12.949  64.487  1.00  0.00    -0.400 C  
ENDBRANCH  15  28
ENDBRANCH   8  10
ENDBRANCH   6   8
ENDBRANCH   3   6
ENDBRANCH   2   3
TORSDOF 11
ENDMDL
MODEL       27
REMARK 921   NORMALIZED FREE ENERGY PREDICTED BY IDOCK:   -5.69 KCAL/MOL
REMARK 922        TOTAL FREE ENERGY PREDICTED BY IDOCK:  -10.48 KCAL/MOL
REMARK 923 INTER-LIGAND FREE ENERGY PREDICTED BY IDOCK:   -9.09 KCAL/MOL
REMARK 924 INTRA-LIGAND FREE ENERGY PREDICTED BY IDOCK:   -1.39 KCAL/MOL
REMARK 927      BINDING AFFINITY PREDICTED BY RF-SCORE:    0.00 PKD
ROOT
HETATM    1  C   UNL     1     -10.559   4.289  74.011  1.00  0.00    -0.323 C  
HETATM    2  C   UNL     1     -11.457   5.043  73.040  1.00  0.00    -0.265 C  
ENDROOT
BRANCH   2   3
HETATM    3  N   UNL     1     -10.756   6.109  72.316  1.00  0.00    -0.220 N  
BRANCH   3   4
HETATM    4  C   UNL     1     -10.179   5.785  71.007  1.00  0.00    -0.217 C  
HETATM    5  C   UNL     1     -11.068   6.137  69.828  1.00  0.00    -0.486 C  
ENDBRANCH   3   4
BRANCH   3   6
HETATM    6  C   UNL     1     -10.869   7.400  72.831  1.00  0.00    -0.354 C  
HETATM    7  O   UNL     1      -9.941   7.945  73.427  1.00  0.00    -0.314 OA 
BRANCH   6   8
HETATM    8  N   UNL     1     -12.080   8.020  72.581  1.00  0.00    -0.593 N  
HETATM    9  H   UNL     1     -12.929   7.625  72.984  1.00  0.00     0.000 HD 
BRANCH   8  10
HETATM   10  C   UNL     1     -12.174   9.178  71.789  1.00  0.00    -0.372 A  
HETATM   11  C   UNL     1     -12.996  10.247  72.138  1.00  0.00    -0.410 A  
HETATM   12  C   UNL     1     -13.013  11.407  71.359  1.00  0.00    -0.468 A  
HETATM   13  C   UNL     1     -12.192  11.530  70.230  1.00  0.00    -0.332 A  
HETATM   14  C   UNL     1     -11.408   9.259  70.627  1.00  0.00    -0.330 A  
HETATM   15  C   UNL     1     -11.389  10.437  69.859  1.00  0.00    -0.370 A  
BRANCH  13  16
HETATM   16  O   UNL     1     -12.095  12.681  69.493  1.00  0.00    -0.271 OA 
BRANCH  16  17
HETATM   17  C   UNL     1     -11.342  13.767  70.057  1.00  0.00    -0.023 C  
BRANCH  17  18
HETATM   18  C   UNL     1     -11.912  15.094  69.538  1.00  0.00    -0.321 C  
HETATM   19  H   UNL     1     -11.722  16.995  69.993  1.00  0.00     0.000 HD 
HETATM   20  O   UNL     1     -11.370  16.173  70.314  1.00  0.00    -0.352 OA 
BRANCH  18  21
HETATM   21  C   UNL     1     -11.601  15.358  68.052  1.00  0.00    -0.292 C  
BRANCH  21  22
HETATM   22  N   UNL     1     -12.252  14.411  67.140  1.00  0.00    -0.584 NA 
HETATM   23  C   UNL     1     -11.490  14.097  65.913  1.00  0.00    -0.338 C  
HETATM   24  H   UNL     1     -13.187  14.742  66.898  1.00  0.00     0.000 HD 
HETATM   25  C   UNL     1     -12.376  13.167  65.061  1.00  0.00    -0.511 C  
HETATM   26  C   UNL     1     -10.185  13.346  66.231  1.00  0.00    -0.298 C  
HETATM   27  C   UNL     1     -11.185  15.360  65.091  1.00  0.00    -0.354 C  
ENDBRANCH  21  22
ENDBRANCH  18  21
ENDBRANCH  17  18
ENDBRANCH  16  17
ENDBRANCH  13  16
BRANCH  15  28
HETATM   28  C   UNL     1     -10.407  10.426  68.732  1.00  0.00    -0.196 C  
HETATM   29  O   UNL     1      -9.273  10.872  68.920  1.00  0.00    -0.184 OA 
HETATM   30  C   UNL     1     -10.762   9.831  67.396  1.00  0.00    -0.314 C  
ENDBRANCH  15  28
ENDBRANCH   8  10
ENDBRANCH   6   8
ENDBRANCH   3   6
ENDBRANCH   2   3
TORSDOF 11
ENDMDL
MODEL       28
REMARK 921   NORMALIZED FREE ENERGY PREDICTED BY IDOCK:   -5.68 KCAL/MOL
REMARK 922        TOTAL FREE ENERGY PREDICTED BY IDOCK:  -10.46 KCAL/MOL
REMARK 923 INTER-LIGAND FREE ENERGY PREDICTED BY IDOCK:   -9.43 KCAL/MOL
REMARK 924 INTRA-LIGAND FREE ENERGY PREDICTED BY IDOCK:   -1.03 KCAL/MOL
REMARK 927      BINDING AFFINITY PREDICTED BY RF-SCORE:    0.00 PKD
ROOT
HETATM    1  C   UNL     1     -10.571   7.319  73.296  1.00  0.00    -0.428 C  
HETATM    2  C   UNL     1     -10.750   8.412  72.251  1.00  0.00    -0.347 C  
ENDROOT
BRANCH   2   3
HETATM    3  N   UNL     1     -11.986   8.270  71.474  1.00  0.00    -0.286 N  
BRANCH   3   4
HETATM    4  C   UNL     1     -12.316   6.942  70.946  1.00  0.00    -0.313 C  
HETATM    5  C   UNL     1     -11.467   6.511  69.765  1.00  0.00    -0.443 C  
ENDBRANCH   3   4
BRANCH   3   6
HETATM    6  C   UNL     1     -12.856   9.360  71.469  1.00  0.00    -0.362 C  
HETATM    7  O   UNL     1     -14.069   9.222  71.317  1.00  0.00    -0.249 OA 
BRANCH   6   8
HETATM    8  N   UNL     1     -12.252  10.585  71.687  1.00  0.00    -0.281 N  
HETATM    9  H   UNL     1     -11.783  10.753  72.577  1.00  0.00     0.000 HD 
BRANCH   8  10
HETATM   10  C   UNL     1     -12.265  11.605  70.719  1.00  0.00    -0.344 A  
HETATM   11  C   UNL     1     -12.517  12.935  71.050  1.00  0.00    -0.374 A  
HETATM   12  C   UNL     1     -12.457  13.929  70.070  1.00  0.00    -0.325 A  
HETATM   13  C   UNL     1     -12.121  13.618  68.745  1.00  0.00    -0.297 A  
HETATM   14  C   UNL     1     -12.002  11.272  69.391  1.00  0.00    -0.410 A  
HETATM   15  C   UNL     1     -11.900  12.271  68.405  1.00  0.00    -0.358 A  
BRANCH  13  16
HETATM   16  O   UNL     1     -11.948  14.564  67.771  1.00  0.00    -0.363 OA 
BRANCH  16  17
HETATM   17  C   UNL     1     -10.735  15.334  67.804  1.00  0.00    -0.286 C  
BRANCH  17  18
HETATM   18  C   UNL     1     -10.164  15.430  66.383  1.00  0.00    -0.286 C  
HETATM   19  H   UNL     1     -10.872  15.297  64.555  1.00  0.00     0.000 HD 
HETATM   20  O   UNL     1     -11.226  15.238  65.436  1.00  0.00    -0.341 OA 
BRANCH  18  21
HETATM   21  C   UNL     1      -9.482  16.779  66.082  1.00  0.00    -0.264 C  
BRANCH  21  22
HETATM   22  N   UNL     1     -10.271  17.942  66.507  1.00  0.00    -0.365 NA 
HETATM   23  C   UNL     1      -9.500  19.013  67.173  1.00  0.00    -0.307 C  
HETATM   24  H   UNL     1     -11.045  17.644  67.102  1.00  0.00     0.000 HD 
HETATM   25  C   UNL     1     -10.514  20.087  67.614  1.00  0.00    -0.476 C  
HETATM   26  C   UNL     1      -8.498  19.675  66.211  1.00  0.00    -0.383 C  
HETATM   27  C   UNL     1      -8.769  18.497  68.423  1.00  0.00    -0.351 C  
ENDBRANCH  21  22
ENDBRANCH  18  21
ENDBRANCH  17  18
ENDBRANCH  16  17
ENDBRANCH  13  16
BRANCH  15  28
HETATM   28  C   UNL     1     -11.464  11.775  67.064  1.00  0.00    -0.298 C  
HETATM   29  O   UNL     1     -12.054  12.173  66.057  1.00  0.00    -0.612 OA 
HETATM   30  C   UNL     1     -10.288  10.847  66.922  1.00  0.00    -0.285 C  
ENDBRANCH  15  28
ENDBRANCH   8  10
ENDBRANCH   6   8
ENDBRANCH   3   6
ENDBRANCH   2   3
TORSDOF 11
ENDMDL
MODEL       29
REMARK 921   NORMALIZED FREE ENERGY PREDICTED BY IDOCK:   -5.67 KCAL/MOL
REMARK 922        TOTAL FREE ENERGY PREDICTED BY IDOCK:  -10.44 KCAL/MOL
REMARK 923 INTER-LIGAND FREE ENERGY PREDICTED BY IDOCK:   -9.05 KCAL/MOL
REMARK 924 INTRA-LIGAND FREE ENERGY PREDICTED BY IDOCK:   -1.39 KCAL/MOL
REMARK 927      BINDING AFFINITY PREDICTED BY RF-SCORE:    0.00 PKD
ROOT
HETATM    1  C   UNL     1     -10.867   6.275  68.368  1.00  0.00    -0.394 C  
HETATM    2  C   UNL     1     -10.558   7.616  69.020  1.00  0.00    -0.174 C  
ENDROOT
BRANCH   2   3
HETATM    3  N   UNL     1     -11.247   7.807  70.301  1.00  0.00    -0.243 N  
BRANCH   3   4
HETATM    4  C   UNL     1     -11.697   6.612  71.022  1.00  0.00    -0.360 C  
HETATM    5  C   UNL     1     -12.893   6.843  71.928  1.00  0.00    -0.290 C  
ENDBRANCH   3   4
BRANCH   3   6
HETATM    6  C   UNL     1     -11.239   9.095  70.834  1.00  0.00    -0.295 C  
HETATM    7  O   UNL     1     -10.335   9.488  71.571  1.00  0.00    -0.278 OA 
BRANCH   6   8
HETATM    8  N   UNL     1     -12.296   9.893  70.437  1.00  0.00    -0.483 N  
HETATM    9  H   UNL     1     -13.249   9.573  70.609  1.00  0.00     0.000 HD 
BRANCH   8  10
HETATM   10  C   UNL     1     -12.097  11.133  69.804  1.00  0.00    -0.344 A  
HETATM   11  C   UNL     1     -11.789  11.230  68.449  1.00  0.00    -0.331 A  
HETATM   12  C   UNL     1     -11.663  12.482  67.842  1.00  0.00    -0.416 A  
HETATM   13  C   UNL     1     -11.866  13.662  68.572  1.00  0.00    -0.371 A  
HETATM   14  C   UNL     1     -12.230  12.299  70.557  1.00  0.00    -0.387 A  
HETATM   15  C   UNL     1     -12.144  13.564  69.947  1.00  0.00    -0.408 A  
BRANCH  13  16
HETATM   16  O   UNL     1     -11.856  14.908  68.004  1.00  0.00    -0.333 OA 
BRANCH  16  17
HETATM   17  C   UNL     1     -10.747  15.240  67.154  1.00  0.00    -0.316 C  
BRANCH  17  18
HETATM   18  C   UNL     1      -9.455  15.210  67.981  1.00  0.00    -0.199 C  
HETATM   19  H   UNL     1      -7.541  14.957  67.618  1.00  0.00     0.000 HD 
HETATM   20  O   UNL     1      -8.341  14.975  67.106  1.00  0.00    -0.189 OA 
BRANCH  18  21
HETATM   21  C   UNL     1      -9.193  16.513  68.762  1.00  0.00    -0.252 C  
BRANCH  21  22
HETATM   22  N   UNL     1     -10.014  17.642  68.310  1.00  0.00    -0.319 NA 
HETATM   23  C   UNL     1      -9.256  18.805  67.801  1.00  0.00    -0.289 C  
HETATM   24  H   UNL     1     -10.650  17.935  69.053  1.00  0.00     0.000 HD 
HETATM   25  C   UNL     1     -10.287  19.900  67.466  1.00  0.00    -0.557 C  
HETATM   26  C   UNL     1      -8.491  18.464  66.510  1.00  0.00    -0.287 C  
HETATM   27  C   UNL     1      -8.287  19.360  68.857  1.00  0.00    -0.335 C  
ENDBRANCH  21  22
ENDBRANCH  18  21
ENDBRANCH  17  18
ENDBRANCH  16  17
ENDBRANCH  13  16
BRANCH  15  28
HETATM   28  C   UNL     1     -12.457  14.711  70.852  1.00  0.00    -0.336 C  
HETATM   29  O   UNL     1     -13.628  15.074  70.977  1.00  0.00    -0.410 OA 
HETATM   30  C   UNL     1     -11.377  15.389  71.652  1.00  0.00    -0.455 C  
ENDBRANCH  15  28
ENDBRANCH   8  10
ENDBRANCH   6   8
ENDBRANCH   3   6
ENDBRANCH   2   3
TORSDOF 11
ENDMDL
MODEL       30
REMARK 921   NORMALIZED FREE ENERGY PREDICTED BY IDOCK:   -5.66 KCAL/MOL
REMARK 922        TOTAL FREE ENERGY PREDICTED BY IDOCK:  -10.44 KCAL/MOL
REMARK 923 INTER-LIGAND FREE ENERGY PREDICTED BY IDOCK:   -9.11 KCAL/MOL
REMARK 924 INTRA-LIGAND FREE ENERGY PREDICTED BY IDOCK:   -1.32 KCAL/MOL
REMARK 927      BINDING AFFINITY PREDICTED BY RF-SCORE:    0.00 PKD
ROOT
HETATM    1  C   UNL     1     -12.494   6.992  71.670  1.00  0.00    -0.413 C  
HETATM    2  C   UNL     1     -11.687   8.125  71.051  1.00  0.00    -0.274 C  
ENDROOT
BRANCH   2   3
HETATM    3  N   UNL     1     -11.001   7.735  69.814  1.00  0.00    -0.206 N  
BRANCH   3   4
HETATM    4  C   UNL     1     -11.216   6.375  69.310  1.00  0.00    -0.375 C  
HETATM    5  C   UNL     1     -10.078   5.836  68.463  1.00  0.00    -0.226 C  
ENDBRANCH   3   4
BRANCH   3   6
HETATM    6  C   UNL     1     -10.362   8.749  69.102  1.00  0.00    -0.217 C  
HETATM    7  O   UNL     1      -9.173   9.014  69.274  1.00  0.00    -0.142 OA 
BRANCH   6   8
HETATM    8  N   UNL     1     -11.156   9.393  68.171  1.00  0.00    -0.502 N  
HETATM    9  H   UNL     1     -11.543   8.855  67.396  1.00  0.00     0.000 HD 
BRANCH   8  10
HETATM   10  C   UNL     1     -11.446  10.766  68.261  1.00  0.00    -0.280 A  
HETATM   11  C   UNL     1     -11.544  11.422  69.486  1.00  0.00    -0.399 A  
HETATM   12  C   UNL     1     -11.768  12.801  69.531  1.00  0.00    -0.383 A  
HETATM   13  C   UNL     1     -11.875  13.554  68.354  1.00  0.00    -0.373 A  
HETATM   14  C   UNL     1     -11.624  11.492  67.083  1.00  0.00    -0.249 A  
HETATM   15  C   UNL     1     -11.810  12.886  67.119  1.00  0.00    -0.424 A  
BRANCH  13  16
HETATM   16  O   UNL     1     -11.992  14.918  68.343  1.00  0.00    -0.299 OA 
BRANCH  16  17
HETATM   17  C   UNL     1     -11.995  15.593  69.611  1.00  0.00    -0.349 C  
BRANCH  17  18
HETATM   18  C   UNL     1     -10.778  16.525  69.686  1.00  0.00    -0.323 C  
HETATM   19  H   UNL     1      -8.833  16.311  69.862  1.00  0.00     0.000 HD 
HETATM   20  O   UNL     1      -9.587  15.734  69.816  1.00  0.00    -0.265 OA 
BRANCH  18  21
HETATM   21  C   UNL     1     -10.624  17.437  68.453  1.00  0.00    -0.355 C  
BRANCH  21  22
HETATM   22  N   UNL     1      -9.531  17.036  67.560  1.00  0.00    -0.243 NA 
HETATM   23  C   UNL     1      -8.614  18.125  67.161  1.00  0.00    -0.247 C  
HETATM   24  H   UNL     1      -9.906  16.571  66.732  1.00  0.00     0.000 HD 
HETATM   25  C   UNL     1      -7.606  17.519  66.166  1.00  0.00    -0.320 C  
HETATM   26  C   UNL     1      -7.824  18.671  68.362  1.00  0.00    -0.344 C  
HETATM   27  C   UNL     1      -9.361  19.269  66.456  1.00  0.00    -0.396 C  
ENDBRANCH  21  22
ENDBRANCH  18  21
ENDBRANCH  17  18
ENDBRANCH  16  17
ENDBRANCH  13  16
BRANCH  15  28
HETATM   28  C   UNL     1     -11.833  13.542  65.776  1.00  0.00    -0.372 C  
HETATM   29  O   UNL     1     -12.912  13.689  65.199  1.00  0.00    -0.734 OA 
HETATM   30  C   UNL     1     -10.573  14.072  65.147  1.00  0.00    -0.400 C  
ENDBRANCH  15  28
ENDBRANCH   8  10
ENDBRANCH   6   8
ENDBRANCH   3   6
ENDBRANCH   2   3
TORSDOF 11
ENDMDL
MODEL       31
REMARK 921   NORMALIZED FREE ENERGY PREDICTED BY IDOCK:   -5.62 KCAL/MOL
REMARK 922        TOTAL FREE ENERGY PREDICTED BY IDOCK:  -10.36 KCAL/MOL
REMARK 923 INTER-LIGAND FREE ENERGY PREDICTED BY IDOCK:   -8.55 KCAL/MOL
REMARK 924 INTRA-LIGAND FREE ENERGY PREDICTED BY IDOCK:   -1.80 KCAL/MOL
REMARK 927      BINDING AFFINITY PREDICTED BY RF-SCORE:    0.00 PKD
ROOT
HETATM    1  C   UNL     1      -7.458  18.914  68.466  1.00  0.00    -0.339 C  
HETATM    2  C   UNL     1      -8.369  17.706  68.638  1.00  0.00    -0.267 C  
ENDROOT
BRANCH   2   3
HETATM    3  N   UNL     1      -8.832  17.147  67.364  1.00  0.00    -0.210 N  
BRANCH   3   4
HETATM    4  C   UNL     1      -7.896  16.313  66.600  1.00  0.00    -0.275 C  
HETATM    5  C   UNL     1      -7.530  15.006  67.277  1.00  0.00    -0.215 C  
ENDBRANCH   3   4
BRANCH   3   6
HETATM    6  C   UNL     1     -10.189  17.278  67.074  1.00  0.00    -0.320 C  
HETATM    7  O   UNL     1     -10.758  18.368  67.103  1.00  0.00    -0.399 OA 
BRANCH   6   8
HETATM    8  N   UNL     1     -10.822  16.101  66.716  1.00  0.00    -0.228 N  
HETATM    9  H   UNL     1     -10.983  15.907  65.728  1.00  0.00     0.000 HD 
BRANCH   8  10
HETATM   10  C   UNL     1     -11.249  15.164  67.674  1.00  0.00    -0.327 A  
HETATM   11  C   UNL     1     -11.065  13.794  67.501  1.00  0.00    -0.295 A  
HETATM   12  C   UNL     1     -11.444  12.899  68.505  1.00  0.00    -0.345 A  
HETATM   13  C   UNL     1     -11.993  13.357  69.711  1.00  0.00    -0.330 A  
HETATM   14  C   UNL     1     -11.861  15.627  68.838  1.00  0.00    -0.368 A  
HETATM   15  C   UNL     1     -12.209  14.737  69.871  1.00  0.00    -0.358 A  
BRANCH  13  16
HETATM   16  O   UNL     1     -12.285  12.533  70.764  1.00  0.00    -0.369 OA 
BRANCH  16  17
HETATM   17  C   UNL     1     -12.648  11.176  70.463  1.00  0.00    -0.274 C  
BRANCH  17  18
HETATM   18  C   UNL     1     -12.012  10.244  71.504  1.00  0.00    -0.268 C  
HETATM   19  H   UNL     1     -12.610   8.741  72.618  1.00  0.00     0.000 HD 
HETATM   20  O   UNL     1     -13.004   9.318  71.973  1.00  0.00    -0.363 OA 
BRANCH  18  21
HETATM   21  C   UNL     1     -10.814   9.442  70.962  1.00  0.00    -0.336 C  
BRANCH  21  22
HETATM   22  N   UNL     1      -9.898  10.241  70.139  1.00  0.00    -0.405 NA 
HETATM   23  C   UNL     1      -9.345   9.544  68.958  1.00  0.00    -0.155 C  
HETATM   24  H   UNL     1      -9.141  10.612  70.715  1.00  0.00     0.000 HD 
HETATM   25  C   UNL     1      -8.352  10.514  68.290  1.00  0.00    -0.122 C  
HETATM   26  C   UNL     1     -10.441   9.208  67.932  1.00  0.00    -0.293 C  
HETATM   27  C   UNL     1      -8.583   8.269  69.353  1.00  0.00    -0.134 C  
ENDBRANCH  21  22
ENDBRANCH  18  21
ENDBRANCH  17  18
ENDBRANCH  16  17
ENDBRANCH  13  16
BRANCH  15  28
HETATM   28  C   UNL     1     -12.714  15.398  71.113  1.00  0.00    -0.439 C  
HETATM   29  O   UNL     1     -13.926  15.580  71.245  1.00  0.00    -0.543 OA 
HETATM   30  C   UNL     1     -11.775  15.790  72.223  1.00  0.00    -0.580 C  
ENDBRANCH  15  28
ENDBRANCH   8  10
ENDBRANCH   6   8
ENDBRANCH   3   6
ENDBRANCH   2   3
TORSDOF 11
ENDMDL
MODEL       32
REMARK 921   NORMALIZED FREE ENERGY PREDICTED BY IDOCK:   -5.60 KCAL/MOL
REMARK 922        TOTAL FREE ENERGY PREDICTED BY IDOCK:  -10.33 KCAL/MOL
REMARK 923 INTER-LIGAND FREE ENERGY PREDICTED BY IDOCK:   -8.85 KCAL/MOL
REMARK 924 INTRA-LIGAND FREE ENERGY PREDICTED BY IDOCK:   -1.48 KCAL/MOL
REMARK 927      BINDING AFFINITY PREDICTED BY RF-SCORE:    0.00 PKD
ROOT
HETATM    1  C   UNL     1     -12.232  13.004  63.409  1.00  0.00    -0.552 C  
HETATM    2  C   UNL     1     -12.506  12.511  64.823  1.00  0.00    -0.457 C  
ENDROOT
BRANCH   2   3
HETATM    3  N   UNL     1     -11.338  12.609  65.705  1.00  0.00    -0.308 N  
BRANCH   3   4
HETATM    4  C   UNL     1     -10.055  12.103  65.204  1.00  0.00    -0.261 C  
HETATM    5  C   UNL     1     -10.037  10.610  64.934  1.00  0.00    -0.402 C  
ENDBRANCH   3   4
BRANCH   3   6
HETATM    6  C   UNL     1     -11.488  13.362  66.869  1.00  0.00    -0.342 C  
HETATM    7  O   UNL     1     -12.407  14.169  67.007  1.00  0.00    -0.396 OA 
BRANCH   6   8
HETATM    8  N   UNL     1     -10.556  13.096  67.855  1.00  0.00    -0.229 N  
HETATM    9  H   UNL     1      -9.734  13.695  67.931  1.00  0.00     0.000 HD 
BRANCH   8  10
HETATM   10  C   UNL     1     -10.707  12.027  68.756  1.00  0.00    -0.220 A  
HETATM   11  C   UNL     1      -9.794  10.976  68.816  1.00  0.00    -0.206 A  
HETATM   12  C   UNL     1      -9.944   9.965  69.769  1.00  0.00    -0.275 A  
HETATM   13  C   UNL     1     -10.996   9.997  70.695  1.00  0.00    -0.322 A  
HETATM   14  C   UNL     1     -11.799  12.031  69.623  1.00  0.00    -0.401 A  
HETATM   15  C   UNL     1     -11.936  11.039  70.611  1.00  0.00    -0.464 A  
BRANCH  13  16
HETATM   16  O   UNL     1     -11.129   9.089  71.711  1.00  0.00    -0.334 OA 
BRANCH  16  17
HETATM   17  C   UNL     1     -10.374   7.871  71.615  1.00  0.00    -0.204 C  
BRANCH  17  18
HETATM   18  C   UNL     1     -11.343   6.686  71.512  1.00  0.00    -0.281 C  
HETATM   19  H   UNL     1     -13.292   6.438  71.549  1.00  0.00     0.000 HD 
HETATM   20  O   UNL     1     -12.691   7.172  71.613  1.00  0.00    -0.352 OA 
BRANCH  18  21
HETATM   21  C   UNL     1     -11.209   5.892  70.198  1.00  0.00    -0.268 C  
BRANCH  21  22
HETATM   22  N   UNL     1     -11.287   6.731  68.996  1.00  0.00    -0.558 NA 
HETATM   23  C   UNL     1     -10.226   6.491  67.995  1.00  0.00    -0.164 C  
HETATM   24  H   UNL     1     -11.308   7.717  69.256  1.00  0.00     0.000 HD 
HETATM   25  C   UNL     1     -10.434   7.520  66.867  1.00  0.00    -0.385 C  
HETATM   26  C   UNL     1     -10.335   5.085  67.378  1.00  0.00    -0.174 C  
HETATM   27  C   UNL     1      -8.823   6.700  68.588  1.00  0.00    -0.122 C  
ENDBRANCH  21  22
ENDBRANCH  18  21
ENDBRANCH  17  18
ENDBRANCH  16  17
ENDBRANCH  13  16
BRANCH  15  28
HETATM   28  C   UNL     1     -13.070  11.262  71.560  1.00  0.00    -0.355 C  
HETATM   29  O   UNL     1     -13.718  10.293  71.958  1.00  0.00    -0.263 OA 
HETATM   30  C   UNL     1     -13.392  12.639  72.077  1.00  0.00    -0.555 C  
ENDBRANCH  15  28
ENDBRANCH   8  10
ENDBRANCH   6   8
ENDBRANCH   3   6
ENDBRANCH   2   3
TORSDOF 11
ENDMDL
MODEL       33
REMARK 921   NORMALIZED FREE ENERGY PREDICTED BY IDOCK:   -5.60 KCAL/MOL
REMARK 922        TOTAL FREE ENERGY PREDICTED BY IDOCK:  -10.33 KCAL/MOL
REMARK 923 INTER-LIGAND FREE ENERGY PREDICTED BY IDOCK:   -8.44 KCAL/MOL
REMARK 924 INTRA-LIGAND FREE ENERGY PREDICTED BY IDOCK:   -1.90 KCAL/MOL
REMARK 927      BINDING AFFINITY PREDICTED BY RF-SCORE:    0.00 PKD
ROOT
HETATM    1  C   UNL     1     -10.666   5.649  72.978  1.00  0.00    -0.290 C  
HETATM    2  C   UNL     1     -10.191   6.835  72.151  1.00  0.00    -0.193 C  
ENDROOT
BRANCH   2   3
HETATM    3  N   UNL     1     -11.240   7.398  71.294  1.00  0.00    -0.247 N  
BRANCH   3   4
HETATM    4  C   UNL     1     -11.872   6.511  70.311  1.00  0.00    -0.295 C  
HETATM    5  C   UNL     1     -10.946   6.047  69.203  1.00  0.00    -0.429 C  
ENDBRANCH   3   4
BRANCH   3   6
HETATM    6  C   UNL     1     -11.701   8.674  71.617  1.00  0.00    -0.313 C  
HETATM    7  O   UNL     1     -12.725   8.847  72.277  1.00  0.00    -0.376 OA 
BRANCH   6   8
HETATM    8  N   UNL     1     -10.898   9.709  71.174  1.00  0.00    -0.353 N  
HETATM    9  H   UNL     1     -10.206  10.104  71.810  1.00  0.00     0.000 HD 
BRANCH   8  10
HETATM   10  C   UNL     1     -11.009  10.233  69.874  1.00  0.00    -0.303 A  
HETATM   11  C   UNL     1     -11.867  11.288  69.573  1.00  0.00    -0.427 A  
HETATM   12  C   UNL     1     -11.899  11.824  68.283  1.00  0.00    -0.340 A  
HETATM   13  C   UNL     1     -11.059  11.332  67.275  1.00  0.00    -0.305 A  
HETATM   14  C   UNL     1     -10.220   9.687  68.862  1.00  0.00    -0.214 A  
HETATM   15  C   UNL     1     -10.217  10.245  67.571  1.00  0.00    -0.254 A  
BRANCH  13  16
HETATM   16  O   UNL     1     -10.978  11.887  66.026  1.00  0.00    -0.288 OA 
BRANCH  16  17
HETATM   17  C   UNL     1     -12.096  12.668  65.574  1.00  0.00    -0.458 C  
BRANCH  17  18
HETATM   18  C   UNL     1     -11.586  13.795  64.666  1.00  0.00    -0.378 C  
HETATM   19  H   UNL     1     -12.338  14.926  63.247  1.00  0.00     0.000 HD 
HETATM   20  O   UNL     1     -12.654  14.228  63.809  1.00  0.00    -0.821 OA 
BRANCH  18  21
HETATM   21  C   UNL     1     -11.057  15.018  65.440  1.00  0.00    -0.374 C  
BRANCH  21  22
HETATM   22  N   UNL     1     -11.461  15.039  66.851  1.00  0.00    -0.308 NA 
HETATM   23  C   UNL     1     -10.404  15.449  67.800  1.00  0.00    -0.253 C  
HETATM   24  H   UNL     1     -11.843  14.132  67.121  1.00  0.00     0.000 HD 
HETATM   25  C   UNL     1     -10.998  15.319  69.216  1.00  0.00    -0.261 C  
HETATM   26  C   UNL     1      -9.992  16.917  67.592  1.00  0.00    -0.271 C  
HETATM   27  C   UNL     1      -9.170  14.537  67.708  1.00  0.00    -0.194 C  
ENDBRANCH  21  22
ENDBRANCH  18  21
ENDBRANCH  17  18
ENDBRANCH  16  17
ENDBRANCH  13  16
BRANCH  15  28
HETATM   28  C   UNL     1      -9.211   9.648  66.640  1.00  0.00    -0.151 C  
HETATM   29  O   UNL     1      -9.523   8.660  65.974  1.00  0.00    -0.225 OA 
HETATM   30  C   UNL     1      -7.851  10.267  66.464  1.00  0.00    -0.116 C  
ENDBRANCH  15  28
ENDBRANCH   8  10
ENDBRANCH   6   8
ENDBRANCH   3   6
ENDBRANCH   2   3
TORSDOF 11
ENDMDL
MODEL       34
REMARK 921   NORMALIZED FREE ENERGY PREDICTED BY IDOCK:   -5.58 KCAL/MOL
REMARK 922        TOTAL FREE ENERGY PREDICTED BY IDOCK:  -10.30 KCAL/MOL
REMARK 923 INTER-LIGAND FREE ENERGY PREDICTED BY IDOCK:   -8.96 KCAL/MOL
REMARK 924 INTRA-LIGAND FREE ENERGY PREDICTED BY IDOCK:   -1.33 KCAL/MOL
REMARK 927      BINDING AFFINITY PREDICTED BY RF-SCORE:    0.00 PKD
ROOT
HETATM    1  C   UNL     1     -10.576  16.782  69.418  1.00  0.00    -0.318 C  
HETATM    2  C   UNL     1      -9.589  17.482  68.494  1.00  0.00    -0.305 C  
ENDROOT
BRANCH   2   3
HETATM    3  N   UNL     1     -10.160  17.811  67.184  1.00  0.00    -0.324 N  
BRANCH   3   4
HETATM    4  C   UNL     1     -10.889  19.077  67.052  1.00  0.00    -0.352 C  
HETATM    5  C   UNL     1     -10.027  20.315  67.221  1.00  0.00    -0.580 C  
ENDBRANCH   3   4
BRANCH   3   6
HETATM    6  C   UNL     1      -9.792  16.997  66.113  1.00  0.00    -0.278 C  
HETATM    7  O   UNL     1      -8.625  16.911  65.732  1.00  0.00    -0.505 OA 
BRANCH   6   8
HETATM    8  N   UNL     1     -10.829  16.273  65.553  1.00  0.00    -0.289 N  
HETATM    9  H   UNL     1     -11.568  16.771  65.058  1.00  0.00     0.000 HD 
BRANCH   8  10
HETATM   10  C   UNL     1     -10.894  14.871  65.645  1.00  0.00    -0.341 A  
HETATM   11  C   UNL     1     -10.417  14.041  64.633  1.00  0.00    -0.398 A  
HETATM   12  C   UNL     1     -10.440  12.653  64.791  1.00  0.00    -0.343 A  
HETATM   13  C   UNL     1     -10.918  12.068  65.972  1.00  0.00    -0.304 A  
HETATM   14  C   UNL     1     -11.439  14.300  66.795  1.00  0.00    -0.380 A  
HETATM   15  C   UNL     1     -11.430  12.906  66.979  1.00  0.00    -0.390 A  
BRANCH  13  16
HETATM   16  O   UNL     1     -10.868  10.722  66.218  1.00  0.00    -0.183 OA 
BRANCH  16  17
HETATM   17  C   UNL     1      -9.929   9.944  65.458  1.00  0.00    -0.292 C  
BRANCH  17  18
HETATM   18  C   UNL     1      -9.259   8.921  66.384  1.00  0.00    -0.189 C  
HETATM   19  H   UNL     1      -8.055   8.983  67.935  1.00  0.00     0.000 HD 
HETATM   20  O   UNL     1      -8.470   9.617  67.361  1.00  0.00    -0.124 OA 
BRANCH  18  21
HETATM   21  C   UNL     1     -10.260   8.012  67.124  1.00  0.00    -0.292 C  
BRANCH  21  22
HETATM   22  N   UNL     1     -10.693   8.550  68.419  1.00  0.00    -0.426 NA 
HETATM   23  C   UNL     1     -10.584   7.612  69.557  1.00  0.00    -0.227 C  
HETATM   24  H   UNL     1     -11.646   8.909  68.350  1.00  0.00     0.000 HD 
HETATM   25  C   UNL     1     -11.165   8.332  70.789  1.00  0.00    -0.284 C  
HETATM   26  C   UNL     1      -9.118   7.258  69.863  1.00  0.00    -0.141 C  
HETATM   27  C   UNL     1     -11.398   6.329  69.318  1.00  0.00    -0.411 C  
ENDBRANCH  21  22
ENDBRANCH  18  21
ENDBRANCH  17  18
ENDBRANCH  16  17
ENDBRANCH  13  16
BRANCH  15  28
HETATM   28  C   UNL     1     -11.909  12.455  68.321  1.00  0.00    -0.309 C  
HETATM   29  O   UNL     1     -12.283  11.290  68.464  1.00  0.00    -0.588 OA 
HETATM   30  C   UNL     1     -11.889  13.383  69.506  1.00  0.00    -0.391 C  
ENDBRANCH  15  28
ENDBRANCH   8  10
ENDBRANCH   6   8
ENDBRANCH   3   6
ENDBRANCH   2   3
TORSDOF 11
ENDMDL
MODEL       35
REMARK 921   NORMALIZED FREE ENERGY PREDICTED BY IDOCK:   -5.57 KCAL/MOL
REMARK 922        TOTAL FREE ENERGY PREDICTED BY IDOCK:  -10.29 KCAL/MOL
REMARK 923 INTER-LIGAND FREE ENERGY PREDICTED BY IDOCK:   -8.85 KCAL/MOL
REMARK 924 INTRA-LIGAND FREE ENERGY PREDICTED BY IDOCK:   -1.43 KCAL/MOL
REMARK 927      BINDING AFFINITY PREDICTED BY RF-SCORE:    0.00 PKD
ROOT
HETATM    1  C   UNL     1      -8.557   9.731  70.180  1.00  0.00    -0.214 C  
HETATM    2  C   UNL     1      -9.285   8.853  71.189  1.00  0.00    -0.256 C  
ENDROOT
BRANCH   2   3
HETATM    3  N   UNL     1     -10.563   8.338  70.689  1.00  0.00    -0.211 N  
BRANCH   3   4
HETATM    4  C   UNL     1     -10.527   7.324  69.629  1.00  0.00    -0.231 C  
HETATM    5  C   UNL     1     -11.211   6.018  69.990  1.00  0.00    -0.425 C  
ENDBRANCH   3   4
BRANCH   3   6
HETATM    6  C   UNL     1     -11.709   8.697  71.399  1.00  0.00    -0.297 C  
HETATM    7  O   UNL     1     -11.837   8.445  72.596  1.00  0.00    -0.393 OA 
BRANCH   6   8
HETATM    8  N   UNL     1     -12.655   9.386  70.662  1.00  0.00    -0.507 N  
HETATM    9  H   UNL     1     -13.557   8.947  70.481  1.00  0.00     0.000 HD 
BRANCH   8  10
HETATM   10  C   UNL     1     -12.410  10.675  70.154  1.00  0.00    -0.295 A  
HETATM   11  C   UNL     1     -12.413  11.804  70.971  1.00  0.00    -0.411 A  
HETATM   12  C   UNL     1     -12.101  13.058  70.441  1.00  0.00    -0.391 A  
HETATM   13  C   UNL     1     -11.756  13.206  69.090  1.00  0.00    -0.325 A  
HETATM   14  C   UNL     1     -12.140  10.819  68.794  1.00  0.00    -0.042 A  
HETATM   15  C   UNL     1     -11.785  12.071  68.260  1.00  0.00    -0.396 A  
BRANCH  13  16
HETATM   16  O   UNL     1     -11.343  14.392  68.545  1.00  0.00    -0.255 OA 
BRANCH  16  17
HETATM   17  C   UNL     1     -11.775  15.602  69.187  1.00  0.00    -0.390 C  
BRANCH  17  18
HETATM   18  C   UNL     1     -10.589  16.573  69.278  1.00  0.00    -0.327 C  
HETATM   19  H   UNL     1      -8.633  16.421  69.363  1.00  0.00     0.000 HD 
HETATM   20  O   UNL     1      -9.367  15.820  69.307  1.00  0.00    -0.232 OA 
BRANCH  18  21
HETATM   21  C   UNL     1     -10.519  17.571  68.106  1.00  0.00    -0.386 C  
BRANCH  21  22
HETATM   22  N   UNL     1      -9.313  17.423  67.282  1.00  0.00    -0.236 NA 
HETATM   23  C   UNL     1      -8.530  18.663  67.089  1.00  0.00    -0.265 C  
HETATM   24  H   UNL     1      -9.552  17.014  66.379  1.00  0.00     0.000 HD 
HETATM   25  C   UNL     1      -7.370  18.316  66.135  1.00  0.00    -0.298 C  
HETATM   26  C   UNL     1      -7.922  19.163  68.411  1.00  0.00    -0.376 C  
HETATM   27  C   UNL     1      -9.372  19.774  66.442  1.00  0.00    -0.488 C  
ENDBRANCH  21  22
ENDBRANCH  18  21
ENDBRANCH  17  18
ENDBRANCH  16  17
ENDBRANCH  13  16
BRANCH  15  28
HETATM   28  C   UNL     1     -11.378  12.038  66.822  1.00  0.00    -0.339 C  
HETATM   29  O   UNL     1     -12.202  12.342  65.958  1.00  0.00    -0.636 OA 
HETATM   30  C   UNL     1      -9.968  11.695  66.420  1.00  0.00    -0.235 C  
ENDBRANCH  15  28
ENDBRANCH   8  10
ENDBRANCH   6   8
ENDBRANCH   3   6
ENDBRANCH   2   3
TORSDOF 11
ENDMDL
MODEL       36
REMARK 921   NORMALIZED FREE ENERGY PREDICTED BY IDOCK:   -5.56 KCAL/MOL
REMARK 922        TOTAL FREE ENERGY PREDICTED BY IDOCK:  -10.27 KCAL/MOL
REMARK 923 INTER-LIGAND FREE ENERGY PREDICTED BY IDOCK:   -9.53 KCAL/MOL
REMARK 924 INTRA-LIGAND FREE ENERGY PREDICTED BY IDOCK:   -0.74 KCAL/MOL
REMARK 927      BINDING AFFINITY PREDICTED BY RF-SCORE:    0.00 PKD
ROOT
HETATM    1  C   UNL     1     -10.417   6.073  71.235  1.00  0.00    -0.283 C  
HETATM    2  C   UNL     1     -11.347   6.276  70.047  1.00  0.00    -0.416 C  
ENDROOT
BRANCH   2   3
HETATM    3  N   UNL     1     -10.691   6.920  68.904  1.00  0.00    -0.225 N  
BRANCH   3   4
HETATM    4  C   UNL     1     -10.820   6.282  67.590  1.00  0.00    -0.346 C  
HETATM    5  C   UNL     1      -9.997   5.018  67.426  1.00  0.00    -0.214 C  
ENDBRANCH   3   4
BRANCH   3   6
HETATM    6  C   UNL     1     -10.169   8.196  69.114  1.00  0.00    -0.214 C  
HETATM    7  O   UNL     1      -8.961   8.392  69.238  1.00  0.00    -0.147 OA 
BRANCH   6   8
HETATM    8  N   UNL     1     -11.108   9.211  69.130  1.00  0.00    -0.440 N  
HETATM    9  H   UNL     1     -11.785   9.247  69.892  1.00  0.00     0.000 HD 
BRANCH   8  10
HETATM   10  C   UNL     1     -11.159  10.195  68.126  1.00  0.00    -0.230 A  
HETATM   11  C   UNL     1     -11.770  11.430  68.332  1.00  0.00    -0.373 A  
HETATM   12  C   UNL     1     -11.742  12.406  67.332  1.00  0.00    -0.417 A  
HETATM   13  C   UNL     1     -11.084  12.175  66.117  1.00  0.00    -0.312 A  
HETATM   14  C   UNL     1     -10.564   9.926  66.894  1.00  0.00    -0.248 A  
HETATM   15  C   UNL     1     -10.497  10.916  65.897  1.00  0.00    -0.285 A  
BRANCH  13  16
HETATM   16  O   UNL     1     -10.939  13.131  65.147  1.00  0.00    -0.287 OA 
BRANCH  16  17
HETATM   17  C   UNL     1     -11.753  14.310  65.253  1.00  0.00    -0.357 C  
BRANCH  17  18
HETATM   18  C   UNL     1     -10.931  15.528  64.809  1.00  0.00    -0.399 C  
HETATM   19  H   UNL     1     -11.230  17.109  63.681  1.00  0.00     0.000 HD 
HETATM   20  O   UNL     1     -11.738  16.354  63.957  1.00  0.00    -1.044 OA 
BRANCH  18  21
HETATM   21  C   UNL     1     -10.421  16.388  65.981  1.00  0.00    -0.323 C  
BRANCH  21  22
HETATM   22  N   UNL     1     -10.359  17.822  65.672  1.00  0.00    -0.635 NA 
HETATM   23  C   UNL     1      -9.669  18.652  66.682  1.00  0.00    -0.341 C  
HETATM   24  H   UNL     1     -11.296  18.185  65.499  1.00  0.00     0.000 HD 
HETATM   25  C   UNL     1      -9.790  20.116  66.217  1.00  0.00    -0.541 C  
HETATM   26  C   UNL     1      -8.172  18.308  66.775  1.00  0.00    -0.269 C  
HETATM   27  C   UNL     1     -10.325  18.528  68.067  1.00  0.00    -0.417 C  
ENDBRANCH  21  22
ENDBRANCH  18  21
ENDBRANCH  17  18
ENDBRANCH  16  17
ENDBRANCH  13  16
BRANCH  15  28
HETATM   28  C   UNL     1      -9.698  10.530  64.694  1.00  0.00    -0.309 C  
HETATM   29  O   UNL     1     -10.218  10.604  63.579  1.00  0.00    -0.295 OA 
HETATM   30  C   UNL     1      -8.258  10.108  64.819  1.00  0.00    -0.161 C  
ENDBRANCH  15  28
ENDBRANCH   8  10
ENDBRANCH   6   8
ENDBRANCH   3   6
ENDBRANCH   2   3
TORSDOF 11
ENDMDL
MODEL       37
REMARK 921   NORMALIZED FREE ENERGY PREDICTED BY IDOCK:   -5.54 KCAL/MOL
REMARK 922        TOTAL FREE ENERGY PREDICTED BY IDOCK:  -10.24 KCAL/MOL
REMARK 923 INTER-LIGAND FREE ENERGY PREDICTED BY IDOCK:   -8.70 KCAL/MOL
REMARK 924 INTRA-LIGAND FREE ENERGY PREDICTED BY IDOCK:   -1.54 KCAL/MOL
REMARK 927      BINDING AFFINITY PREDICTED BY RF-SCORE:    0.00 PKD
ROOT
HETATM    1  C   UNL     1     -11.029  15.251  64.907  1.00  0.00    -0.445 C  
HETATM    2  C   UNL     1     -10.340  13.994  65.419  1.00  0.00    -0.359 C  
ENDROOT
BRANCH   2   3
HETATM    3  N   UNL     1     -11.268  12.885  65.663  1.00  0.00    -0.289 N  
BRANCH   3   4
HETATM    4  C   UNL     1     -12.492  12.826  64.857  1.00  0.00    -0.497 C  
HETATM    5  C   UNL     1     -12.321  12.145  63.511  1.00  0.00    -0.682 C  
ENDBRANCH   3   4
BRANCH   3   6
HETATM    6  C   UNL     1     -10.821  11.860  66.496  1.00  0.00    -0.278 C  
HETATM    7  O   UNL     1     -10.627  10.720  66.078  1.00  0.00    -0.228 OA 
BRANCH   6   8
HETATM    8  N   UNL     1     -10.580  12.241  67.804  1.00  0.00    -0.214 N  
HETATM    9  H   UNL     1     -10.434  13.228  68.012  1.00  0.00     0.000 HD 
BRANCH   8  10
HETATM   10  C   UNL     1     -10.531  11.306  68.854  1.00  0.00    -0.206 A  
HETATM   11  C   UNL     1      -9.376  10.583  69.146  1.00  0.00    -0.200 A  
HETATM   12  C   UNL     1      -9.347   9.712  70.239  1.00  0.00    -0.292 A  
HETATM   13  C   UNL     1     -10.462   9.566  71.075  1.00  0.00    -0.306 A  
HETATM   14  C   UNL     1     -11.670  11.115  69.635  1.00  0.00    -0.410 A  
HETATM   15  C   UNL     1     -11.638  10.271  70.760  1.00  0.00    -0.446 A  
BRANCH  13  16
HETATM   16  O   UNL     1     -10.453   8.806  72.214  1.00  0.00    -0.329 OA 
BRANCH  16  17
HETATM   17  C   UNL     1      -9.177   8.362  72.703  1.00  0.00    -0.254 C  
BRANCH  17  18
HETATM   18  C   UNL     1      -9.337   6.967  73.323  1.00  0.00    -0.153 C  
HETATM   19  H   UNL     1     -10.714   6.020  74.356  1.00  0.00     0.000 HD 
HETATM   20  O   UNL     1     -10.615   6.884  73.972  1.00  0.00    -0.349 OA 
BRANCH  18  21
HETATM   21  C   UNL     1      -9.235   5.821  72.298  1.00  0.00    -0.145 C  
BRANCH  21  22
HETATM   22  N   UNL     1      -8.895   6.275  70.944  1.00  0.00    -0.136 NA 
HETATM   23  C   UNL     1      -9.735   5.714  69.865  1.00  0.00    -0.168 C  
HETATM   24  H   UNL     1      -7.909   6.097  70.751  1.00  0.00     0.000 HD 
HETATM   25  C   UNL     1      -9.164   6.240  68.533  1.00  0.00    -0.123 C  
HETATM   26  C   UNL     1     -11.194   6.191  69.974  1.00  0.00    -0.471 C  
HETATM   27  C   UNL     1      -9.682   4.178  69.840  1.00  0.00    -0.280 C  
ENDBRANCH  21  22
ENDBRANCH  18  21
ENDBRANCH  17  18
ENDBRANCH  16  17
ENDBRANCH  13  16
BRANCH  15  28
HETATM   28  C   UNL     1     -12.887  10.286  71.581  1.00  0.00    -0.463 C  
HETATM   29  O   UNL     1     -13.277  11.352  72.060  1.00  0.00    -0.503 OA 
HETATM   30  C   UNL     1     -13.699   9.035  71.784  1.00  0.00    -0.474 C  
ENDBRANCH  15  28
ENDBRANCH   8  10
ENDBRANCH   6   8
ENDBRANCH   3   6
ENDBRANCH   2   3
TORSDOF 11
ENDMDL
MODEL       38
REMARK 921   NORMALIZED FREE ENERGY PREDICTED BY IDOCK:   -5.54 KCAL/MOL
REMARK 922        TOTAL FREE ENERGY PREDICTED BY IDOCK:  -10.24 KCAL/MOL
REMARK 923 INTER-LIGAND FREE ENERGY PREDICTED BY IDOCK:   -9.43 KCAL/MOL
REMARK 924 INTRA-LIGAND FREE ENERGY PREDICTED BY IDOCK:   -0.80 KCAL/MOL
REMARK 927      BINDING AFFINITY PREDICTED BY RF-SCORE:    0.00 PKD
ROOT
HETATM    1  C   UNL     1      -9.524  15.958  65.860  1.00  0.00    -0.372 C  
HETATM    2  C   UNL     1     -10.768  15.737  65.010  1.00  0.00    -0.421 C  
ENDROOT
BRANCH   2   3
HETATM    3  N   UNL     1     -11.295  14.372  65.102  1.00  0.00    -0.343 N  
BRANCH   3   4
HETATM    4  C   UNL     1     -10.501  13.289  64.511  1.00  0.00    -0.415 C  
HETATM    5  C   UNL     1     -11.325  12.204  63.842  1.00  0.00    -0.501 C  
ENDBRANCH   3   4
BRANCH   3   6
HETATM    6  C   UNL     1     -12.407  14.179  65.922  1.00  0.00    -0.463 C  
HETATM    7  O   UNL     1     -13.458  13.706  65.491  1.00  0.00    -0.507 OA 
BRANCH   6   8
HETATM    8  N   UNL     1     -12.214  14.521  67.248  1.00  0.00    -0.581 N  
HETATM    9  H   UNL     1     -12.215  15.506  67.509  1.00  0.00     0.000 HD 
BRANCH   8  10
HETATM   10  C   UNL     1     -12.018  13.550  68.247  1.00  0.00    -0.342 A  
HETATM   11  C   UNL     1     -12.381  13.771  69.573  1.00  0.00    -0.258 A  
HETATM   12  C   UNL     1     -12.231  12.758  70.523  1.00  0.00    -0.389 A  
HETATM   13  C   UNL     1     -11.737  11.497  70.162  1.00  0.00    -0.309 A  
HETATM   14  C   UNL     1     -11.458  12.324  67.889  1.00  0.00    -0.390 A  
HETATM   15  C   UNL     1     -11.339  11.286  68.830  1.00  0.00    -0.335 A  
BRANCH  13  16
HETATM   16  O   UNL     1     -11.666  10.440  71.030  1.00  0.00    -0.348 OA 
BRANCH  16  17
HETATM   17  C   UNL     1     -12.849  10.118  71.780  1.00  0.00    -0.452 C  
BRANCH  17  18
HETATM   18  C   UNL     1     -12.701   8.708  72.368  1.00  0.00    -0.362 C  
HETATM   19  H   UNL     1     -13.400   6.919  71.959  1.00  0.00     0.000 HD 
HETATM   20  O   UNL     1     -13.492   7.792  71.596  1.00  0.00    -0.347 OA 
BRANCH  18  21
HETATM   21  C   UNL     1     -11.247   8.199  72.389  1.00  0.00    -0.386 C  
BRANCH  21  22
HETATM   22  N   UNL     1     -10.964   7.192  71.359  1.00  0.00    -0.232 NA 
HETATM   23  C   UNL     1     -10.465   5.897  71.869  1.00  0.00    -0.220 C  
HETATM   24  H   UNL     1     -10.317   7.570  70.666  1.00  0.00     0.000 HD 
HETATM   25  C   UNL     1     -10.148   5.024  70.639  1.00  0.00    -0.313 C  
HETATM   26  C   UNL     1     -11.529   5.167  72.706  1.00  0.00    -0.284 C  
HETATM   27  C   UNL     1      -9.174   6.065  72.687  1.00  0.00    -0.143 C  
ENDBRANCH  21  22
ENDBRANCH  18  21
ENDBRANCH  17  18
ENDBRANCH  16  17
ENDBRANCH  13  16
BRANCH  15  28
HETATM   28  C   UNL     1     -10.862   9.987  68.263  1.00  0.00    -0.241 C  
HETATM   29  O   UNL     1     -10.910   8.974  68.962  1.00  0.00    -0.179 OA 
HETATM   30  C   UNL     1     -10.380   9.890  66.840  1.00  0.00    -0.300 C  
ENDBRANCH  15  28
ENDBRANCH   8  10
ENDBRANCH   6   8
ENDBRANCH   3   6
ENDBRANCH   2   3
TORSDOF 11
ENDMDL
MODEL       39
REMARK 921   NORMALIZED FREE ENERGY PREDICTED BY IDOCK:   -5.50 KCAL/MOL
REMARK 922        TOTAL FREE ENERGY PREDICTED BY IDOCK:  -10.17 KCAL/MOL
REMARK 923 INTER-LIGAND FREE ENERGY PREDICTED BY IDOCK:   -8.42 KCAL/MOL
REMARK 924 INTRA-LIGAND FREE ENERGY PREDICTED BY IDOCK:   -1.76 KCAL/MOL
REMARK 927      BINDING AFFINITY PREDICTED BY RF-SCORE:    0.00 PKD
ROOT
HETATM    1  C   UNL     1     -11.980  12.096  63.686  1.00  0.00    -0.628 C  
HETATM    2  C   UNL     1     -10.797  12.817  64.317  1.00  0.00    -0.390 C  
ENDROOT
BRANCH   2   3
HETATM    3  N   UNL     1     -10.191  12.070  65.424  1.00  0.00    -0.256 N  
BRANCH   3   4
HETATM    4  C   UNL     1      -9.229  11.013  65.094  1.00  0.00    -0.205 C  
HETATM    5  C   UNL     1      -9.742   9.605  65.331  1.00  0.00    -0.365 C  
ENDBRANCH   3   4
BRANCH   3   6
HETATM    6  C   UNL     1     -10.418  12.556  66.712  1.00  0.00    -0.225 C  
HETATM    7  O   UNL     1      -9.788  13.510  67.167  1.00  0.00    -0.235 OA 
BRANCH   6   8
HETATM    8  N   UNL     1     -11.426  11.911  67.405  1.00  0.00    -0.323 N  
HETATM    9  H   UNL     1     -12.389  12.011  67.085  1.00  0.00     0.000 HD 
BRANCH   8  10
HETATM   10  C   UNL     1     -11.162  11.122  68.539  1.00  0.00    -0.258 A  
HETATM   11  C   UNL     1      -9.937  10.487  68.728  1.00  0.00    -0.200 A  
HETATM   12  C   UNL     1      -9.691   9.765  69.899  1.00  0.00    -0.273 A  
HETATM   13  C   UNL     1     -10.655   9.683  70.913  1.00  0.00    -0.316 A  
HETATM   14  C   UNL     1     -12.156  10.987  69.508  1.00  0.00    -0.400 A  
HETATM   15  C   UNL     1     -11.903  10.296  70.707  1.00  0.00    -0.459 A  
BRANCH  13  16
HETATM   16  O   UNL     1     -10.427   9.077  72.120  1.00  0.00    -0.321 OA 
BRANCH  16  17
HETATM   17  C   UNL     1      -9.164   8.417  72.302  1.00  0.00    -0.259 C  
BRANCH  17  18
HETATM   18  C   UNL     1      -9.403   7.045  72.946  1.00  0.00    -0.140 C  
HETATM   19  H   UNL     1     -10.758   6.244  74.121  1.00  0.00     0.000 HD 
HETATM   20  O   UNL     1     -10.610   7.094  73.722  1.00  0.00    -0.377 OA 
BRANCH  18  21
HETATM   21  C   UNL     1      -9.528   5.898  71.924  1.00  0.00    -0.151 C  
BRANCH  21  22
HETATM   22  N   UNL     1     -10.423   6.207  70.803  1.00  0.00    -0.219 NA 
HETATM   23  C   UNL     1      -9.918   5.812  69.470  1.00  0.00    -0.191 C  
HETATM   24  H   UNL     1     -10.664   7.199  70.808  1.00  0.00     0.000 HD 
HETATM   25  C   UNL     1     -10.953   6.299  68.437  1.00  0.00    -0.409 C  
HETATM   26  C   UNL     1      -9.800   4.284  69.337  1.00  0.00    -0.205 C  
HETATM   27  C   UNL     1      -8.569   6.476  69.152  1.00  0.00    -0.129 C  
ENDBRANCH  21  22
ENDBRANCH  18  21
ENDBRANCH  17  18
ENDBRANCH  16  17
ENDBRANCH  13  16
BRANCH  15  28
HETATM   28  C   UNL     1     -13.011  10.368  71.708  1.00  0.00    -0.475 C  
HETATM   29  O   UNL     1     -13.385  11.470  72.111  1.00  0.00    -0.477 OA 
HETATM   30  C   UNL     1     -13.709   9.122  72.186  1.00  0.00    -0.531 C  
ENDBRANCH  15  28
ENDBRANCH   8  10
ENDBRANCH   6   8
ENDBRANCH   3   6
ENDBRANCH   2   3
TORSDOF 11
ENDMDL
MODEL       40
REMARK 921   NORMALIZED FREE ENERGY PREDICTED BY IDOCK:   -5.49 KCAL/MOL
REMARK 922        TOTAL FREE ENERGY PREDICTED BY IDOCK:  -10.15 KCAL/MOL
REMARK 923 INTER-LIGAND FREE ENERGY PREDICTED BY IDOCK:   -8.11 KCAL/MOL
REMARK 924 INTRA-LIGAND FREE ENERGY PREDICTED BY IDOCK:   -2.04 KCAL/MOL
REMARK 927      BINDING AFFINITY PREDICTED BY RF-SCORE:    0.00 PKD
ROOT
HETATM    1  C   UNL     1     -11.126  13.266  64.876  1.00  0.00    -0.345 C  
HETATM    2  C   UNL     1     -11.941  12.656  66.008  1.00  0.00    -0.417 C  
ENDROOT
BRANCH   2   3
HETATM    3  N   UNL     1     -11.142  11.816  66.907  1.00  0.00    -0.292 N  
BRANCH   3   4
HETATM    4  C   UNL     1      -9.873  11.283  66.400  1.00  0.00    -0.211 C  
HETATM    5  C   UNL     1      -9.872   9.782  66.175  1.00  0.00    -0.329 C  
ENDBRANCH   3   4
BRANCH   3   6
HETATM    6  C   UNL     1     -11.547  11.758  68.241  1.00  0.00    -0.308 C  
HETATM    7  O   UNL     1     -12.472  11.035  68.608  1.00  0.00    -0.462 OA 
BRANCH   6   8
HETATM    8  N   UNL     1     -10.803  12.538  69.107  1.00  0.00    -0.424 N  
HETATM    9  H   UNL     1     -10.356  12.096  69.909  1.00  0.00     0.000 HD 
BRANCH   8  10
HETATM   10  C   UNL     1     -10.645  13.922  68.913  1.00  0.00    -0.212 A  
HETATM   11  C   UNL     1     -11.702  14.816  69.069  1.00  0.00    -0.343 A  
HETATM   12  C   UNL     1     -11.490  16.190  68.933  1.00  0.00    -0.331 A  
HETATM   13  C   UNL     1     -10.213  16.700  68.661  1.00  0.00    -0.284 A  
HETATM   14  C   UNL     1      -9.385  14.412  68.571  1.00  0.00    -0.204 A  
HETATM   15  C   UNL     1      -9.153  15.795  68.470  1.00  0.00    -0.194 A  
BRANCH  13  16
HETATM   16  O   UNL     1      -9.932  18.039  68.619  1.00  0.00    -0.357 OA 
BRANCH  16  17
HETATM   17  C   UNL     1     -10.644  18.836  67.658  1.00  0.00    -0.419 C  
BRANCH  17  18
HETATM   18  C   UNL     1      -9.951  18.714  66.294  1.00  0.00    -0.372 C  
HETATM   19  H   UNL     1     -10.478  18.902  64.411  1.00  0.00     0.000 HD 
HETATM   20  O   UNL     1     -10.907  18.977  65.256  1.00  0.00    -0.540 OA 
BRANCH  18  21
HETATM   21  C   UNL     1      -8.763  19.680  66.118  1.00  0.00    -0.333 C  
BRANCH  21  22
HETATM   22  N   UNL     1      -7.591  19.320  66.925  1.00  0.00    -0.234 NA 
HETATM   23  C   UNL     1      -6.285  19.672  66.327  1.00  0.00    -0.173 C  
HETATM   24  H   UNL     1      -7.615  18.327  67.158  1.00  0.00     0.000 HD 
HETATM   25  C   UNL     1      -5.198  19.137  67.279  1.00  0.00    -0.155 C  
HETATM   26  C   UNL     1      -6.105  21.196  66.212  1.00  0.00    -0.327 C  
HETATM   27  C   UNL     1      -6.092  19.012  64.952  1.00  0.00    -0.307 C  
ENDBRANCH  21  22
ENDBRANCH  18  21
ENDBRANCH  17  18
ENDBRANCH  16  17
ENDBRANCH  13  16
BRANCH  15  28
HETATM   28  C   UNL     1      -7.723  16.170  68.247  1.00  0.00    -0.148 C  
HETATM   29  O   UNL     1      -7.304  16.275  67.093  1.00  0.00    -0.167 OA 
HETATM   30  C   UNL     1      -6.809  16.472  69.403  1.00  0.00    -0.220 C  
ENDBRANCH  15  28
ENDBRANCH   8  10
ENDBRANCH   6   8
ENDBRANCH   3   6
ENDBRANCH   2   3
TORSDOF 11
ENDMDL
MODEL       41
REMARK 921   NORMALIZED FREE ENERGY PREDICTED BY IDOCK:   -5.46 KCAL/MOL
REMARK 922        TOTAL FREE ENERGY PREDICTED BY IDOCK:  -10.11 KCAL/MOL
REMARK 923 INTER-LIGAND FREE ENERGY PREDICTED BY IDOCK:   -8.35 KCAL/MOL
REMARK 924 INTRA-LIGAND FREE ENERGY PREDICTED BY IDOCK:   -1.75 KCAL/MOL
REMARK 927      BINDING AFFINITY PREDICTED BY RF-SCORE:    0.00 PKD
ROOT
HETATM    1  C   UNL     1     -12.949  11.959  63.385  1.00  0.00    -0.258 C  
HETATM    2  C   UNL     1     -12.298  12.604  64.601  1.00  0.00    -0.476 C  
ENDROOT
BRANCH   2   3
HETATM    3  N   UNL     1     -10.848  12.770  64.459  1.00  0.00    -0.325 N  
BRANCH   3   4
HETATM    4  C   UNL     1     -10.168  11.998  63.414  1.00  0.00    -0.426 C  
HETATM    5  C   UNL     1      -9.678  10.634  63.864  1.00  0.00    -0.378 C  
ENDBRANCH   3   4
BRANCH   3   6
HETATM    6  C   UNL     1     -10.257  13.801  65.190  1.00  0.00    -0.345 C  
HETATM    7  O   UNL     1     -10.367  14.980  64.857  1.00  0.00    -0.383 OA 
BRANCH   6   8
HETATM    8  N   UNL     1      -9.583  13.393  66.327  1.00  0.00    -0.377 N  
HETATM    9  H   UNL     1      -8.611  13.673  66.451  1.00  0.00     0.000 HD 
BRANCH   8  10
HETATM   10  C   UNL     1     -10.198  12.603  67.315  1.00  0.00    -0.224 A  
HETATM   11  C   UNL     1     -11.184  13.111  68.158  1.00  0.00    -0.304 A  
HETATM   12  C   UNL     1     -11.818  12.277  69.083  1.00  0.00    -0.355 A  
HETATM   13  C   UNL     1     -11.496  10.916  69.168  1.00  0.00    -0.303 A  
HETATM   14  C   UNL     1      -9.817  11.268  67.439  1.00  0.00    -0.201 A  
HETATM   15  C   UNL     1     -10.477  10.412  68.340  1.00  0.00    -0.216 A  
BRANCH  13  16
HETATM   16  O   UNL     1     -12.157  10.036  69.983  1.00  0.00    -0.152 OA 
BRANCH  16  17
HETATM   17  C   UNL     1     -12.735  10.558  71.190  1.00  0.00    -0.418 C  
BRANCH  17  18
HETATM   18  C   UNL     1     -12.913   9.413  72.197  1.00  0.00    -0.421 C  
HETATM   19  H   UNL     1     -14.158   7.913  72.436  1.00  0.00     0.000 HD 
HETATM   20  O   UNL     1     -14.048   8.622  71.813  1.00  0.00    -0.407 OA 
BRANCH  18  21
HETATM   21  C   UNL     1     -11.686   8.487  72.300  1.00  0.00    -0.373 C  
BRANCH  21  22
HETATM   22  N   UNL     1     -11.588   7.519  71.200  1.00  0.00    -0.276 NA 
HETATM   23  C   UNL     1     -10.804   6.303  71.503  1.00  0.00    -0.254 C  
HETATM   24  H   UNL     1     -11.222   7.974  70.363  1.00  0.00     0.000 HD 
HETATM   25  C   UNL     1     -10.749   5.471  70.207  1.00  0.00    -0.333 C  
HETATM   26  C   UNL     1     -11.480   5.446  72.587  1.00  0.00    -0.305 C  
HETATM   27  C   UNL     1      -9.363   6.642  71.920  1.00  0.00    -0.147 C  
ENDBRANCH  21  22
ENDBRANCH  18  21
ENDBRANCH  17  18
ENDBRANCH  16  17
ENDBRANCH  13  16
BRANCH  15  28
HETATM   28  C   UNL     1     -10.061   8.979  68.251  1.00  0.00    -0.192 C  
HETATM   29  O   UNL     1      -9.259   8.535  69.075  1.00  0.00    -0.146 OA 
HETATM   30  C   UNL     1     -10.646   8.062  67.210  1.00  0.00    -0.360 C  
ENDBRANCH  15  28
ENDBRANCH   8  10
ENDBRANCH   6   8
ENDBRANCH   3   6
ENDBRANCH   2   3
TORSDOF 11
ENDMDL
MODEL       42
REMARK 921   NORMALIZED FREE ENERGY PREDICTED BY IDOCK:   -5.46 KCAL/MOL
REMARK 922        TOTAL FREE ENERGY PREDICTED BY IDOCK:  -10.10 KCAL/MOL
REMARK 923 INTER-LIGAND FREE ENERGY PREDICTED BY IDOCK:   -8.95 KCAL/MOL
REMARK 924 INTRA-LIGAND FREE ENERGY PREDICTED BY IDOCK:   -1.15 KCAL/MOL
REMARK 927      BINDING AFFINITY PREDICTED BY RF-SCORE:    0.00 PKD
ROOT
HETATM    1  C   UNL     1      -7.758  14.404  67.776  1.00  0.00    -0.172 C  
HETATM    2  C   UNL     1      -8.153  15.635  66.972  1.00  0.00    -0.241 C  
ENDROOT
BRANCH   2   3
HETATM    3  N   UNL     1      -9.594  15.906  67.003  1.00  0.00    -0.219 N  
BRANCH   3   4
HETATM    4  C   UNL     1     -10.049  17.121  67.688  1.00  0.00    -0.305 C  
HETATM    5  C   UNL     1     -10.239  18.318  66.775  1.00  0.00    -0.393 C  
ENDBRANCH   3   4
BRANCH   3   6
HETATM    6  C   UNL     1     -10.404  15.099  66.205  1.00  0.00    -0.301 C  
HETATM    7  O   UNL     1     -10.016  14.653  65.126  1.00  0.00    -0.358 OA 
BRANCH   6   8
HETATM    8  N   UNL     1     -11.647  14.816  66.741  1.00  0.00    -0.354 N  
HETATM    9  H   UNL     1     -12.462  15.321  66.394  1.00  0.00     0.000 HD 
BRANCH   8  10
HETATM   10  C   UNL     1     -11.820  13.852  67.750  1.00  0.00    -0.380 A  
HETATM   11  C   UNL     1     -11.665  12.489  67.506  1.00  0.00    -0.439 A  
HETATM   12  C   UNL     1     -11.781  11.568  68.550  1.00  0.00    -0.379 A  
HETATM   13  C   UNL     1     -12.032  11.991  69.862  1.00  0.00    -0.318 A  
HETATM   14  C   UNL     1     -12.143  14.280  69.038  1.00  0.00    -0.320 A  
HETATM   15  C   UNL     1     -12.222  13.364  70.102  1.00  0.00    -0.385 A  
BRANCH  13  16
HETATM   16  O   UNL     1     -12.053  11.141  70.935  1.00  0.00    -0.346 OA 
BRANCH  16  17
HETATM   17  C   UNL     1     -12.674   9.858  70.752  1.00  0.00    -0.224 C  
BRANCH  17  18
HETATM   18  C   UNL     1     -11.645   8.757  71.045  1.00  0.00    -0.288 C  
HETATM   19  H   UNL     1      -9.834   8.670  71.800  1.00  0.00     0.000 HD 
HETATM   20  O   UNL     1     -10.471   9.351  71.618  1.00  0.00    -0.325 OA 
BRANCH  18  21
HETATM   21  C   UNL     1     -12.162   7.671  72.008  1.00  0.00    -0.293 C  
BRANCH  21  22
HETATM   22  N   UNL     1     -11.267   7.422  73.144  1.00  0.00    -0.577 NA 
HETATM   23  C   UNL     1     -10.614   6.095  73.148  1.00  0.00    -0.248 C  
HETATM   24  H   UNL     1     -11.764   7.572  74.023  1.00  0.00     0.000 HD 
HETATM   25  C   UNL     1      -9.798   6.002  74.452  1.00  0.00    -0.270 C  
HETATM   26  C   UNL     1      -9.639   5.938  71.968  1.00  0.00    -0.167 C  
HETATM   27  C   UNL     1     -11.643   4.953  73.139  1.00  0.00    -0.300 C  
ENDBRANCH  21  22
ENDBRANCH  18  21
ENDBRANCH  17  18
ENDBRANCH  16  17
ENDBRANCH  13  16
BRANCH  15  28
HETATM   28  C   UNL     1     -12.425  13.989  71.444  1.00  0.00    -0.356 C  
HETATM   29  O   UNL     1     -11.552  14.732  71.898  1.00  0.00    -0.315 OA 
HETATM   30  C   UNL     1     -13.696  13.771  72.220  1.00  0.00    -0.673 C  
ENDBRANCH  15  28
ENDBRANCH   8  10
ENDBRANCH   6   8
ENDBRANCH   3   6
ENDBRANCH   2   3
TORSDOF 11
ENDMDL
MODEL       43
REMARK 921   NORMALIZED FREE ENERGY PREDICTED BY IDOCK:   -5.45 KCAL/MOL
REMARK 922        TOTAL FREE ENERGY PREDICTED BY IDOCK:  -10.09 KCAL/MOL
REMARK 923 INTER-LIGAND FREE ENERGY PREDICTED BY IDOCK:   -9.23 KCAL/MOL
REMARK 924 INTRA-LIGAND FREE ENERGY PREDICTED BY IDOCK:   -0.86 KCAL/MOL
REMARK 927      BINDING AFFINITY PREDICTED BY RF-SCORE:    0.00 PKD
ROOT
HETATM    1  C   UNL     1      -6.507  17.817  68.619  1.00  0.00    -0.210 C  
HETATM    2  C   UNL     1      -7.978  17.427  68.669  1.00  0.00    -0.271 C  
ENDROOT
BRANCH   2   3
HETATM    3  N   UNL     1      -8.780  18.063  67.619  1.00  0.00    -0.245 N  
BRANCH   3   4
HETATM    4  C   UNL     1      -8.656  19.514  67.446  1.00  0.00    -0.304 C  
HETATM    5  C   UNL     1      -9.947  20.281  67.660  1.00  0.00    -0.551 C  
ENDBRANCH   3   4
BRANCH   3   6
HETATM    6  C   UNL     1      -9.442  17.216  66.731  1.00  0.00    -0.267 C  
HETATM    7  O   UNL     1      -8.931  16.856  65.671  1.00  0.00    -0.486 OA 
BRANCH   6   8
HETATM    8  N   UNL     1     -10.686  16.788  67.157  1.00  0.00    -0.246 N  
HETATM    9  H   UNL     1     -11.434  17.473  67.265  1.00  0.00     0.000 HD 
BRANCH   8  10
HETATM   10  C   UNL     1     -10.951  15.437  67.447  1.00  0.00    -0.312 A  
HETATM   11  C   UNL     1     -11.036  14.965  68.755  1.00  0.00    -0.274 A  
HETATM   12  C   UNL     1     -11.366  13.630  69.002  1.00  0.00    -0.333 A  
HETATM   13  C   UNL     1     -11.639  12.747  67.948  1.00  0.00    -0.351 A  
HETATM   14  C   UNL     1     -11.149  14.552  66.388  1.00  0.00    -0.331 A  
HETATM   15  C   UNL     1     -11.520  13.216  66.628  1.00  0.00    -0.389 A  
BRANCH  13  16
HETATM   16  O   UNL     1     -12.066  11.460  68.138  1.00  0.00    -0.623 OA 
BRANCH  16  17
HETATM   17  C   UNL     1     -12.122  10.972  69.488  1.00  0.00    -0.329 C  
BRANCH  17  18
HETATM   18  C   UNL     1     -11.157   9.788  69.634  1.00  0.00    -0.217 C  
HETATM   19  H   UNL     1      -9.209   9.535  69.633  1.00  0.00     0.000 HD 
HETATM   20  O   UNL     1      -9.807  10.268  69.542  1.00  0.00    -0.224 OA 
BRANCH  18  21
HETATM   21  C   UNL     1     -11.313   9.026  70.964  1.00  0.00    -0.297 C  
BRANCH  21  22
HETATM   22  N   UNL     1     -10.322   7.959  71.149  1.00  0.00    -0.199 NA 
HETATM   23  C   UNL     1     -10.868   6.586  71.130  1.00  0.00    -0.249 C  
HETATM   24  H   UNL     1      -9.793   8.116  72.007  1.00  0.00     0.000 HD 
HETATM   25  C   UNL     1      -9.693   5.633  71.426  1.00  0.00    -0.204 C  
HETATM   26  C   UNL     1     -11.438   6.219  69.748  1.00  0.00    -0.449 C  
HETATM   27  C   UNL     1     -11.939   6.383  72.214  1.00  0.00    -0.289 C  
ENDBRANCH  21  22
ENDBRANCH  18  21
ENDBRANCH  17  18
ENDBRANCH  16  17
ENDBRANCH  13  16
BRANCH  15  28
HETATM   28  C   UNL     1     -11.844  12.433  65.396  1.00  0.00    -0.406 C  
HETATM   29  O   UNL     1     -12.971  12.527  64.905  1.00  0.00    -0.821 OA 
HETATM   30  C   UNL     1     -10.804  11.581  64.720  1.00  0.00    -0.360 C  
ENDBRANCH  15  28
ENDBRANCH   8  10
ENDBRANCH   6   8
ENDBRANCH   3   6
ENDBRANCH   2   3
TORSDOF 11
ENDMDL
MODEL       44
REMARK 921   NORMALIZED FREE ENERGY PREDICTED BY IDOCK:   -5.45 KCAL/MOL
REMARK 922        TOTAL FREE ENERGY PREDICTED BY IDOCK:  -10.09 KCAL/MOL
REMARK 923 INTER-LIGAND FREE ENERGY PREDICTED BY IDOCK:   -8.48 KCAL/MOL
REMARK 924 INTRA-LIGAND FREE ENERGY PREDICTED BY IDOCK:   -1.61 KCAL/MOL
REMARK 927      BINDING AFFINITY PREDICTED BY RF-SCORE:    0.00 PKD
ROOT
HETATM    1  C   UNL     1      -6.720  18.134  69.099  1.00  0.00    -0.252 C  
HETATM    2  C   UNL     1      -7.817  17.234  68.547  1.00  0.00    -0.266 C  
ENDROOT
BRANCH   2   3
HETATM    3  N   UNL     1      -8.823  17.962  67.768  1.00  0.00    -0.247 N  
BRANCH   3   4
HETATM    4  C   UNL     1      -8.887  19.419  67.921  1.00  0.00    -0.316 C  
HETATM    5  C   UNL     1     -10.215  19.935  68.444  1.00  0.00    -0.557 C  
ENDBRANCH   3   4
BRANCH   3   6
HETATM    6  C   UNL     1      -9.504  17.241  66.787  1.00  0.00    -0.265 C  
HETATM    7  O   UNL     1      -8.997  16.989  65.695  1.00  0.00    -0.492 OA 
BRANCH   6   8
HETATM    8  N   UNL     1     -10.763  16.804  67.159  1.00  0.00    -0.246 N  
HETATM    9  H   UNL     1     -11.519  17.484  67.234  1.00  0.00     0.000 HD 
BRANCH   8  10
HETATM   10  C   UNL     1     -11.031  15.452  67.437  1.00  0.00    -0.312 A  
HETATM   11  C   UNL     1     -11.084  14.962  68.740  1.00  0.00    -0.274 A  
HETATM   12  C   UNL     1     -11.418  13.626  68.977  1.00  0.00    -0.346 A  
HETATM   13  C   UNL     1     -11.727  12.760  67.919  1.00  0.00    -0.357 A  
HETATM   14  C   UNL     1     -11.265  14.582  66.372  1.00  0.00    -0.341 A  
HETATM   15  C   UNL     1     -11.640  13.247  66.603  1.00  0.00    -0.408 A  
BRANCH  13  16
HETATM   16  O   UNL     1     -12.159  11.473  68.103  1.00  0.00    -0.604 OA 
BRANCH  16  17
HETATM   17  C   UNL     1     -11.788  10.818  69.327  1.00  0.00    -0.288 C  
BRANCH  17  18
HETATM   18  C   UNL     1     -10.774   9.710  69.015  1.00  0.00    -0.211 C  
HETATM   19  H   UNL     1     -10.109   8.805  67.403  1.00  0.00     0.000 HD 
HETATM   20  O   UNL     1     -10.738   9.492  67.596  1.00  0.00    -0.274 OA 
BRANCH  18  21
HETATM   21  C   UNL     1      -9.345  10.028  69.496  1.00  0.00    -0.229 C  
BRANCH  21  22
HETATM   22  N   UNL     1      -8.311   9.729  68.498  1.00  0.00    -0.109 NA 
HETATM   23  C   UNL     1      -7.424  10.862  68.155  1.00  0.00    -0.091 C  
HETATM   24  H   UNL     1      -8.737   9.348  67.653  1.00  0.00     0.000 HD 
HETATM   25  C   UNL     1      -6.480  10.369  67.041  1.00  0.00    -0.074 C  
HETATM   26  C   UNL     1      -6.559  11.290  69.353  1.00  0.00    -0.116 C  
HETATM   27  C   UNL     1      -8.217  12.065  67.619  1.00  0.00    -0.155 C  
ENDBRANCH  21  22
ENDBRANCH  18  21
ENDBRANCH  17  18
ENDBRANCH  16  17
ENDBRANCH  13  16
BRANCH  15  28
HETATM   28  C   UNL     1     -12.004  12.483  65.370  1.00  0.00    -0.437 C  
HETATM   29  O   UNL     1     -13.140  12.598  64.907  1.00  0.00    -0.850 OA 
HETATM   30  C   UNL     1     -10.991  11.625  64.659  1.00  0.00    -0.363 C  
ENDBRANCH  15  28
ENDBRANCH   8  10
ENDBRANCH   6   8
ENDBRANCH   3   6
ENDBRANCH   2   3
TORSDOF 11
ENDMDL
MODEL       45
REMARK 921   NORMALIZED FREE ENERGY PREDICTED BY IDOCK:   -5.42 KCAL/MOL
REMARK 922        TOTAL FREE ENERGY PREDICTED BY IDOCK:  -10.04 KCAL/MOL
REMARK 923 INTER-LIGAND FREE ENERGY PREDICTED BY IDOCK:   -8.92 KCAL/MOL
REMARK 924 INTRA-LIGAND FREE ENERGY PREDICTED BY IDOCK:   -1.12 KCAL/MOL
REMARK 927      BINDING AFFINITY PREDICTED BY RF-SCORE:    0.00 PKD
ROOT
HETATM    1  C   UNL     1     -10.304  12.045  63.723  1.00  0.00    -0.457 C  
HETATM    2  C   UNL     1     -10.230  12.120  65.242  1.00  0.00    -0.274 C  
ENDROOT
BRANCH   2   3
HETATM    3  N   UNL     1     -10.413  13.479  65.762  1.00  0.00    -0.286 N  
BRANCH   3   4
HETATM    4  C   UNL     1     -11.422  14.329  65.121  1.00  0.00    -0.351 C  
HETATM    5  C   UNL     1     -12.852  14.010  65.518  1.00  0.00    -0.453 C  
ENDBRANCH   3   4
BRANCH   3   6
HETATM    6  C   UNL     1      -9.762  13.790  66.955  1.00  0.00    -0.265 C  
HETATM    7  O   UNL     1      -8.546  13.651  67.087  1.00  0.00    -0.203 OA 
BRANCH   6   8
HETATM    8  N   UNL     1     -10.580  14.301  67.946  1.00  0.00    -0.238 N  
HETATM    9  H   UNL     1     -10.728  15.308  67.995  1.00  0.00     0.000 HD 
BRANCH   8  10
HETATM   10  C   UNL     1     -11.215  13.471  68.888  1.00  0.00    -0.275 A  
HETATM   11  C   UNL     1     -11.103  12.083  68.845  1.00  0.00    -0.298 A  
HETATM   12  C   UNL     1     -11.695  11.297  69.837  1.00  0.00    -0.430 A  
HETATM   13  C   UNL     1     -12.388  11.883  70.904  1.00  0.00    -0.300 A  
HETATM   14  C   UNL     1     -11.964  14.063  69.905  1.00  0.00    -0.399 A  
HETATM   15  C   UNL     1     -12.529  13.282  70.929  1.00  0.00    -0.424 A  
BRANCH  13  16
HETATM   16  O   UNL     1     -12.897  11.167  71.954  1.00  0.00    -0.411 OA 
BRANCH  16  17
HETATM   17  C   UNL     1     -13.923  10.203  71.664  1.00  0.00     0.218 C  
BRANCH  17  18
HETATM   18  C   UNL     1     -13.580   8.880  72.362  1.00  0.00    -0.447 C  
HETATM   19  H   UNL     1     -14.144   7.005  72.206  1.00  0.00     0.000 HD 
HETATM   20  O   UNL     1     -14.356   7.825  71.775  1.00  0.00    -0.419 OA 
BRANCH  18  21
HETATM   21  C   UNL     1     -12.090   8.501  72.266  1.00  0.00    -0.387 C  
BRANCH  21  22
HETATM   22  N   UNL     1     -11.794   7.559  71.180  1.00  0.00    -0.293 NA 
HETATM   23  C   UNL     1     -10.809   6.508  71.512  1.00  0.00    -0.246 C  
HETATM   24  H   UNL     1     -11.498   8.066  70.345  1.00  0.00     0.000 HD 
HETATM   25  C   UNL     1     -10.576   5.690  70.227  1.00  0.00    -0.370 C  
HETATM   26  C   UNL     1     -11.343   5.550  72.592  1.00  0.00    -0.346 C  
HETATM   27  C   UNL     1      -9.464   7.105  71.955  1.00  0.00    -0.151 C  
ENDBRANCH  21  22
ENDBRANCH  18  21
ENDBRANCH  17  18
ENDBRANCH  16  17
ENDBRANCH  13  16
BRANCH  15  28
HETATM   28  C   UNL     1     -13.171  14.070  72.025  1.00  0.00    -0.412 C  
HETATM   29  O   UNL     1     -14.382  13.949  72.221  1.00  0.00    -0.576 OA 
HETATM   30  C   UNL     1     -12.356  14.961  72.924  1.00  0.00    -0.430 C  
ENDBRANCH  15  28
ENDBRANCH   8  10
ENDBRANCH   6   8
ENDBRANCH   3   6
ENDBRANCH   2   3
TORSDOF 11
ENDMDL
MODEL       46
REMARK 921   NORMALIZED FREE ENERGY PREDICTED BY IDOCK:   -5.42 KCAL/MOL
REMARK 922        TOTAL FREE ENERGY PREDICTED BY IDOCK:  -10.04 KCAL/MOL
REMARK 923 INTER-LIGAND FREE ENERGY PREDICTED BY IDOCK:   -8.16 KCAL/MOL
REMARK 924 INTRA-LIGAND FREE ENERGY PREDICTED BY IDOCK:   -1.88 KCAL/MOL
REMARK 927      BINDING AFFINITY PREDICTED BY RF-SCORE:    0.00 PKD
ROOT
HETATM    1  C   UNL     1     -11.014   6.175  68.048  1.00  0.00    -0.399 C  
HETATM    2  C   UNL     1     -10.200   5.271  68.965  1.00  0.00    -0.199 C  
ENDROOT
BRANCH   2   3
HETATM    3  N   UNL     1      -9.587   5.988  70.087  1.00  0.00    -0.160 N  
BRANCH   3   4
HETATM    4  C   UNL     1     -10.056   5.674  71.441  1.00  0.00    -0.200 C  
HETATM    5  C   UNL     1     -11.400   6.284  71.793  1.00  0.00    -0.346 C  
ENDBRANCH   3   4
BRANCH   3   6
HETATM    6  C   UNL     1      -8.463   6.763  69.801  1.00  0.00    -0.133 C  
HETATM    7  O   UNL     1      -7.490   6.302  69.204  1.00  0.00    -0.089 OA 
BRANCH   6   8
HETATM    8  N   UNL     1      -8.552   8.083  70.202  1.00  0.00    -0.128 N  
HETATM    9  H   UNL     1      -8.042   8.383  71.033  1.00  0.00     0.000 HD 
BRANCH   8  10
HETATM   10  C   UNL     1      -9.325   9.025  69.499  1.00  0.00    -0.160 A  
HETATM   11  C   UNL     1      -9.218   9.187  68.120  1.00  0.00    -0.137 A  
HETATM   12  C   UNL     1     -10.050  10.087  67.449  1.00  0.00    -0.256 A  
HETATM   13  C   UNL     1     -11.020  10.826  68.140  1.00  0.00    -0.257 A  
HETATM   14  C   UNL     1     -10.235   9.808  70.208  1.00  0.00    -0.346 A  
HETATM   15  C   UNL     1     -11.104  10.687  69.537  1.00  0.00    -0.328 A  
BRANCH  13  16
HETATM   16  O   UNL     1     -11.926  11.643  67.519  1.00  0.00    -0.622 OA 
BRANCH  16  17
HETATM   17  C   UNL     1     -11.654  12.022  66.160  1.00  0.00    -0.304 C  
BRANCH  17  18
HETATM   18  C   UNL     1     -11.888  13.531  66.005  1.00  0.00    -0.379 C  
HETATM   19  H   UNL     1     -13.202  14.679  65.102  1.00  0.00     0.000 HD 
HETATM   20  O   UNL     1     -13.056  13.744  65.198  1.00  0.00    -0.762 OA 
BRANCH  18  21
HETATM   21  C   UNL     1     -12.081  14.266  67.345  1.00  0.00    -0.336 C  
BRANCH  21  22
HETATM   22  N   UNL     1     -10.852  14.363  68.142  1.00  0.00    -0.239 NA 
HETATM   23  C   UNL     1     -10.652  15.655  68.832  1.00  0.00    -0.228 C  
HETATM   24  H   UNL     1     -10.040  14.143  67.565  1.00  0.00     0.000 HD 
HETATM   25  C   UNL     1      -9.280  15.582  69.530  1.00  0.00    -0.265 C  
HETATM   26  C   UNL     1     -11.721  15.895  69.912  1.00  0.00    -0.327 C  
HETATM   27  C   UNL     1     -10.628  16.832  67.843  1.00  0.00    -0.350 C  
ENDBRANCH  21  22
ENDBRANCH  18  21
ENDBRANCH  17  18
ENDBRANCH  16  17
ENDBRANCH  13  16
BRANCH  15  28
HETATM   28  C   UNL     1     -12.122  11.342  70.414  1.00  0.00    -0.384 C  
HETATM   29  O   UNL     1     -12.213  12.571  70.414  1.00  0.00    -0.348 OA 
HETATM   30  C   UNL     1     -13.070  10.524  71.250  1.00  0.00    -0.478 C  
ENDBRANCH  15  28
ENDBRANCH   8  10
ENDBRANCH   6   8
ENDBRANCH   3   6
ENDBRANCH   2   3
TORSDOF 11
ENDMDL
MODEL       47
REMARK 921   NORMALIZED FREE ENERGY PREDICTED BY IDOCK:   -5.41 KCAL/MOL
REMARK 922        TOTAL FREE ENERGY PREDICTED BY IDOCK:  -10.03 KCAL/MOL
REMARK 923 INTER-LIGAND FREE ENERGY PREDICTED BY IDOCK:   -8.65 KCAL/MOL
REMARK 924 INTRA-LIGAND FREE ENERGY PREDICTED BY IDOCK:   -1.38 KCAL/MOL
REMARK 927      BINDING AFFINITY PREDICTED BY RF-SCORE:    0.00 PKD
ROOT
HETATM    1  C   UNL     1     -13.274   7.466  71.582  1.00  0.00    -0.416 C  
HETATM    2  C   UNL     1     -12.284   6.402  72.035  1.00  0.00    -0.269 C  
ENDROOT
BRANCH   2   3
HETATM    3  N   UNL     1     -10.917   6.649  71.565  1.00  0.00    -0.239 N  
BRANCH   3   4
HETATM    4  C   UNL     1      -9.838   6.639  72.559  1.00  0.00    -0.165 C  
HETATM    5  C   UNL     1      -9.747   7.903  73.394  1.00  0.00    -0.318 C  
ENDBRANCH   3   4
BRANCH   3   6
HETATM    6  C   UNL     1     -10.719   6.669  70.185  1.00  0.00    -0.239 C  
HETATM    7  O   UNL     1     -11.320   5.906  69.430  1.00  0.00    -0.346 OA 
BRANCH   6   8
HETATM    8  N   UNL     1      -9.834   7.634  69.741  1.00  0.00    -0.179 N  
HETATM    9  H   UNL     1      -8.838   7.512  69.922  1.00  0.00     0.000 HD 
BRANCH   8  10
HETATM   10  C   UNL     1     -10.266   8.779  69.048  1.00  0.00    -0.207 A  
HETATM   11  C   UNL     1     -10.155   8.890  67.663  1.00  0.00    -0.274 A  
HETATM   12  C   UNL     1     -10.656  10.016  67.004  1.00  0.00    -0.279 A  
HETATM   13  C   UNL     1     -11.297  11.042  67.713  1.00  0.00    -0.292 A  
HETATM   14  C   UNL     1     -10.836   9.826  69.772  1.00  0.00    -0.285 A  
HETATM   15  C   UNL     1     -11.377  10.944  69.113  1.00  0.00    -0.350 A  
BRANCH  13  16
HETATM   16  O   UNL     1     -11.894  12.114  67.106  1.00  0.00    -0.543 OA 
BRANCH  16  17
HETATM   17  C   UNL     1     -11.633  12.316  65.708  1.00  0.00    -0.388 C  
BRANCH  17  18
HETATM   18  C   UNL     1     -11.946  13.773  65.344  1.00  0.00    -0.379 C  
HETATM   19  H   UNL     1     -13.499  14.968  65.477  1.00  0.00     0.000 HD 
HETATM   20  O   UNL     1     -13.305  14.065  65.702  1.00  0.00    -0.636 OA 
BRANCH  18  21
HETATM   21  C   UNL     1     -11.027  14.794  66.044  1.00  0.00    -0.328 C  
BRANCH  21  22
HETATM   22  N   UNL     1     -11.467  15.145  67.399  1.00  0.00    -0.315 NA 
HETATM   23  C   UNL     1     -10.544  16.021  68.151  1.00  0.00    -0.286 C  
HETATM   24  H   UNL     1     -11.664  14.299  67.935  1.00  0.00     0.000 HD 
HETATM   25  C   UNL     1     -11.140  16.194  69.562  1.00  0.00    -0.344 C  
HETATM   26  C   UNL     1     -10.434  17.415  67.510  1.00  0.00    -0.354 C  
HETATM   27  C   UNL     1      -9.148  15.392  68.291  1.00  0.00    -0.187 C  
ENDBRANCH  21  22
ENDBRANCH  18  21
ENDBRANCH  17  18
ENDBRANCH  16  17
ENDBRANCH  13  16
BRANCH  15  28
HETATM   28  C   UNL     1     -12.087  11.907  70.010  1.00  0.00    -0.291 C  
HETATM   29  O   UNL     1     -12.045  13.111  69.750  1.00  0.00    -0.307 OA 
HETATM   30  C   UNL     1     -12.893  11.426  71.187  1.00  0.00    -0.440 C  
ENDBRANCH  15  28
ENDBRANCH   8  10
ENDBRANCH   6   8
ENDBRANCH   3   6
ENDBRANCH   2   3
TORSDOF 11
ENDMDL
MODEL       48
REMARK 921   NORMALIZED FREE ENERGY PREDICTED BY IDOCK:   -5.41 KCAL/MOL
REMARK 922        TOTAL FREE ENERGY PREDICTED BY IDOCK:  -10.03 KCAL/MOL
REMARK 923 INTER-LIGAND FREE ENERGY PREDICTED BY IDOCK:   -8.84 KCAL/MOL
REMARK 924 INTRA-LIGAND FREE ENERGY PREDICTED BY IDOCK:   -1.19 KCAL/MOL
REMARK 927      BINDING AFFINITY PREDICTED BY RF-SCORE:    0.00 PKD
ROOT
HETATM    1  C   UNL     1     -11.182  15.356  65.161  1.00  0.00    -0.354 C  
HETATM    2  C   UNL     1      -9.866  15.820  65.770  1.00  0.00    -0.348 C  
ENDROOT
BRANCH   2   3
HETATM    3  N   UNL     1     -10.029  16.920  66.726  1.00  0.00    -0.277 N  
BRANCH   3   4
HETATM    4  C   UNL     1     -10.281  18.262  66.191  1.00  0.00    -0.381 C  
HETATM    5  C   UNL     1     -10.679  19.287  67.237  1.00  0.00    -0.594 C  
ENDBRANCH   3   4
BRANCH   3   6
HETATM    6  C   UNL     1     -10.137  16.574  68.073  1.00  0.00    -0.255 C  
HETATM    7  O   UNL     1      -9.185  16.667  68.847  1.00  0.00    -0.247 OA 
BRANCH   6   8
HETATM    8  N   UNL     1     -11.398  16.164  68.466  1.00  0.00    -0.373 N  
HETATM    9  H   UNL     1     -12.192  16.782  68.303  1.00  0.00     0.000 HD 
BRANCH   8  10
HETATM   10  C   UNL     1     -11.618  14.920  69.085  1.00  0.00    -0.307 A  
HETATM   11  C   UNL     1     -12.257  14.810  70.317  1.00  0.00    -0.394 A  
HETATM   12  C   UNL     1     -12.515  13.552  70.868  1.00  0.00    -0.448 A  
HETATM   13  C   UNL     1     -12.161  12.379  70.187  1.00  0.00    -0.290 A  
HETATM   14  C   UNL     1     -11.195  13.763  68.431  1.00  0.00    -0.300 A  
HETATM   15  C   UNL     1     -11.485  12.492  68.959  1.00  0.00    -0.355 A  
BRANCH  13  16
HETATM   16  O   UNL     1     -12.482  11.125  70.633  1.00  0.00    -0.335 OA 
BRANCH  16  17
HETATM   17  C   UNL     1     -13.419  11.027  71.717  1.00  0.00    -0.160 C  
BRANCH  17  18
HETATM   18  C   UNL     1     -13.225   9.681  72.428  1.00  0.00    -0.327 C  
HETATM   19  H   UNL     1     -14.200   7.979  72.537  1.00  0.00     0.000 HD 
HETATM   20  O   UNL     1     -14.320   8.813  72.097  1.00  0.00    -0.440 OA 
BRANCH  18  21
HETATM   21  C   UNL     1     -11.910   8.970  72.053  1.00  0.00    -0.356 C  
BRANCH  21  22
HETATM   22  N   UNL     1     -12.069   7.958  71.003  1.00  0.00    -0.428 NA 
HETATM   23  C   UNL     1     -11.131   6.818  71.083  1.00  0.00    -0.270 C  
HETATM   24  H   UNL     1     -12.014   8.395  70.082  1.00  0.00     0.000 HD 
HETATM   25  C   UNL     1     -11.403   5.928  69.855  1.00  0.00    -0.201 C  
HETATM   26  C   UNL     1     -11.373   5.970  72.344  1.00  0.00    -0.349 C  
HETATM   27  C   UNL     1      -9.666   7.280  71.030  1.00  0.00    -0.169 C  
ENDBRANCH  21  22
ENDBRANCH  18  21
ENDBRANCH  17  18
ENDBRANCH  16  17
ENDBRANCH  13  16
BRANCH  15  28
HETATM   28  C   UNL     1     -11.102  11.351  68.072  1.00  0.00    -0.257 C  
HETATM   29  O   UNL     1     -11.511  11.331  66.910  1.00  0.00    -0.431 OA 
HETATM   30  C   UNL     1     -10.185  10.261  68.559  1.00  0.00    -0.192 C  
ENDBRANCH  15  28
ENDBRANCH   8  10
ENDBRANCH   6   8
ENDBRANCH   3   6
ENDBRANCH   2   3
TORSDOF 11
ENDMDL
MODEL       49
REMARK 921   NORMALIZED FREE ENERGY PREDICTED BY IDOCK:   -5.41 KCAL/MOL
REMARK 922        TOTAL FREE ENERGY PREDICTED BY IDOCK:  -10.03 KCAL/MOL
REMARK 923 INTER-LIGAND FREE ENERGY PREDICTED BY IDOCK:   -8.90 KCAL/MOL
REMARK 924 INTRA-LIGAND FREE ENERGY PREDICTED BY IDOCK:   -1.13 KCAL/MOL
REMARK 927      BINDING AFFINITY PREDICTED BY RF-SCORE:    0.00 PKD
ROOT
HETATM    1  C   UNL     1      -7.301  16.954  69.045  1.00  0.00    -0.231 C  
HETATM    2  C   UNL     1      -8.398  17.812  68.431  1.00  0.00    -0.295 C  
ENDROOT
BRANCH   2   3
HETATM    3  N   UNL     1      -8.634  17.519  67.013  1.00  0.00    -0.228 N  
BRANCH   3   4
HETATM    4  C   UNL     1      -7.476  17.170  66.183  1.00  0.00    -0.260 C  
HETATM    5  C   UNL     1      -6.663  18.362  65.713  1.00  0.00    -0.315 C  
ENDBRANCH   3   4
BRANCH   3   6
HETATM    6  C   UNL     1      -9.963  17.393  66.608  1.00  0.00    -0.308 C  
HETATM    7  O   UNL     1     -10.363  17.853  65.540  1.00  0.00    -0.616 OA 
BRANCH   6   8
HETATM    8  N   UNL     1     -10.768  16.680  67.478  1.00  0.00    -0.310 N  
HETATM    9  H   UNL     1     -11.290  17.185  68.193  1.00  0.00     0.000 HD 
BRANCH   8  10
HETATM   10  C   UNL     1     -10.888  15.281  67.405  1.00  0.00    -0.304 A  
HETATM   11  C   UNL     1     -10.577  14.455  68.483  1.00  0.00    -0.256 A  
HETATM   12  C   UNL     1     -10.772  13.075  68.393  1.00  0.00    -0.273 A  
HETATM   13  C   UNL     1     -11.304  12.495  67.234  1.00  0.00    -0.315 A  
HETATM   14  C   UNL     1     -11.349  14.708  66.220  1.00  0.00    -0.347 A  
HETATM   15  C   UNL     1     -11.586  13.325  66.134  1.00  0.00    -0.385 A  
BRANCH  13  16
HETATM   16  O   UNL     1     -11.610  11.164  67.131  1.00  0.00    -0.495 OA 
BRANCH  16  17
HETATM   17  C   UNL     1     -10.516  10.239  67.020  1.00  0.00    -0.244 C  
BRANCH  17  18
HETATM   18  C   UNL     1     -10.892   8.930  67.727  1.00  0.00    -0.036 C  
HETATM   19  H   UNL     1     -10.758   7.011  67.329  1.00  0.00     0.000 HD 
HETATM   20  O   UNL     1     -10.525   7.822  66.891  1.00  0.00    -0.319 OA 
BRANCH  18  21
HETATM   21  C   UNL     1     -10.212   8.753  69.098  1.00  0.00    -0.207 C  
BRANCH  21  22
HETATM   22  N   UNL     1     -11.078   9.099  70.231  1.00  0.00    -0.243 NA 
HETATM   23  C   UNL     1     -11.185   8.061  71.278  1.00  0.00    -0.256 C  
HETATM   24  H   UNL     1     -12.006   9.360  69.897  1.00  0.00     0.000 HD 
HETATM   25  C   UNL     1     -12.197   8.579  72.319  1.00  0.00    -0.454 C  
HETATM   26  C   UNL     1      -9.843   7.836  71.995  1.00  0.00    -0.226 C  
HETATM   27  C   UNL     1     -11.712   6.733  70.712  1.00  0.00    -0.439 C  
ENDBRANCH  21  22
ENDBRANCH  18  21
ENDBRANCH  17  18
ENDBRANCH  16  17
ENDBRANCH  13  16
BRANCH  15  28
HETATM   28  C   UNL     1     -12.220  12.883  64.854  1.00  0.00    -0.453 C  
HETATM   29  O   UNL     1     -13.447  12.792  64.794  1.00  0.00    -0.536 OA 
HETATM   30  C   UNL     1     -11.390  12.604  63.630  1.00  0.00    -0.544 C  
ENDBRANCH  15  28
ENDBRANCH   8  10
ENDBRANCH   6   8
ENDBRANCH   3   6
ENDBRANCH   2   3
TORSDOF 11
ENDMDL
MODEL       50
REMARK 921   NORMALIZED FREE ENERGY PREDICTED BY IDOCK:   -5.40 KCAL/MOL
REMARK 922        TOTAL FREE ENERGY PREDICTED BY IDOCK:  -10.00 KCAL/MOL
REMARK 923 INTER-LIGAND FREE ENERGY PREDICTED BY IDOCK:   -8.43 KCAL/MOL
REMARK 924 INTRA-LIGAND FREE ENERGY PREDICTED BY IDOCK:   -1.57 KCAL/MOL
REMARK 927      BINDING AFFINITY PREDICTED BY RF-SCORE:    0.00 PKD
ROOT
HETATM    1  C   UNL     1      -8.317  10.002  69.574  1.00  0.00    -0.180 C  
HETATM    2  C   UNL     1      -8.761   8.896  70.522  1.00  0.00    -0.186 C  
ENDROOT
BRANCH   2   3
HETATM    3  N   UNL     1     -10.140   8.457  70.290  1.00  0.00    -0.186 N  
BRANCH   3   4
HETATM    4  C   UNL     1     -10.352   7.275  69.447  1.00  0.00    -0.208 C  
HETATM    5  C   UNL     1     -10.508   7.583  67.969  1.00  0.00    -0.253 C  
ENDBRANCH   3   4
BRANCH   3   6
HETATM    6  C   UNL     1     -11.134   9.069  71.054  1.00  0.00    -0.289 C  
HETATM    7  O   UNL     1     -11.166   8.969  72.279  1.00  0.00    -0.306 OA 
BRANCH   6   8
HETATM    8  N   UNL     1     -12.041   9.820  70.329  1.00  0.00    -0.469 N  
HETATM    9  H   UNL     1     -12.821   9.347  69.872  1.00  0.00     0.000 HD 
BRANCH   8  10
HETATM   10  C   UNL     1     -11.921  11.216  70.203  1.00  0.00    -0.365 A  
HETATM   11  C   UNL     1     -11.312  11.809  69.100  1.00  0.00    -0.340 A  
HETATM   12  C   UNL     1     -11.271  13.200  68.980  1.00  0.00    -0.309 A  
HETATM   13  C   UNL     1     -11.857  14.026  69.949  1.00  0.00    -0.329 A  
HETATM   14  C   UNL     1     -12.444  12.027  71.210  1.00  0.00    -0.303 A  
HETATM   15  C   UNL     1     -12.441  13.427  71.080  1.00  0.00    -0.437 A  
BRANCH  13  16
HETATM   16  O   UNL     1     -11.934  15.388  69.829  1.00  0.00    -0.323 OA 
BRANCH  16  17
HETATM   17  C   UNL     1     -10.706  16.106  69.634  1.00  0.00    -0.325 C  
BRANCH  17  18
HETATM   18  C   UNL     1     -10.890  17.113  68.491  1.00  0.00    -0.281 C  
HETATM   19  H   UNL     1     -10.137  18.860  68.001  1.00  0.00     0.000 HD 
HETATM   20  O   UNL     1     -10.023  18.236  68.709  1.00  0.00    -0.363 OA 
BRANCH  18  21
HETATM   21  C   UNL     1     -10.586  16.527  67.098  1.00  0.00    -0.270 C  
BRANCH  21  22
HETATM   22  N   UNL     1     -11.556  15.514  66.665  1.00  0.00     0.047 NA 
HETATM   23  C   UNL     1     -11.312  14.947  65.321  1.00  0.00    -0.358 C  
HETATM   24  H   UNL     1     -12.504  15.887  66.722  1.00  0.00     0.000 HD 
HETATM   25  C   UNL     1     -12.476  13.982  65.024  1.00  0.00    -0.446 C  
HETATM   26  C   UNL     1     -10.004  14.139  65.274  1.00  0.00    -0.295 C  
HETATM   27  C   UNL     1     -11.299  16.036  64.236  1.00  0.00    -0.146 C  
ENDBRANCH  21  22
ENDBRANCH  18  21
ENDBRANCH  17  18
ENDBRANCH  16  17
ENDBRANCH  13  16
BRANCH  15  28
HETATM   28  C   UNL     1     -13.171  14.152  72.165  1.00  0.00    -0.420 C  
HETATM   29  O   UNL     1     -14.398  14.065  72.224  1.00  0.00    -0.549 OA 
HETATM   30  C   UNL     1     -12.427  14.935  73.214  1.00  0.00    -0.540 C  
ENDBRANCH  15  28
ENDBRANCH   8  10
ENDBRANCH   6   8
ENDBRANCH   3   6
ENDBRANCH   2   3
TORSDOF 11
ENDMDL
MODEL       51
REMARK 921   NORMALIZED FREE ENERGY PREDICTED BY IDOCK:   -5.39 KCAL/MOL
REMARK 922        TOTAL FREE ENERGY PREDICTED BY IDOCK:   -9.99 KCAL/MOL
REMARK 923 INTER-LIGAND FREE ENERGY PREDICTED BY IDOCK:   -8.67 KCAL/MOL
REMARK 924 INTRA-LIGAND FREE ENERGY PREDICTED BY IDOCK:   -1.32 KCAL/MOL
REMARK 927      BINDING AFFINITY PREDICTED BY RF-SCORE:    0.00 PKD
ROOT
HETATM    1  C   UNL     1      -8.899   6.256  65.851  1.00  0.00    -0.148 C  
HETATM    2  C   UNL     1      -9.402   6.956  67.106  1.00  0.00    -0.141 C  
ENDROOT
BRANCH   2   3
HETATM    3  N   UNL     1      -9.448   8.416  66.972  1.00  0.00    -0.163 N  
BRANCH   3   4
HETATM    4  C   UNL     1      -9.287   8.988  65.631  1.00  0.00    -0.222 C  
HETATM    5  C   UNL     1      -8.500  10.285  65.596  1.00  0.00    -0.165 C  
ENDBRANCH   3   4
BRANCH   3   6
HETATM    6  C   UNL     1      -9.846   9.140  68.096  1.00  0.00    -0.164 C  
HETATM    7  O   UNL     1      -9.074   9.375  69.025  1.00  0.00    -0.136 OA 
BRANCH   6   8
HETATM    8  N   UNL     1     -11.150   9.597  68.058  1.00  0.00    -0.509 N  
HETATM    9  H   UNL     1     -11.905   8.927  67.914  1.00  0.00     0.000 HD 
BRANCH   8  10
HETATM   10  C   UNL     1     -11.467  10.959  68.212  1.00  0.00    -0.305 A  
HETATM   11  C   UNL     1     -11.553  11.561  69.465  1.00  0.00    -0.400 A  
HETATM   12  C   UNL     1     -11.805  12.931  69.574  1.00  0.00    -0.383 A  
HETATM   13  C   UNL     1     -11.952  13.731  68.432  1.00  0.00    -0.360 A  
HETATM   14  C   UNL     1     -11.684  11.730  67.070  1.00  0.00    -0.247 A  
HETATM   15  C   UNL     1     -11.898  13.116  67.168  1.00  0.00    -0.424 A  
BRANCH  13  16
HETATM   16  O   UNL     1     -12.098  15.091  68.481  1.00  0.00    -0.257 OA 
BRANCH  16  17
HETATM   17  C   UNL     1     -11.843  15.740  69.737  1.00  0.00    -0.341 C  
BRANCH  17  18
HETATM   18  C   UNL     1     -10.590  16.616  69.604  1.00  0.00    -0.274 C  
HETATM   19  H   UNL     1      -8.650  16.318  69.524  1.00  0.00     0.000 HD 
HETATM   20  O   UNL     1      -9.426  15.775  69.607  1.00  0.00    -0.276 OA 
BRANCH  18  21
HETATM   21  C   UNL     1     -10.569  17.471  68.322  1.00  0.00    -0.354 C  
BRANCH  21  22
HETATM   22  N   UNL     1      -9.631  18.598  68.384  1.00  0.00    -0.341 NA 
HETATM   23  C   UNL     1      -9.056  19.008  67.085  1.00  0.00    -0.283 C  
HETATM   24  H   UNL     1      -8.886  18.399  69.052  1.00  0.00     0.000 HD 
HETATM   25  C   UNL     1      -8.043  20.132  67.379  1.00  0.00    -0.372 C  
HETATM   26  C   UNL     1     -10.130  19.574  66.141  1.00  0.00    -0.557 C  
HETATM   27  C   UNL     1      -8.308  17.851  66.402  1.00  0.00    -0.273 C  
ENDBRANCH  21  22
ENDBRANCH  18  21
ENDBRANCH  17  18
ENDBRANCH  16  17
ENDBRANCH  13  16
BRANCH  15  28
HETATM   28  C   UNL     1     -11.962  13.828  65.855  1.00  0.00    -0.406 C  
HETATM   29  O   UNL     1     -13.058  13.996  65.317  1.00  0.00    -0.782 OA 
HETATM   30  C   UNL     1     -10.722  14.387  65.212  1.00  0.00    -0.387 C  
ENDBRANCH  15  28
ENDBRANCH   8  10
ENDBRANCH   6   8
ENDBRANCH   3   6
ENDBRANCH   2   3
TORSDOF 11
ENDMDL
MODEL       52
REMARK 921   NORMALIZED FREE ENERGY PREDICTED BY IDOCK:   -5.38 KCAL/MOL
REMARK 922        TOTAL FREE ENERGY PREDICTED BY IDOCK:   -9.97 KCAL/MOL
REMARK 923 INTER-LIGAND FREE ENERGY PREDICTED BY IDOCK:   -8.25 KCAL/MOL
REMARK 924 INTRA-LIGAND FREE ENERGY PREDICTED BY IDOCK:   -1.72 KCAL/MOL
REMARK 927      BINDING AFFINITY PREDICTED BY RF-SCORE:    0.00 PKD
ROOT
HETATM    1  C   UNL     1      -6.264  19.150  65.501  1.00  0.00    -0.274 C  
HETATM    2  C   UNL     1      -7.175  20.137  66.217  1.00  0.00    -0.281 C  
ENDROOT
BRANCH   2   3
HETATM    3  N   UNL     1      -8.074  19.496  67.183  1.00  0.00    -0.264 N  
BRANCH   3   4
HETATM    4  C   UNL     1      -7.485  18.950  68.411  1.00  0.00    -0.300 C  
HETATM    5  C   UNL     1      -6.705  19.960  69.232  1.00  0.00    -0.361 C  
ENDBRANCH   3   4
BRANCH   3   6
HETATM    6  C   UNL     1      -9.443  19.637  66.960  1.00  0.00    -0.349 C  
HETATM    7  O   UNL     1     -10.088  20.568  67.440  1.00  0.00    -0.410 OA 
BRANCH   6   8
HETATM    8  N   UNL     1      -9.996  18.677  66.131  1.00  0.00    -0.357 N  
HETATM    9  H   UNL     1     -10.085  18.877  65.135  1.00  0.00     0.000 HD 
BRANCH   8  10
HETATM   10  C   UNL     1     -10.440  17.436  66.621  1.00  0.00    -0.253 A  
HETATM   11  C   UNL     1     -10.697  17.225  67.973  1.00  0.00    -0.367 A  
HETATM   12  C   UNL     1     -11.200  15.996  68.412  1.00  0.00    -0.364 A  
HETATM   13  C   UNL     1     -11.476  14.964  67.505  1.00  0.00    -0.348 A  
HETATM   14  C   UNL     1     -10.641  16.392  65.718  1.00  0.00    -0.327 A  
HETATM   15  C   UNL     1     -11.183  15.167  66.144  1.00  0.00    -0.271 A  
BRANCH  13  16
HETATM   16  O   UNL     1     -12.063  13.782  67.868  1.00  0.00    -0.365 OA 
BRANCH  16  17
HETATM   17  C   UNL     1     -11.556  13.123  69.040  1.00  0.00    -0.312 C  
BRANCH  17  18
HETATM   18  C   UNL     1     -11.165  11.684  68.677  1.00  0.00    -0.250 C  
HETATM   19  H   UNL     1     -11.723  10.354  67.344  1.00  0.00     0.000 HD 
HETATM   20  O   UNL     1     -11.965  11.245  67.569  1.00  0.00    -0.612 OA 
BRANCH  18  21
HETATM   21  C   UNL     1      -9.680  11.527  68.297  1.00  0.00    -0.198 C  
BRANCH  21  22
HETATM   22  N   UNL     1      -9.048  12.781  67.869  1.00  0.00    -0.196 NA 
HETATM   23  C   UNL     1      -7.570  12.776  67.884  1.00  0.00    -0.138 C  
HETATM   24  H   UNL     1      -9.403  13.561  68.424  1.00  0.00     0.000 HD 
HETATM   25  C   UNL     1      -7.113  14.195  67.492  1.00  0.00    -0.184 C  
HETATM   26  C   UNL     1      -6.995  11.792  66.850  1.00  0.00    -0.101 C  
HETATM   27  C   UNL     1      -7.014  12.459  69.281  1.00  0.00     0.021 C  
ENDBRANCH  21  22
ENDBRANCH  18  21
ENDBRANCH  17  18
ENDBRANCH  16  17
ENDBRANCH  13  16
BRANCH  15  28
HETATM   28  C   UNL     1     -11.482  14.204  65.040  1.00  0.00    -0.352 C  
HETATM   29  O   UNL     1     -12.504  14.360  64.369  1.00  0.00    -0.635 OA 
HETATM   30  C   UNL     1     -10.531  13.087  64.703  1.00  0.00    -0.400 C  
ENDBRANCH  15  28
ENDBRANCH   8  10
ENDBRANCH   6   8
ENDBRANCH   3   6
ENDBRANCH   2   3
TORSDOF 11
ENDMDL
MODEL       53
REMARK 921   NORMALIZED FREE ENERGY PREDICTED BY IDOCK:   -5.37 KCAL/MOL
REMARK 922        TOTAL FREE ENERGY PREDICTED BY IDOCK:   -9.95 KCAL/MOL
REMARK 923 INTER-LIGAND FREE ENERGY PREDICTED BY IDOCK:   -8.32 KCAL/MOL
REMARK 924 INTRA-LIGAND FREE ENERGY PREDICTED BY IDOCK:   -1.63 KCAL/MOL
REMARK 927      BINDING AFFINITY PREDICTED BY RF-SCORE:    0.00 PKD
ROOT
HETATM    1  C   UNL     1      -9.305   4.962  70.741  1.00  0.00    -0.211 C  
HETATM    2  C   UNL     1      -9.158   6.243  71.549  1.00  0.00    -0.145 C  
ENDROOT
BRANCH   2   3
HETATM    3  N   UNL     1     -10.433   6.931  71.778  1.00  0.00    -0.203 N  
BRANCH   3   4
HETATM    4  C   UNL     1     -10.741   7.372  73.142  1.00  0.00    -0.387 C  
HETATM    5  C   UNL     1     -10.269   6.421  74.227  1.00  0.00    -0.362 C  
ENDBRANCH   3   4
BRANCH   3   6
HETATM    6  C   UNL     1     -11.164   7.296  70.647  1.00  0.00    -0.274 C  
HETATM    7  O   UNL     1     -12.280   6.832  70.417  1.00  0.00    -0.324 OA 
BRANCH   6   8
HETATM    8  N   UNL     1     -10.553   8.240  69.842  1.00  0.00    -0.231 N  
HETATM    9  H   UNL     1      -9.709   7.982  69.331  1.00  0.00     0.000 HD 
BRANCH   8  10
HETATM   10  C   UNL     1     -11.060   9.545  69.707  1.00  0.00    -0.191 A  
HETATM   11  C   UNL     1     -11.756  10.177  70.735  1.00  0.00    -0.446 A  
HETATM   12  C   UNL     1     -12.187  11.497  70.587  1.00  0.00    -0.473 A  
HETATM   13  C   UNL     1     -11.911  12.220  69.418  1.00  0.00    -0.310 A  
HETATM   14  C   UNL     1     -10.843  10.228  68.511  1.00  0.00    -0.281 A  
HETATM   15  C   UNL     1     -11.238  11.570  68.368  1.00  0.00    -0.314 A  
BRANCH  13  16
HETATM   16  O   UNL     1     -12.220  13.545  69.262  1.00  0.00    -0.305 OA 
BRANCH  16  17
HETATM   17  C   UNL     1     -12.582  14.283  70.440  1.00  0.00    -0.343 C  
BRANCH  17  18
HETATM   18  C   UNL     1     -11.989  15.695  70.349  1.00  0.00    -0.376 C  
HETATM   19  H   UNL     1     -11.563  17.142  71.608  1.00  0.00     0.000 HD 
HETATM   20  O   UNL     1     -11.931  16.267  71.665  1.00  0.00    -0.468 OA 
BRANCH  18  21
HETATM   21  C   UNL     1     -10.575  15.732  69.739  1.00  0.00    -0.312 C  
BRANCH  21  22
HETATM   22  N   UNL     1     -10.563  15.593  68.278  1.00  0.00    -0.254 NA 
HETATM   23  C   UNL     1      -9.866  16.676  67.551  1.00  0.00    -0.253 C  
HETATM   24  H   UNL     1     -11.515  15.490  67.926  1.00  0.00     0.000 HD 
HETATM   25  C   UNL     1     -10.044  16.392  66.047  1.00  0.00    -0.373 C  
HETATM   26  C   UNL     1      -8.358  16.687  67.855  1.00  0.00    -0.187 C  
HETATM   27  C   UNL     1     -10.477  18.053  67.857  1.00  0.00    -0.408 C  
ENDBRANCH  21  22
ENDBRANCH  18  21
ENDBRANCH  17  18
ENDBRANCH  16  17
ENDBRANCH  13  16
BRANCH  15  28
HETATM   28  C   UNL     1     -10.802  12.211  67.089  1.00  0.00    -0.244 C  
HETATM   29  O   UNL     1      -9.715  12.788  67.048  1.00  0.00    -0.214 OA 
HETATM   30  C   UNL     1     -11.643  12.113  65.844  1.00  0.00    -0.425 C  
ENDBRANCH  15  28
ENDBRANCH   8  10
ENDBRANCH   6   8
ENDBRANCH   3   6
ENDBRANCH   2   3
TORSDOF 11
ENDMDL
MODEL       54
REMARK 921   NORMALIZED FREE ENERGY PREDICTED BY IDOCK:   -5.36 KCAL/MOL
REMARK 922        TOTAL FREE ENERGY PREDICTED BY IDOCK:   -9.94 KCAL/MOL
REMARK 923 INTER-LIGAND FREE ENERGY PREDICTED BY IDOCK:   -8.81 KCAL/MOL
REMARK 924 INTRA-LIGAND FREE ENERGY PREDICTED BY IDOCK:   -1.14 KCAL/MOL
REMARK 927      BINDING AFFINITY PREDICTED BY RF-SCORE:    0.00 PKD
ROOT
HETATM    1  C   UNL     1      -8.243  10.747  68.982  1.00  0.00    -0.139 C  
HETATM    2  C   UNL     1      -8.860   9.662  69.854  1.00  0.00    -0.221 C  
ENDROOT
BRANCH   2   3
HETATM    3  N   UNL     1     -10.251   9.360  69.502  1.00  0.00    -0.199 N  
BRANCH   3   4
HETATM    4  C   UNL     1     -10.495   8.306  68.512  1.00  0.00    -0.162 C  
HETATM    5  C   UNL     1     -10.439   8.777  67.071  1.00  0.00    -0.338 C  
ENDBRANCH   3   4
BRANCH   3   6
HETATM    6  C   UNL     1     -11.242   9.954  70.284  1.00  0.00    -0.301 C  
HETATM    7  O   UNL     1     -11.254   9.846  71.509  1.00  0.00    -0.322 OA 
BRANCH   6   8
HETATM    8  N   UNL     1     -12.170  10.696  69.577  1.00  0.00    -0.530 N  
HETATM    9  H   UNL     1     -13.019  10.240  69.246  1.00  0.00     0.000 HD 
BRANCH   8  10
HETATM   10  C   UNL     1     -11.978  12.062  69.301  1.00  0.00    -0.270 A  
HETATM   11  C   UNL     1     -11.502  12.508  68.070  1.00  0.00    -0.368 A  
HETATM   12  C   UNL     1     -11.386  13.876  67.813  1.00  0.00    -0.335 A  
HETATM   13  C   UNL     1     -11.766  14.826  68.771  1.00  0.00    -0.323 A  
HETATM   14  C   UNL     1     -12.289  12.996  70.289  1.00  0.00    -0.311 A  
HETATM   15  C   UNL     1     -12.214  14.375  70.025  1.00  0.00    -0.408 A  
BRANCH  13  16
HETATM   16  O   UNL     1     -11.770  16.174  68.532  1.00  0.00    -0.348 OA 
BRANCH  16  17
HETATM   17  C   UNL     1     -10.578  16.908  68.859  1.00  0.00    -0.353 C  
BRANCH  17  18
HETATM   18  C   UNL     1     -10.213  17.822  67.682  1.00  0.00    -0.358 C  
HETATM   19  H   UNL     1     -10.548  19.690  67.177  1.00  0.00     0.000 HD 
HETATM   20  O   UNL     1     -10.774  19.124  67.906  1.00  0.00    -0.388 OA 
BRANCH  18  21
HETATM   21  C   UNL     1      -8.695  17.975  67.468  1.00  0.00    -0.248 C  
BRANCH  21  22
HETATM   22  N   UNL     1      -8.170  19.273  67.906  1.00  0.00    -0.296 NA 
HETATM   23  C   UNL     1      -6.918  19.699  67.245  1.00  0.00    -0.207 C  
HETATM   24  H   UNL     1      -8.052  19.281  68.920  1.00  0.00     0.000 HD 
HETATM   25  C   UNL     1      -6.493  21.026  67.903  1.00  0.00    -0.365 C  
HETATM   26  C   UNL     1      -7.129  19.961  65.744  1.00  0.00    -0.323 C  
HETATM   27  C   UNL     1      -5.789  18.676  67.449  1.00  0.00    -0.159 C  
ENDBRANCH  21  22
ENDBRANCH  18  21
ENDBRANCH  17  18
ENDBRANCH  16  17
ENDBRANCH  13  16
BRANCH  15  28
HETATM   28  C   UNL     1     -12.724  15.246  71.128  1.00  0.00    -0.410 C  
HETATM   29  O   UNL     1     -13.918  15.546  71.152  1.00  0.00    -0.547 OA 
HETATM   30  C   UNL     1     -11.815  15.711  72.235  1.00  0.00    -0.578 C  
ENDBRANCH  15  28
ENDBRANCH   8  10
ENDBRANCH   6   8
ENDBRANCH   3   6
ENDBRANCH   2   3
TORSDOF 11
ENDMDL
MODEL       55
REMARK 921   NORMALIZED FREE ENERGY PREDICTED BY IDOCK:   -5.34 KCAL/MOL
REMARK 922        TOTAL FREE ENERGY PREDICTED BY IDOCK:   -9.90 KCAL/MOL
REMARK 923 INTER-LIGAND FREE ENERGY PREDICTED BY IDOCK:   -8.15 KCAL/MOL
REMARK 924 INTRA-LIGAND FREE ENERGY PREDICTED BY IDOCK:   -1.75 KCAL/MOL
REMARK 927      BINDING AFFINITY PREDICTED BY RF-SCORE:    0.00 PKD
ROOT
HETATM    1  C   UNL     1     -10.272   5.367  66.333  1.00  0.00    -0.268 C  
HETATM    2  C   UNL     1     -10.907   6.623  66.913  1.00  0.00    -0.345 C  
ENDROOT
BRANCH   2   3
HETATM    3  N   UNL     1     -10.036   7.324  67.862  1.00  0.00    -0.168 N  
BRANCH   3   4
HETATM    4  C   UNL     1      -9.958   6.806  69.233  1.00  0.00    -0.160 C  
HETATM    5  C   UNL     1     -11.256   6.217  69.752  1.00  0.00    -0.494 C  
ENDBRANCH   3   4
BRANCH   3   6
HETATM    6  C   UNL     1      -9.192   8.303  67.339  1.00  0.00    -0.141 C  
HETATM    7  O   UNL     1      -7.985   8.317  67.580  1.00  0.00    -0.114 OA 
BRANCH   6   8
HETATM    8  N   UNL     1      -9.810   9.217  66.506  1.00  0.00    -0.242 N  
HETATM    9  H   UNL     1      -9.799   9.055  65.500  1.00  0.00     0.000 HD 
BRANCH   8  10
HETATM   10  C   UNL     1     -10.454  10.363  67.006  1.00  0.00    -0.251 A  
HETATM   11  C   UNL     1     -10.513  10.643  68.369  1.00  0.00    -0.212 A  
HETATM   12  C   UNL     1     -11.105  11.825  68.822  1.00  0.00    -0.293 A  
HETATM   13  C   UNL     1     -11.628  12.761  67.920  1.00  0.00    -0.351 A  
HETATM   14  C   UNL     1     -11.036  11.252  66.103  1.00  0.00    -0.207 A  
HETATM   15  C   UNL     1     -11.599  12.463  66.546  1.00  0.00    -0.447 A  
BRANCH  13  16
HETATM   16  O   UNL     1     -12.125  13.978  68.304  1.00  0.00    -0.355 OA 
BRANCH  16  17
HETATM   17  C   UNL     1     -12.314  14.203  69.710  1.00  0.00    -0.299 C  
BRANCH  17  18
HETATM   18  C   UNL     1     -12.040  15.680  70.023  1.00  0.00    -0.359 C  
HETATM   19  H   UNL     1     -12.231  16.862  71.580  1.00  0.00     0.000 HD 
HETATM   20  O   UNL     1     -12.401  15.947  71.386  1.00  0.00    -0.423 OA 
BRANCH  18  21
HETATM   21  C   UNL     1     -10.568  16.091  69.819  1.00  0.00    -0.323 C  
BRANCH  21  22
HETATM   22  N   UNL     1      -9.654  14.950  69.695  1.00  0.00    -0.442 NA 
HETATM   23  C   UNL     1      -8.543  15.138  68.737  1.00  0.00    -0.182 C  
HETATM   24  H   UNL     1     -10.176  14.103  69.466  1.00  0.00     0.000 HD 
HETATM   25  C   UNL     1      -7.763  13.810  68.690  1.00  0.00    -0.120 C  
HETATM   26  C   UNL     1      -7.574  16.240  69.199  1.00  0.00    -0.227 C  
HETATM   27  C   UNL     1      -9.058  15.446  67.321  1.00  0.00    -0.218 C  
ENDBRANCH  21  22
ENDBRANCH  18  21
ENDBRANCH  17  18
ENDBRANCH  16  17
ENDBRANCH  13  16
BRANCH  15  28
HETATM   28  C   UNL     1     -12.045  13.376  65.450  1.00  0.00    -0.421 C  
HETATM   29  O   UNL     1     -13.238  13.407  65.143  1.00  0.00    -0.691 OA 
HETATM   30  C   UNL     1     -11.073  14.295  64.759  1.00  0.00    -0.398 C  
ENDBRANCH  15  28
ENDBRANCH   8  10
ENDBRANCH   6   8
ENDBRANCH   3   6
ENDBRANCH   2   3
TORSDOF 11
ENDMDL
MODEL       56
REMARK 921   NORMALIZED FREE ENERGY PREDICTED BY IDOCK:   -5.32 KCAL/MOL
REMARK 922        TOTAL FREE ENERGY PREDICTED BY IDOCK:   -9.88 KCAL/MOL
REMARK 923 INTER-LIGAND FREE ENERGY PREDICTED BY IDOCK:   -8.09 KCAL/MOL
REMARK 924 INTRA-LIGAND FREE ENERGY PREDICTED BY IDOCK:   -1.79 KCAL/MOL
REMARK 927      BINDING AFFINITY PREDICTED BY RF-SCORE:    0.00 PKD
ROOT
HETATM    1  C   UNL     1     -10.206   5.962  69.083  1.00  0.00    -0.275 C  
HETATM    2  C   UNL     1     -10.395   5.534  70.532  1.00  0.00    -0.272 C  
ENDROOT
BRANCH   2   3
HETATM    3  N   UNL     1     -10.035   6.580  71.494  1.00  0.00    -0.176 N  
BRANCH   3   4
HETATM    4  C   UNL     1      -8.666   7.107  71.455  1.00  0.00    -0.119 C  
HETATM    5  C   UNL     1      -8.576   8.590  71.145  1.00  0.00    -0.207 C  
ENDBRANCH   3   4
BRANCH   3   6
HETATM    6  C   UNL     1     -11.076   7.140  72.234  1.00  0.00    -0.254 C  
HETATM    7  O   UNL     1     -11.023   7.237  73.460  1.00  0.00    -0.345 OA 
BRANCH   6   8
HETATM    8  N   UNL     1     -12.137   7.608  71.481  1.00  0.00    -0.299 N  
HETATM    9  H   UNL     1     -12.788   6.937  71.074  1.00  0.00     0.000 HD 
BRANCH   8  10
HETATM   10  C   UNL     1     -12.344   8.981  71.258  1.00  0.00    -0.302 A  
HETATM   11  C   UNL     1     -13.020   9.784  72.174  1.00  0.00    -0.483 A  
HETATM   12  C   UNL     1     -13.148  11.157  71.947  1.00  0.00    -0.513 A  
HETATM   13  C   UNL     1     -12.584  11.758  70.814  1.00  0.00    -0.253 A  
HETATM   14  C   UNL     1     -11.842   9.554  70.090  1.00  0.00    -0.036 A  
HETATM   15  C   UNL     1     -11.932  10.941  69.873  1.00  0.00    -0.430 A  
BRANCH  13  16
HETATM   16  O   UNL     1     -12.593  13.110  70.596  1.00  0.00    -0.290 OA 
BRANCH  16  17
HETATM   17  C   UNL     1     -13.198  13.939  71.602  1.00  0.00    -0.370 C  
BRANCH  17  18
HETATM   18  C   UNL     1     -13.030  15.412  71.204  1.00  0.00    -0.479 C  
HETATM   19  H   UNL     1     -12.097  16.981  71.929  1.00  0.00     0.000 HD 
HETATM   20  O   UNL     1     -12.201  16.069  72.175  1.00  0.00    -0.451 OA 
BRANCH  18  21
HETATM   21  C   UNL     1     -12.399  15.607  69.812  1.00  0.00    -0.190 C  
BRANCH  21  22
HETATM   22  N   UNL     1     -10.939  15.456  69.804  1.00  0.00    -0.265 NA 
HETATM   23  C   UNL     1     -10.274  15.866  68.549  1.00  0.00    -0.226 C  
HETATM   24  H   UNL     1     -10.683  14.498  70.041  1.00  0.00     0.000 HD 
HETATM   25  C   UNL     1      -8.774  15.549  68.714  1.00  0.00    -0.192 C  
HETATM   26  C   UNL     1     -10.413  17.378  68.299  1.00  0.00    -0.385 C  
HETATM   27  C   UNL     1     -10.803  15.079  67.339  1.00  0.00    -0.305 C  
ENDBRANCH  21  22
ENDBRANCH  18  21
ENDBRANCH  17  18
ENDBRANCH  16  17
ENDBRANCH  13  16
BRANCH  15  28
HETATM   28  C   UNL     1     -11.216  11.425  68.653  1.00  0.00    -0.243 C  
HETATM   29  O   UNL     1     -11.874  11.782  67.674  1.00  0.00    -0.558 OA 
HETATM   30  C   UNL     1      -9.715  11.533  68.623  1.00  0.00    -0.172 C  
ENDBRANCH  15  28
ENDBRANCH   8  10
ENDBRANCH   6   8
ENDBRANCH   3   6
ENDBRANCH   2   3
TORSDOF 11
ENDMDL
MODEL       57
REMARK 921   NORMALIZED FREE ENERGY PREDICTED BY IDOCK:   -5.32 KCAL/MOL
REMARK 922        TOTAL FREE ENERGY PREDICTED BY IDOCK:   -9.87 KCAL/MOL
REMARK 923 INTER-LIGAND FREE ENERGY PREDICTED BY IDOCK:   -8.05 KCAL/MOL
REMARK 924 INTRA-LIGAND FREE ENERGY PREDICTED BY IDOCK:   -1.82 KCAL/MOL
REMARK 927      BINDING AFFINITY PREDICTED BY RF-SCORE:    0.00 PKD
ROOT
HETATM    1  C   UNL     1      -9.556   4.796  71.566  1.00  0.00    -0.220 C  
HETATM    2  C   UNL     1     -10.599   4.751  72.674  1.00  0.00    -0.211 C  
ENDROOT
BRANCH   2   3
HETATM    3  N   UNL     1     -10.878   6.067  73.258  1.00  0.00    -0.261 N  
BRANCH   3   4
HETATM    4  C   UNL     1     -10.194   6.423  74.506  1.00  0.00    -0.288 C  
HETATM    5  C   UNL     1      -8.710   6.698  74.348  1.00  0.00    -0.178 C  
ENDBRANCH   3   4
BRANCH   3   6
HETATM    6  C   UNL     1     -11.611   6.960  72.477  1.00  0.00    -0.198 C  
HETATM    7  O   UNL     1     -12.524   6.584  71.743  1.00  0.00    -0.345 OA 
BRANCH   6   8
HETATM    8  N   UNL     1     -11.257   8.289  72.629  1.00  0.00    -0.376 N  
HETATM    9  H   UNL     1     -11.469   8.759  73.509  1.00  0.00     0.000 HD 
BRANCH   8  10
HETATM   10  C   UNL     1     -10.614   9.010  71.607  1.00  0.00    -0.364 A  
HETATM   11  C   UNL     1      -9.302   8.740  71.225  1.00  0.00    -0.319 A  
HETATM   12  C   UNL     1      -8.721   9.434  70.161  1.00  0.00    -0.245 A  
HETATM   13  C   UNL     1      -9.446  10.395  69.444  1.00  0.00    -0.183 A  
HETATM   14  C   UNL     1     -11.322  10.015  70.949  1.00  0.00    -0.439 A  
HETATM   15  C   UNL     1     -10.759  10.691  69.852  1.00  0.00    -0.260 A  
BRANCH  13  16
HETATM   16  O   UNL     1      -8.960  11.029  68.332  1.00  0.00    -0.145 OA 
BRANCH  16  17
HETATM   17  C   UNL     1      -8.367  10.212  67.310  1.00  0.00    -0.121 C  
BRANCH  17  18
HETATM   18  C   UNL     1      -9.013  10.550  65.960  1.00  0.00    -0.167 C  
HETATM   19  H   UNL     1     -10.652  10.043  65.003  1.00  0.00     0.000 HD 
HETATM   20  O   UNL     1     -10.252   9.834  65.839  1.00  0.00    -0.259 OA 
BRANCH  18  21
HETATM   21  C   UNL     1      -9.299  12.052  65.772  1.00  0.00    -0.125 C  
BRANCH  21  22
HETATM   22  N   UNL     1     -10.691  12.424  66.057  1.00  0.00    -0.255 NA 
HETATM   23  C   UNL     1     -11.325  13.299  65.048  1.00  0.00    -0.305 C  
HETATM   24  H   UNL     1     -10.760  12.847  66.983  1.00  0.00     0.000 HD 
HETATM   25  C   UNL     1     -12.733  13.640  65.573  1.00  0.00    -0.514 C  
HETATM   26  C   UNL     1     -11.484  12.585  63.695  1.00  0.00    -0.568 C  
HETATM   27  C   UNL     1     -10.547  14.613  64.864  1.00  0.00    -0.446 C  
ENDBRANCH  21  22
ENDBRANCH  18  21
ENDBRANCH  17  18
ENDBRANCH  16  17
ENDBRANCH  13  16
BRANCH  15  28
HETATM   28  C   UNL     1     -11.692  11.630  69.158  1.00  0.00    -0.326 C  
HETATM   29  O   UNL     1     -12.203  11.288  68.090  1.00  0.00    -0.622 OA 
HETATM   30  C   UNL     1     -12.058  12.957  69.768  1.00  0.00    -0.312 C  
ENDBRANCH  15  28
ENDBRANCH   8  10
ENDBRANCH   6   8
ENDBRANCH   3   6
ENDBRANCH   2   3
TORSDOF 11
ENDMDL
MODEL       58
REMARK 921   NORMALIZED FREE ENERGY PREDICTED BY IDOCK:   -5.29 KCAL/MOL
REMARK 922        TOTAL FREE ENERGY PREDICTED BY IDOCK:   -9.83 KCAL/MOL
REMARK 923 INTER-LIGAND FREE ENERGY PREDICTED BY IDOCK:   -8.61 KCAL/MOL
REMARK 924 INTRA-LIGAND FREE ENERGY PREDICTED BY IDOCK:   -1.22 KCAL/MOL
REMARK 927      BINDING AFFINITY PREDICTED BY RF-SCORE:    0.00 PKD
ROOT
HETATM    1  C   UNL     1      -6.130  18.919  65.184  1.00  0.00    -0.317 C  
HETATM    2  C   UNL     1      -7.335  19.696  65.697  1.00  0.00    -0.251 C  
ENDROOT
BRANCH   2   3
HETATM    3  N   UNL     1      -8.085  18.979  66.734  1.00  0.00    -0.259 N  
BRANCH   3   4
HETATM    4  C   UNL     1      -7.322  18.273  67.769  1.00  0.00    -0.216 C  
HETATM    5  C   UNL     1      -6.801  19.167  68.879  1.00  0.00    -0.357 C  
ENDBRANCH   3   4
BRANCH   3   6
HETATM    6  C   UNL     1      -9.463  19.192  66.776  1.00  0.00    -0.330 C  
HETATM    7  O   UNL     1      -9.955  20.141  67.385  1.00  0.00    -0.390 OA 
BRANCH   6   8
HETATM    8  N   UNL     1     -10.212  18.284  66.051  1.00  0.00    -0.360 N  
HETATM    9  H   UNL     1     -10.470  18.510  65.091  1.00  0.00     0.000 HD 
BRANCH   8  10
HETATM   10  C   UNL     1     -10.630  17.057  66.599  1.00  0.00    -0.182 A  
HETATM   11  C   UNL     1     -10.853  16.896  67.964  1.00  0.00    -0.338 A  
HETATM   12  C   UNL     1     -11.331  15.680  68.461  1.00  0.00    -0.361 A  
HETATM   13  C   UNL     1     -11.616  14.611  67.602  1.00  0.00    -0.361 A  
HETATM   14  C   UNL     1     -10.840  15.977  65.742  1.00  0.00    -0.236 A  
HETATM   15  C   UNL     1     -11.358  14.764  66.228  1.00  0.00    -0.334 A  
BRANCH  13  16
HETATM   16  O   UNL     1     -12.181  13.437  68.024  1.00  0.00    -0.289 OA 
BRANCH  16  17
HETATM   17  C   UNL     1     -11.907  13.016  69.370  1.00  0.00    -0.322 C  
BRANCH  17  18
HETATM   18  C   UNL     1     -11.503  11.536  69.360  1.00  0.00    -0.309 C  
HETATM   19  H   UNL     1     -12.301   9.842  69.957  1.00  0.00     0.000 HD 
HETATM   20  O   UNL     1     -12.550  10.759  69.963  1.00  0.00    -0.308 OA 
BRANCH  18  21
HETATM   21  C   UNL     1     -11.235  10.979  67.949  1.00  0.00    -0.310 C  
BRANCH  21  22
HETATM   22  N   UNL     1     -11.474   9.536  67.833  1.00  0.00    -0.249 NA 
HETATM   23  C   UNL     1     -10.358   8.760  67.248  1.00  0.00    -0.290 C  
HETATM   24  H   UNL     1     -12.333   9.362  67.311  1.00  0.00     0.000 HD 
HETATM   25  C   UNL     1     -10.840   7.301  67.134  1.00  0.00    -0.378 C  
HETATM   26  C   UNL     1      -9.116   8.779  68.156  1.00  0.00    -0.142 C  
HETATM   27  C   UNL     1      -9.992   9.260  65.842  1.00  0.00    -0.289 C  
ENDBRANCH  21  22
ENDBRANCH  18  21
ENDBRANCH  17  18
ENDBRANCH  16  17
ENDBRANCH  13  16
BRANCH  15  28
HETATM   28  C   UNL     1     -11.671  13.755  65.169  1.00  0.00    -0.343 C  
HETATM   29  O   UNL     1     -12.831  13.648  64.767  1.00  0.00    -0.680 OA 
HETATM   30  C   UNL     1     -10.586  12.914  64.551  1.00  0.00    -0.403 C  
ENDBRANCH  15  28
ENDBRANCH   8  10
ENDBRANCH   6   8
ENDBRANCH   3   6
ENDBRANCH   2   3
TORSDOF 11
ENDMDL
MODEL       59
REMARK 921   NORMALIZED FREE ENERGY PREDICTED BY IDOCK:   -5.28 KCAL/MOL
REMARK 922        TOTAL FREE ENERGY PREDICTED BY IDOCK:   -9.81 KCAL/MOL
REMARK 923 INTER-LIGAND FREE ENERGY PREDICTED BY IDOCK:   -8.37 KCAL/MOL
REMARK 924 INTRA-LIGAND FREE ENERGY PREDICTED BY IDOCK:   -1.45 KCAL/MOL
REMARK 927      BINDING AFFINITY PREDICTED BY RF-SCORE:    0.00 PKD
ROOT
HETATM    1  C   UNL     1     -10.750   5.623  71.219  1.00  0.00    -0.312 C  
HETATM    2  C   UNL     1     -11.197   6.300  69.930  1.00  0.00    -0.429 C  
ENDROOT
BRANCH   2   3
HETATM    3  N   UNL     1     -10.102   6.966  69.219  1.00  0.00    -0.166 N  
BRANCH   3   4
HETATM    4  C   UNL     1      -8.737   6.763  69.715  1.00  0.00    -0.141 C  
HETATM    5  C   UNL     1      -7.861   5.920  68.807  1.00  0.00    -0.095 C  
ENDBRANCH   3   4
BRANCH   3   6
HETATM    6  C   UNL     1     -10.417   7.574  68.004  1.00  0.00    -0.197 C  
HETATM    7  O   UNL     1     -11.137   7.026  67.170  1.00  0.00    -0.350 OA 
BRANCH   6   8
HETATM    8  N   UNL     1      -9.893   8.843  67.838  1.00  0.00    -0.161 N  
HETATM    9  H   UNL     1      -8.976   8.946  67.404  1.00  0.00     0.000 HD 
BRANCH   8  10
HETATM   10  C   UNL     1     -10.587   9.995  68.250  1.00  0.00    -0.226 A  
HETATM   11  C   UNL     1     -11.040  10.157  69.557  1.00  0.00    -0.295 A  
HETATM   12  C   UNL     1     -11.668  11.344  69.944  1.00  0.00    -0.424 A  
HETATM   13  C   UNL     1     -11.832  12.402  69.039  1.00  0.00    -0.300 A  
HETATM   14  C   UNL     1     -10.810  11.011  67.321  1.00  0.00    -0.335 A  
HETATM   15  C   UNL     1     -11.404  12.225  67.711  1.00  0.00    -0.362 A  
BRANCH  13  16
HETATM   16  O   UNL     1     -12.346  13.620  69.393  1.00  0.00    -0.292 OA 
BRANCH  16  17
HETATM   17  C   UNL     1     -12.103  14.078  70.733  1.00  0.00    -0.345 C  
BRANCH  17  18
HETATM   18  C   UNL     1     -12.224  15.607  70.770  1.00  0.00    -0.418 C  
HETATM   19  H   UNL     1     -12.491  16.978  72.152  1.00  0.00     0.000 HD 
HETATM   20  O   UNL     1     -12.417  16.031  72.128  1.00  0.00    -0.451 OA 
BRANCH  18  21
HETATM   21  C   UNL     1     -10.991  16.337  70.203  1.00  0.00    -0.332 C  
BRANCH  21  22
HETATM   22  N   UNL     1     -11.070  16.587  68.759  1.00  0.00    -0.330 NA 
HETATM   23  C   UNL     1      -9.962  17.390  68.200  1.00  0.00    -0.308 C  
HETATM   24  H   UNL     1     -11.967  17.014  68.525  1.00  0.00     0.000 HD 
HETATM   25  C   UNL     1     -10.278  17.611  66.708  1.00  0.00    -0.335 C  
HETATM   26  C   UNL     1      -8.618  16.647  68.294  1.00  0.00    -0.212 C  
HETATM   27  C   UNL     1      -9.854  18.765  68.879  1.00  0.00    -0.415 C  
ENDBRANCH  21  22
ENDBRANCH  18  21
ENDBRANCH  17  18
ENDBRANCH  16  17
ENDBRANCH  13  16
BRANCH  15  28
HETATM   28  C   UNL     1     -11.438  13.270  66.643  1.00  0.00    -0.347 C  
HETATM   29  O   UNL     1     -10.610  14.182  66.670  1.00  0.00    -0.275 OA 
HETATM   30  C   UNL     1     -12.427  13.193  65.510  1.00  0.00    -0.516 C  
ENDBRANCH  15  28
ENDBRANCH   8  10
ENDBRANCH   6   8
ENDBRANCH   3   6
ENDBRANCH   2   3
TORSDOF 11
ENDMDL
MODEL       60
REMARK 921   NORMALIZED FREE ENERGY PREDICTED BY IDOCK:   -5.27 KCAL/MOL
REMARK 922        TOTAL FREE ENERGY PREDICTED BY IDOCK:   -9.79 KCAL/MOL
REMARK 923 INTER-LIGAND FREE ENERGY PREDICTED BY IDOCK:   -8.13 KCAL/MOL
REMARK 924 INTRA-LIGAND FREE ENERGY PREDICTED BY IDOCK:   -1.66 KCAL/MOL
REMARK 927      BINDING AFFINITY PREDICTED BY RF-SCORE:    0.00 PKD
ROOT
HETATM    1  C   UNL     1     -10.118   6.291  70.874  1.00  0.00    -0.227 C  
HETATM    2  C   UNL     1     -10.959   7.189  69.978  1.00  0.00    -0.262 C  
ENDROOT
BRANCH   2   3
HETATM    3  N   UNL     1     -11.513   8.350  70.682  1.00  0.00    -0.253 N  
BRANCH   3   4
HETATM    4  C   UNL     1     -12.274   8.108  71.913  1.00  0.00    -0.331 C  
HETATM    5  C   UNL     1     -13.716   7.695  71.684  1.00  0.00    -0.454 C  
ENDBRANCH   3   4
BRANCH   3   6
HETATM    6  C   UNL     1     -11.101   9.608  70.244  1.00  0.00    -0.276 C  
HETATM    7  O   UNL     1      -9.924   9.852  69.980  1.00  0.00    -0.242 OA 
BRANCH   6   8
HETATM    8  N   UNL     1     -12.120  10.532  70.094  1.00  0.00    -0.361 N  
HETATM    9  H   UNL     1     -12.985  10.402  70.617  1.00  0.00     0.000 HD 
BRANCH   8  10
HETATM   10  C   UNL     1     -11.998  11.645  69.243  1.00  0.00    -0.317 A  
HETATM   11  C   UNL     1     -11.998  12.950  69.729  1.00  0.00    -0.365 A  
HETATM   12  C   UNL     1     -11.809  14.026  68.858  1.00  0.00    -0.390 A  
HETATM   13  C   UNL     1     -11.591  13.818  67.489  1.00  0.00    -0.354 A  
HETATM   14  C   UNL     1     -11.855  11.428  67.873  1.00  0.00    -0.239 A  
HETATM   15  C   UNL     1     -11.625  12.502  66.994  1.00  0.00    -0.437 A  
BRANCH  13  16
HETATM   16  O   UNL     1     -11.299  14.828  66.612  1.00  0.00    -0.345 OA 
BRANCH  16  17
HETATM   17  C   UNL     1     -10.902  16.093  67.166  1.00  0.00    -0.216 C  
BRANCH  17  18
HETATM   18  C   UNL     1      -9.884  16.754  66.227  1.00  0.00    -0.309 C  
HETATM   19  H   UNL     1      -9.213  18.574  65.914  1.00  0.00     0.000 HD 
HETATM   20  O   UNL     1      -9.844  18.164  66.495  1.00  0.00    -0.328 OA 
BRANCH  18  21
HETATM   21  C   UNL     1      -8.457  16.190  66.371  1.00  0.00    -0.334 C  
BRANCH  21  22
HETATM   22  N   UNL     1      -8.416  14.731  66.519  1.00  0.00    -0.422 NA 
HETATM   23  C   UNL     1      -7.637  14.240  67.676  1.00  0.00    -0.176 C  
HETATM   24  H   UNL     1      -8.077  14.299  65.659  1.00  0.00     0.000 HD 
HETATM   25  C   UNL     1      -7.645  12.701  67.601  1.00  0.00    -0.152 C  
HETATM   26  C   UNL     1      -8.282  14.651  69.011  1.00  0.00    -0.110 C  
HETATM   27  C   UNL     1      -6.177  14.719  67.625  1.00  0.00    -0.114 C  
ENDBRANCH  21  22
ENDBRANCH  18  21
ENDBRANCH  17  18
ENDBRANCH  16  17
ENDBRANCH  13  16
BRANCH  15  28
HETATM   28  C   UNL     1     -11.342  12.098  65.583  1.00  0.00    -0.347 C  
HETATM   29  O   UNL     1     -10.292  11.506  65.327  1.00  0.00    -0.250 OA 
HETATM   30  C   UNL     1     -12.341  12.353  64.486  1.00  0.00    -0.519 C  
ENDBRANCH  15  28
ENDBRANCH   8  10
ENDBRANCH   6   8
ENDBRANCH   3   6
ENDBRANCH   2   3
TORSDOF 11
ENDMDL
MODEL       61
REMARK 921   NORMALIZED FREE ENERGY PREDICTED BY IDOCK:   -5.22 KCAL/MOL
REMARK 922        TOTAL FREE ENERGY PREDICTED BY IDOCK:   -9.70 KCAL/MOL
REMARK 923 INTER-LIGAND FREE ENERGY PREDICTED BY IDOCK:   -8.76 KCAL/MOL
REMARK 924 INTRA-LIGAND FREE ENERGY PREDICTED BY IDOCK:   -0.94 KCAL/MOL
REMARK 927      BINDING AFFINITY PREDICTED BY RF-SCORE:    0.00 PKD
ROOT
HETATM    1  C   UNL     1     -11.270  16.280  64.768  1.00  0.00    -0.267 C  
HETATM    2  C   UNL     1     -10.561  15.278  65.669  1.00  0.00    -0.362 C  
ENDROOT
BRANCH   2   3
HETATM    3  N   UNL     1      -9.645  15.909  66.624  1.00  0.00    -0.232 N  
BRANCH   3   4
HETATM    4  C   UNL     1      -8.505  16.661  66.087  1.00  0.00    -0.273 C  
HETATM    5  C   UNL     1      -8.494  18.131  66.463  1.00  0.00    -0.283 C  
ENDBRANCH   3   4
BRANCH   3   6
HETATM    6  C   UNL     1     -10.038  15.920  67.962  1.00  0.00    -0.230 C  
HETATM    7  O   UNL     1      -9.284  16.296  68.858  1.00  0.00    -0.228 OA 
BRANCH   6   8
HETATM    8  N   UNL     1     -11.343  15.520  68.185  1.00  0.00    -0.342 N  
HETATM    9  H   UNL     1     -12.103  16.058  67.770  1.00  0.00     0.000 HD 
BRANCH   8  10
HETATM   10  C   UNL     1     -11.652  14.393  68.968  1.00  0.00    -0.296 A  
HETATM   11  C   UNL     1     -11.248  13.109  68.607  1.00  0.00    -0.314 A  
HETATM   12  C   UNL     1     -11.518  12.024  69.445  1.00  0.00    -0.361 A  
HETATM   13  C   UNL     1     -12.177  12.202  70.669  1.00  0.00    -0.300 A  
HETATM   14  C   UNL     1     -12.373  14.573  70.148  1.00  0.00    -0.398 A  
HETATM   15  C   UNL     1     -12.615  13.493  71.016  1.00  0.00    -0.438 A  
BRANCH  13  16
HETATM   16  O   UNL     1     -12.375  11.191  71.571  1.00  0.00    -0.267 OA 
BRANCH  16  17
HETATM   17  C   UNL     1     -13.212  10.097  71.165  1.00  0.00    -0.355 C  
BRANCH  17  18
HETATM   18  C   UNL     1     -12.692   8.803  71.807  1.00  0.00    -0.359 C  
HETATM   19  H   UNL     1     -13.393   6.997  72.132  1.00  0.00     0.000 HD 
HETATM   20  O   UNL     1     -13.715   7.799  71.735  1.00  0.00    -0.347 OA 
BRANCH  18  21
HETATM   21  C   UNL     1     -11.419   8.251  71.137  1.00  0.00    -0.273 C  
BRANCH  21  22
HETATM   22  N   UNL     1     -11.046   8.966  69.910  1.00  0.00    -0.392 NA 
HETATM   23  C   UNL     1     -10.224   8.189  68.958  1.00  0.00    -0.220 C  
HETATM   24  H   UNL     1     -10.581   9.844  70.142  1.00  0.00     0.000 HD 
HETATM   25  C   UNL     1      -9.871   9.137  67.795  1.00  0.00    -0.214 C  
HETATM   26  C   UNL     1     -11.001   6.996  68.376  1.00  0.00    -0.137 C  
HETATM   27  C   UNL     1      -8.914   7.704  69.600  1.00  0.00    -0.140 C  
ENDBRANCH  21  22
ENDBRANCH  18  21
ENDBRANCH  17  18
ENDBRANCH  16  17
ENDBRANCH  13  16
BRANCH  15  28
HETATM   28  C   UNL     1     -13.264  13.870  72.308  1.00  0.00    -0.473 C  
HETATM   29  O   UNL     1     -14.371  13.403  72.582  1.00  0.00    -0.709 OA 
HETATM   30  C   UNL     1     -12.565  14.762  73.299  1.00  0.00    -0.554 C  
ENDBRANCH  15  28
ENDBRANCH   8  10
ENDBRANCH   6   8
ENDBRANCH   3   6
ENDBRANCH   2   3
TORSDOF 11
ENDMDL
MODEL       62
REMARK 921   NORMALIZED FREE ENERGY PREDICTED BY IDOCK:   -5.21 KCAL/MOL
REMARK 922        TOTAL FREE ENERGY PREDICTED BY IDOCK:   -9.69 KCAL/MOL
REMARK 923 INTER-LIGAND FREE ENERGY PREDICTED BY IDOCK:   -8.14 KCAL/MOL
REMARK 924 INTRA-LIGAND FREE ENERGY PREDICTED BY IDOCK:   -1.55 KCAL/MOL
REMARK 927      BINDING AFFINITY PREDICTED BY RF-SCORE:    0.00 PKD
ROOT
HETATM    1  C   UNL     1     -12.855  13.764  65.545  1.00  0.00    -0.464 C  
HETATM    2  C   UNL     1     -12.120  12.489  65.156  1.00  0.00    -0.446 C  
ENDROOT
BRANCH   2   3
HETATM    3  N   UNL     1     -11.128  12.068  66.151  1.00  0.00    -0.309 N  
BRANCH   3   4
HETATM    4  C   UNL     1     -11.616  11.427  67.377  1.00  0.00    -0.184 C  
HETATM    5  C   UNL     1     -10.927  10.118  67.714  1.00  0.00    -0.338 C  
ENDBRANCH   3   4
BRANCH   3   6
HETATM    6  C   UNL     1      -9.788  12.122  65.768  1.00  0.00    -0.245 C  
HETATM    7  O   UNL     1      -9.350  11.445  64.839  1.00  0.00    -0.203 OA 
BRANCH   6   8
HETATM    8  N   UNL     1      -9.016  13.018  66.484  1.00  0.00    -0.423 N  
HETATM    9  H   UNL     1      -8.093  12.729  66.807  1.00  0.00     0.000 HD 
BRANCH   8  10
HETATM   10  C   UNL     1      -9.466  14.317  66.782  1.00  0.00    -0.275 A  
HETATM   11  C   UNL     1      -9.371  15.360  65.863  1.00  0.00    -0.329 A  
HETATM   12  C   UNL     1      -9.890  16.621  66.172  1.00  0.00    -0.340 A  
HETATM   13  C   UNL     1     -10.533  16.858  67.395  1.00  0.00    -0.310 A  
HETATM   14  C   UNL     1     -10.039  14.559  68.030  1.00  0.00    -0.226 A  
HETATM   15  C   UNL     1     -10.598  15.813  68.334  1.00  0.00    -0.264 A  
BRANCH  13  16
HETATM   16  O   UNL     1     -11.146  18.042  67.704  1.00  0.00    -0.209 OA 
BRANCH  16  17
HETATM   17  C   UNL     1     -10.783  19.198  66.932  1.00  0.00    -0.424 C  
BRANCH  17  18
HETATM   18  C   UNL     1      -9.909  20.120  67.792  1.00  0.00    -0.410 C  
HETATM   19  H   UNL     1      -9.514  20.327  69.705  1.00  0.00     0.000 HD 
HETATM   20  O   UNL     1     -10.056  19.756  69.173  1.00  0.00    -0.438 OA 
BRANCH  18  21
HETATM   21  C   UNL     1      -8.412  20.063  67.430  1.00  0.00    -0.336 C  
BRANCH  21  22
HETATM   22  N   UNL     1      -7.539  19.816  68.585  1.00  0.00    -0.316 NA 
HETATM   23  C   UNL     1      -6.258  19.148  68.271  1.00  0.00    -0.223 C  
HETATM   24  H   UNL     1      -8.043  19.292  69.301  1.00  0.00     0.000 HD 
HETATM   25  C   UNL     1      -5.540  18.904  69.612  1.00  0.00    -0.232 C  
HETATM   26  C   UNL     1      -5.350  20.037  67.404  1.00  0.00    -0.176 C  
HETATM   27  C   UNL     1      -6.477  17.789  67.586  1.00  0.00    -0.187 C  
ENDBRANCH  21  22
ENDBRANCH  18  21
ENDBRANCH  17  18
ENDBRANCH  16  17
ENDBRANCH  13  16
BRANCH  15  28
HETATM   28  C   UNL     1     -11.307  15.873  69.649  1.00  0.00    -0.342 C  
HETATM   29  O   UNL     1     -10.937  16.690  70.494  1.00  0.00    -0.223 OA 
HETATM   30  C   UNL     1     -12.495  14.993  69.933  1.00  0.00    -0.269 C  
ENDBRANCH  15  28
ENDBRANCH   8  10
ENDBRANCH   6   8
ENDBRANCH   3   6
ENDBRANCH   2   3
TORSDOF 11
ENDMDL
MODEL       63
REMARK 921   NORMALIZED FREE ENERGY PREDICTED BY IDOCK:   -5.20 KCAL/MOL
REMARK 922        TOTAL FREE ENERGY PREDICTED BY IDOCK:   -9.68 KCAL/MOL
REMARK 923 INTER-LIGAND FREE ENERGY PREDICTED BY IDOCK:   -8.45 KCAL/MOL
REMARK 924 INTRA-LIGAND FREE ENERGY PREDICTED BY IDOCK:   -1.23 KCAL/MOL
REMARK 927      BINDING AFFINITY PREDICTED BY RF-SCORE:    0.00 PKD
ROOT
HETATM    1  C   UNL     1     -10.587   5.639  66.827  1.00  0.00    -0.372 C  
HETATM    2  C   UNL     1     -11.006   6.785  67.736  1.00  0.00    -0.241 C  
ENDROOT
BRANCH   2   3
HETATM    3  N   UNL     1      -9.911   7.714  68.036  1.00  0.00    -0.168 N  
BRANCH   3   4
HETATM    4  C   UNL     1      -8.679   7.599  67.249  1.00  0.00    -0.124 C  
HETATM    5  C   UNL     1      -8.545   8.630  66.145  1.00  0.00    -0.158 C  
ENDBRANCH   3   4
BRANCH   3   6
HETATM    6  C   UNL     1     -10.198   8.768  68.904  1.00  0.00    -0.207 C  
HETATM    7  O   UNL     1      -9.625   8.894  69.985  1.00  0.00    -0.166 OA 
BRANCH   6   8
HETATM    8  N   UNL     1     -11.138   9.666  68.433  1.00  0.00    -0.481 N  
HETATM    9  H   UNL     1     -12.128   9.465  68.573  1.00  0.00     0.000 HD 
BRANCH   8  10
HETATM   10  C   UNL     1     -10.769  10.849  67.767  1.00  0.00    -0.235 A  
HETATM   11  C   UNL     1      -9.567  11.501  68.029  1.00  0.00    -0.180 A  
HETATM   12  C   UNL     1      -9.206  12.637  67.299  1.00  0.00    -0.195 A  
HETATM   13  C   UNL     1     -10.030  13.130  66.278  1.00  0.00    -0.285 A  
HETATM   14  C   UNL     1     -11.631  11.372  66.803  1.00  0.00    -0.038 A  
HETATM   15  C   UNL     1     -11.259  12.491  66.037  1.00  0.00    -0.354 A  
BRANCH  13  16
HETATM   16  O   UNL     1      -9.677  14.175  65.467  1.00  0.00    -0.246 OA 
BRANCH  16  17
HETATM   17  C   UNL     1      -9.210  15.377  66.100  1.00  0.00    -0.327 C  
BRANCH  17  18
HETATM   18  C   UNL     1     -10.398  16.323  66.318  1.00  0.00    -0.326 C  
HETATM   19  H   UNL     1     -11.735  16.625  67.725  1.00  0.00     0.000 HD 
HETATM   20  O   UNL     1     -10.999  16.038  67.590  1.00  0.00    -0.325 OA 
BRANCH  18  21
HETATM   21  C   UNL     1     -10.012  17.815  66.284  1.00  0.00    -0.318 C  
BRANCH  21  22
HETATM   22  N   UNL     1      -8.848  18.138  67.118  1.00  0.00    -0.254 NA 
HETATM   23  C   UNL     1      -9.006  19.327  67.982  1.00  0.00    -0.316 C  
HETATM   24  H   UNL     1      -8.015  18.233  66.536  1.00  0.00     0.000 HD 
HETATM   25  C   UNL     1      -7.658  19.542  68.698  1.00  0.00    -0.389 C  
HETATM   26  C   UNL     1     -10.083  19.109  69.058  1.00  0.00    -0.365 C  
HETATM   27  C   UNL     1      -9.324  20.589  67.163  1.00  0.00    -0.513 C  
ENDBRANCH  21  22
ENDBRANCH  18  21
ENDBRANCH  17  18
ENDBRANCH  16  17
ENDBRANCH  13  16
BRANCH  15  28
HETATM   28  C   UNL     1     -12.218  12.840  64.944  1.00  0.00    -0.463 C  
HETATM   29  O   UNL     1     -13.018  13.761  65.120  1.00  0.00    -0.738 OA 
HETATM   30  C   UNL     1     -12.183  12.124  63.621  1.00  0.00    -0.663 C  
ENDBRANCH  15  28
ENDBRANCH   8  10
ENDBRANCH   6   8
ENDBRANCH   3   6
ENDBRANCH   2   3
TORSDOF 11
ENDMDL
MODEL       64
REMARK 921   NORMALIZED FREE ENERGY PREDICTED BY IDOCK:   -5.20 KCAL/MOL
REMARK 922        TOTAL FREE ENERGY PREDICTED BY IDOCK:   -9.67 KCAL/MOL
REMARK 923 INTER-LIGAND FREE ENERGY PREDICTED BY IDOCK:   -8.48 KCAL/MOL
REMARK 924 INTRA-LIGAND FREE ENERGY PREDICTED BY IDOCK:   -1.19 KCAL/MOL
REMARK 927      BINDING AFFINITY PREDICTED BY RF-SCORE:    0.00 PKD
ROOT
HETATM    1  C   UNL     1      -7.970   5.707  68.501  1.00  0.00    -0.100 C  
HETATM    2  C   UNL     1      -8.411   6.985  69.201  1.00  0.00    -0.125 C  
ENDROOT
BRANCH   2   3
HETATM    3  N   UNL     1      -9.814   7.327  68.947  1.00  0.00    -0.156 N  
BRANCH   3   4
HETATM    4  C   UNL     1     -10.700   7.494  70.104  1.00  0.00    -0.239 C  
HETATM    5  C   UNL     1     -11.340   6.207  70.591  1.00  0.00    -0.368 C  
ENDBRANCH   3   4
BRANCH   3   6
HETATM    6  C   UNL     1     -10.152   7.670  67.638  1.00  0.00    -0.192 C  
HETATM    7  O   UNL     1     -10.932   6.994  66.970  1.00  0.00    -0.375 OA 
BRANCH   6   8
HETATM    8  N   UNL     1      -9.575   8.840  67.178  1.00  0.00    -0.164 N  
HETATM    9  H   UNL     1      -8.587   8.838  66.927  1.00  0.00     0.000 HD 
BRANCH   8  10
HETATM   10  C   UNL     1     -10.311  10.032  67.048  1.00  0.00    -0.243 A  
HETATM   11  C   UNL     1     -10.829  10.705  68.152  1.00  0.00    -0.291 A  
HETATM   12  C   UNL     1     -11.497  11.921  67.986  1.00  0.00    -0.389 A  
HETATM   13  C   UNL     1     -11.641  12.499  66.718  1.00  0.00    -0.382 A  
HETATM   14  C   UNL     1     -10.511  10.560  65.773  1.00  0.00    -0.214 A  
HETATM   15  C   UNL     1     -11.148  11.802  65.600  1.00  0.00    -0.340 A  
BRANCH  13  16
HETATM   16  O   UNL     1     -12.196  13.734  66.513  1.00  0.00    -0.435 OA 
BRANCH  16  17
HETATM   17  C   UNL     1     -11.779  14.800  67.381  1.00  0.00    -0.350 C  
BRANCH  17  18
HETATM   18  C   UNL     1     -10.375  15.263  66.968  1.00  0.00    -0.277 C  
HETATM   19  H   UNL     1      -9.481  15.767  65.293  1.00  0.00     0.000 HD 
HETATM   20  O   UNL     1     -10.351  15.480  65.549  1.00  0.00    -0.336 OA 
BRANCH  18  21
HETATM   21  C   UNL     1      -9.923  16.559  67.668  1.00  0.00    -0.254 C  
BRANCH  21  22
HETATM   22  N   UNL     1      -9.393  17.569  66.744  1.00  0.00    -0.257 NA 
HETATM   23  C   UNL     1      -9.130  18.893  67.347  1.00  0.00    -0.279 C  
HETATM   24  H   UNL     1     -10.009  17.666  65.937  1.00  0.00     0.000 HD 
HETATM   25  C   UNL     1      -8.670  19.821  66.205  1.00  0.00    -0.403 C  
HETATM   26  C   UNL     1      -8.001  18.830  68.389  1.00  0.00    -0.365 C  
HETATM   27  C   UNL     1     -10.397  19.495  67.976  1.00  0.00    -0.564 C  
ENDBRANCH  21  22
ENDBRANCH  18  21
ENDBRANCH  17  18
ENDBRANCH  16  17
ENDBRANCH  13  16
BRANCH  15  28
HETATM   28  C   UNL     1     -11.152  12.305  64.193  1.00  0.00    -0.366 C  
HETATM   29  O   UNL     1     -10.114  12.770  63.719  1.00  0.00    -0.372 OA 
HETATM   30  C   UNL     1     -12.384  12.202  63.334  1.00  0.00    -0.648 C  
ENDBRANCH  15  28
ENDBRANCH   8  10
ENDBRANCH   6   8
ENDBRANCH   3   6
ENDBRANCH   2   3
TORSDOF 11
ENDMDL
MODEL       65
REMARK 921   NORMALIZED FREE ENERGY PREDICTED BY IDOCK:   -5.19 KCAL/MOL
REMARK 922        TOTAL FREE ENERGY PREDICTED BY IDOCK:   -9.65 KCAL/MOL
REMARK 923 INTER-LIGAND FREE ENERGY PREDICTED BY IDOCK:   -8.62 KCAL/MOL
REMARK 924 INTRA-LIGAND FREE ENERGY PREDICTED BY IDOCK:   -1.04 KCAL/MOL
REMARK 927      BINDING AFFINITY PREDICTED BY RF-SCORE:    0.00 PKD
ROOT
HETATM    1  C   UNL     1      -9.989  19.191  68.744  1.00  0.00    -0.493 C  
HETATM    2  C   UNL     1     -10.135  19.549  67.271  1.00  0.00    -0.405 C  
ENDROOT
BRANCH   2   3
HETATM    3  N   UNL     1      -9.086  18.965  66.429  1.00  0.00    -0.323 N  
BRANCH   3   4
HETATM    4  C   UNL     1      -7.968  19.826  66.030  1.00  0.00    -0.330 C  
HETATM    5  C   UNL     1      -7.085  20.276  67.179  1.00  0.00    -0.314 C  
ENDBRANCH   3   4
BRANCH   3   6
HETATM    6  C   UNL     1      -9.124  17.583  66.241  1.00  0.00    -0.193 C  
HETATM    7  O   UNL     1      -8.105  16.895  66.270  1.00  0.00    -0.287 OA 
BRANCH   6   8
HETATM    8  N   UNL     1     -10.391  17.057  66.065  1.00  0.00    -0.344 N  
HETATM    9  H   UNL     1     -11.092  17.610  65.572  1.00  0.00     0.000 HD 
BRANCH   8  10
HETATM   10  C   UNL     1     -10.742  15.783  66.546  1.00  0.00    -0.283 A  
HETATM   11  C   UNL     1     -10.769  15.488  67.907  1.00  0.00    -0.294 A  
HETATM   12  C   UNL     1     -11.186  14.229  68.347  1.00  0.00    -0.291 A  
HETATM   13  C   UNL     1     -11.607  13.249  67.438  1.00  0.00    -0.353 A  
HETATM   14  C   UNL     1     -11.088  14.792  65.627  1.00  0.00    -0.342 A  
HETATM   15  C   UNL     1     -11.547  13.536  66.063  1.00  0.00    -0.363 A  
BRANCH  13  16
HETATM   16  O   UNL     1     -12.120  12.039  67.821  1.00  0.00    -0.537 OA 
BRANCH  16  17
HETATM   17  C   UNL     1     -12.147  11.746  69.228  1.00  0.00    -0.229 C  
BRANCH  17  18
HETATM   18  C   UNL     1     -11.051  10.720  69.547  1.00  0.00    -0.278 C  
HETATM   19  H   UNL     1     -10.741   9.355  70.925  1.00  0.00     0.000 HD 
HETATM   20  O   UNL     1     -11.419   9.991  70.728  1.00  0.00    -0.303 OA 
BRANCH  18  21
HETATM   21  C   UNL     1     -10.802   9.711  68.409  1.00  0.00    -0.167 C  
BRANCH  21  22
HETATM   22  N   UNL     1      -9.406   9.266  68.315  1.00  0.00    -0.134 NA 
HETATM   23  C   UNL     1      -9.211   7.801  68.338  1.00  0.00    -0.137 C  
HETATM   24  H   UNL     1      -8.847   9.707  69.046  1.00  0.00     0.000 HD 
HETATM   25  C   UNL     1      -7.691   7.551  68.320  1.00  0.00    -0.120 C  
HETATM   26  C   UNL     1      -9.817   7.127  67.094  1.00  0.00    -0.235 C  
HETATM   27  C   UNL     1      -9.789   7.169  69.615  1.00  0.00    -0.162 C  
ENDBRANCH  21  22
ENDBRANCH  18  21
ENDBRANCH  17  18
ENDBRANCH  16  17
ENDBRANCH  13  16
BRANCH  15  28
HETATM   28  C   UNL     1     -12.023  12.637  64.968  1.00  0.00    -0.419 C  
HETATM   29  O   UNL     1     -13.232  12.546  64.749  1.00  0.00    -0.839 OA 
HETATM   30  C   UNL     1     -11.049  11.888  64.097  1.00  0.00    -0.441 C  
ENDBRANCH  15  28
ENDBRANCH   8  10
ENDBRANCH   6   8
ENDBRANCH   3   6
ENDBRANCH   2   3
TORSDOF 11
ENDMDL
MODEL       66
REMARK 921   NORMALIZED FREE ENERGY PREDICTED BY IDOCK:   -5.18 KCAL/MOL
REMARK 922        TOTAL FREE ENERGY PREDICTED BY IDOCK:   -9.64 KCAL/MOL
REMARK 923 INTER-LIGAND FREE ENERGY PREDICTED BY IDOCK:   -8.09 KCAL/MOL
REMARK 924 INTRA-LIGAND FREE ENERGY PREDICTED BY IDOCK:   -1.55 KCAL/MOL
REMARK 927      BINDING AFFINITY PREDICTED BY RF-SCORE:    0.00 PKD
ROOT
HETATM    1  C   UNL     1     -12.600   9.703  70.833  1.00  0.00    -0.299 C  
HETATM    2  C   UNL     1     -11.149   9.680  71.294  1.00  0.00    -0.355 C  
ENDROOT
BRANCH   2   3
HETATM    3  N   UNL     1     -10.289   8.841  70.452  1.00  0.00    -0.192 N  
BRANCH   3   4
HETATM    4  C   UNL     1     -10.810   7.539  70.023  1.00  0.00    -0.249 C  
HETATM    5  C   UNL     1     -10.042   6.349  70.567  1.00  0.00    -0.221 C  
ENDBRANCH   3   4
BRANCH   3   6
HETATM    6  C   UNL     1      -9.127   9.430  69.954  1.00  0.00    -0.204 C  
HETATM    7  O   UNL     1      -8.155   9.659  70.672  1.00  0.00    -0.243 OA 
BRANCH   6   8
HETATM    8  N   UNL     1      -9.146   9.690  68.596  1.00  0.00    -0.131 N  
HETATM    9  H   UNL     1      -8.803   8.979  67.952  1.00  0.00     0.000 HD 
BRANCH   8  10
HETATM   10  C   UNL     1      -9.625  10.907  68.077  1.00  0.00    -0.162 A  
HETATM   11  C   UNL     1     -10.862  11.004  67.444  1.00  0.00    -0.327 A  
HETATM   12  C   UNL     1     -11.332  12.243  67.001  1.00  0.00    -0.395 A  
HETATM   13  C   UNL     1     -10.586  13.412  67.202  1.00  0.00    -0.259 A  
HETATM   14  C   UNL     1      -8.841  12.051  68.219  1.00  0.00    -0.182 A  
HETATM   15  C   UNL     1      -9.322  13.308  67.811  1.00  0.00    -0.209 A  
BRANCH  13  16
HETATM   16  O   UNL     1     -11.044  14.662  66.880  1.00  0.00    -0.316 OA 
BRANCH  16  17
HETATM   17  C   UNL     1     -11.638  14.836  65.584  1.00  0.00    -0.290 C  
BRANCH  17  18
HETATM   18  C   UNL     1     -10.982  16.037  64.889  1.00  0.00    -0.384 C  
HETATM   19  H   UNL     1     -11.336  17.119  63.289  1.00  0.00     0.000 HD 
HETATM   20  O   UNL     1     -11.741  16.375  63.719  1.00  0.00    -1.049 OA 
BRANCH  18  21
HETATM   21  C   UNL     1     -10.884  17.288  65.784  1.00  0.00    -0.023 C  
BRANCH  21  22
HETATM   22  N   UNL     1      -9.509  17.623  66.173  1.00  0.00    -0.488 NA 
HETATM   23  C   UNL     1      -9.387  18.676  67.204  1.00  0.00    -0.290 C  
HETATM   24  H   UNL     1      -8.961  17.873  65.349  1.00  0.00     0.000 HD 
HETATM   25  C   UNL     1      -7.882  18.937  67.402  1.00  0.00    -0.255 C  
HETATM   26  C   UNL     1      -9.970  18.220  68.553  1.00  0.00    -0.413 C  
HETATM   27  C   UNL     1     -10.051  19.989  66.759  1.00  0.00    -0.607 C  
ENDBRANCH  21  22
ENDBRANCH  18  21
ENDBRANCH  17  18
ENDBRANCH  16  17
ENDBRANCH  13  16
BRANCH  15  28
HETATM   28  C   UNL     1      -8.433  14.456  68.166  1.00  0.00    -0.160 C  
HETATM   29  O   UNL     1      -8.540  14.977  69.278  1.00  0.00    -0.206 OA 
HETATM   30  C   UNL     1      -7.378  14.947  67.211  1.00  0.00    -0.174 C  
ENDBRANCH  15  28
ENDBRANCH   8  10
ENDBRANCH   6   8
ENDBRANCH   3   6
ENDBRANCH   2   3
TORSDOF 11
ENDMDL
MODEL       67
REMARK 921   NORMALIZED FREE ENERGY PREDICTED BY IDOCK:   -5.16 KCAL/MOL
REMARK 922        TOTAL FREE ENERGY PREDICTED BY IDOCK:   -9.61 KCAL/MOL
REMARK 923 INTER-LIGAND FREE ENERGY PREDICTED BY IDOCK:   -8.57 KCAL/MOL
REMARK 924 INTRA-LIGAND FREE ENERGY PREDICTED BY IDOCK:   -1.04 KCAL/MOL
REMARK 927      BINDING AFFINITY PREDICTED BY RF-SCORE:    0.00 PKD
ROOT
HETATM    1  C   UNL     1      -7.209  18.901  68.818  1.00  0.00    -0.351 C  
HETATM    2  C   UNL     1      -8.576  18.255  68.646  1.00  0.00    -0.283 C  
ENDROOT
BRANCH   2   3
HETATM    3  N   UNL     1      -9.118  18.404  67.291  1.00  0.00    -0.264 N  
BRANCH   3   4
HETATM    4  C   UNL     1      -9.126  19.746  66.699  1.00  0.00    -0.374 C  
HETATM    5  C   UNL     1     -10.387  20.079  65.924  1.00  0.00    -0.529 C  
ENDBRANCH   3   4
BRANCH   3   6
HETATM    6  C   UNL     1      -9.394  17.231  66.590  1.00  0.00    -0.260 C  
HETATM    7  O   UNL     1      -8.588  16.740  65.801  1.00  0.00    -0.485 OA 
BRANCH   6   8
HETATM    8  N   UNL     1     -10.616  16.653  66.886  1.00  0.00    -0.274 N  
HETATM    9  H   UNL     1     -11.424  17.257  67.034  1.00  0.00     0.000 HD 
BRANCH   8  10
HETATM   10  C   UNL     1     -10.776  15.260  66.987  1.00  0.00    -0.313 A  
HETATM   11  C   UNL     1     -10.545  14.574  68.178  1.00  0.00    -0.238 A  
HETATM   12  C   UNL     1     -10.779  13.199  68.256  1.00  0.00    -0.261 A  
HETATM   13  C   UNL     1     -11.270  12.486  67.153  1.00  0.00    -0.300 A  
HETATM   14  C   UNL     1     -11.195  14.550  65.862  1.00  0.00    -0.331 A  
HETATM   15  C   UNL     1     -11.471  13.173  65.943  1.00  0.00    -0.366 A  
BRANCH  13  16
HETATM   16  O   UNL     1     -11.612  11.161  67.206  1.00  0.00    -0.514 OA 
BRANCH  16  17
HETATM   17  C   UNL     1     -11.117  10.393  68.315  1.00  0.00    -0.281 C  
BRANCH  17  18
HETATM   18  C   UNL     1     -10.169   9.307  67.789  1.00  0.00    -0.218 C  
HETATM   19  H   UNL     1     -10.344   7.458  67.148  1.00  0.00     0.000 HD 
HETATM   20  O   UNL     1     -10.931   8.131  67.474  1.00  0.00    -0.115 OA 
BRANCH  18  21
HETATM   21  C   UNL     1      -9.385   9.729  66.532  1.00  0.00    -0.162 C  
BRANCH  21  22
HETATM   22  N   UNL     1      -9.181   8.637  65.573  1.00  0.00    -0.404 NA 
HETATM   23  C   UNL     1      -8.000   8.785  64.696  1.00  0.00    -0.135 C  
HETATM   24  H   UNL     1     -10.021   8.500  65.011  1.00  0.00     0.000 HD 
HETATM   25  C   UNL     1      -8.017   7.594  63.717  1.00  0.00    -0.090 C  
HETATM   26  C   UNL     1      -6.686   8.721  65.494  1.00  0.00    -0.071 C  
HETATM   27  C   UNL     1      -8.058  10.084  63.876  1.00  0.00    -0.152 C  
ENDBRANCH  21  22
ENDBRANCH  18  21
ENDBRANCH  17  18
ENDBRANCH  16  17
ENDBRANCH  13  16
BRANCH  15  28
HETATM   28  C   UNL     1     -12.055  12.584  64.698  1.00  0.00    -0.428 C  
HETATM   29  O   UNL     1     -13.280  12.543  64.572  1.00  0.00    -0.832 OA 
HETATM   30  C   UNL     1     -11.173  12.096  63.581  1.00  0.00    -0.540 C  
ENDBRANCH  15  28
ENDBRANCH   8  10
ENDBRANCH   6   8
ENDBRANCH   3   6
ENDBRANCH   2   3
TORSDOF 11
ENDMDL
MODEL       68
REMARK 921   NORMALIZED FREE ENERGY PREDICTED BY IDOCK:   -5.15 KCAL/MOL
REMARK 922        TOTAL FREE ENERGY PREDICTED BY IDOCK:   -9.60 KCAL/MOL
REMARK 923 INTER-LIGAND FREE ENERGY PREDICTED BY IDOCK:   -8.04 KCAL/MOL
REMARK 924 INTRA-LIGAND FREE ENERGY PREDICTED BY IDOCK:   -1.56 KCAL/MOL
REMARK 927      BINDING AFFINITY PREDICTED BY RF-SCORE:    0.00 PKD
ROOT
HETATM    1  C   UNL     1     -11.549   6.347  69.959  1.00  0.00    -0.446 C  
HETATM    2  C   UNL     1     -10.496   7.291  69.394  1.00  0.00    -0.216 C  
ENDROOT
BRANCH   2   3
HETATM    3  N   UNL     1     -10.389   8.548  70.141  1.00  0.00    -0.202 N  
BRANCH   3   4
HETATM    4  C   UNL     1     -11.464   8.882  71.081  1.00  0.00    -0.301 C  
HETATM    5  C   UNL     1     -11.982  10.303  70.958  1.00  0.00    -0.483 C  
ENDBRANCH   3   4
BRANCH   3   6
HETATM    6  C   UNL     1      -9.175   9.230  70.055  1.00  0.00    -0.210 C  
HETATM    7  O   UNL     1      -8.541   9.557  71.057  1.00  0.00    -0.273 OA 
BRANCH   6   8
HETATM    8  N   UNL     1      -8.734   9.467  68.766  1.00  0.00    -0.126 N  
HETATM    9  H   UNL     1      -8.280   8.712  68.253  1.00  0.00     0.000 HD 
BRANCH   8  10
HETATM   10  C   UNL     1      -8.892  10.718  68.142  1.00  0.00    -0.133 A  
HETATM   11  C   UNL     1      -8.038  11.787  68.404  1.00  0.00    -0.150 A  
HETATM   12  C   UNL     1      -8.188  12.994  67.715  1.00  0.00    -0.168 A  
HETATM   13  C   UNL     1      -9.179  13.148  66.735  1.00  0.00    -0.230 A  
HETATM   14  C   UNL     1      -9.927  10.882  67.222  1.00  0.00    -0.216 A  
HETATM   15  C   UNL     1     -10.061  12.079  66.496  1.00  0.00    -0.224 A  
BRANCH  13  16
HETATM   16  O   UNL     1      -9.303  14.270  65.961  1.00  0.00    -0.228 OA 
BRANCH  16  17
HETATM   17  C   UNL     1      -8.958  15.530  66.561  1.00  0.00    -0.312 C  
BRANCH  17  18
HETATM   18  C   UNL     1     -10.240  16.338  66.801  1.00  0.00    -0.280 C  
HETATM   19  H   UNL     1     -11.328  17.613  65.777  1.00  0.00     0.000 HD 
HETATM   20  O   UNL     1     -10.534  17.112  65.629  1.00  0.00    -0.541 OA 
BRANCH  18  21
HETATM   21  C   UNL     1     -11.467  15.465  67.129  1.00  0.00    -0.133 C  
BRANCH  21  22
HETATM   22  N   UNL     1     -12.117  15.820  68.396  1.00  0.00    -0.406 NA 
HETATM   23  C   UNL     1     -11.713  15.000  69.559  1.00  0.00    -0.322 C  
HETATM   24  H   UNL     1     -13.131  15.801  68.289  1.00  0.00     0.000 HD 
HETATM   25  C   UNL     1     -12.564  15.469  70.755  1.00  0.00    -0.505 C  
HETATM   26  C   UNL     1     -10.233  15.215  69.919  1.00  0.00    -0.178 C  
HETATM   27  C   UNL     1     -11.988  13.506  69.326  1.00  0.00    -0.378 C  
ENDBRANCH  21  22
ENDBRANCH  18  21
ENDBRANCH  17  18
ENDBRANCH  16  17
ENDBRANCH  13  16
BRANCH  15  28
HETATM   28  C   UNL     1     -11.121  12.049  65.442  1.00  0.00    -0.320 C  
HETATM   29  O   UNL     1     -12.290  12.277  65.761  1.00  0.00    -0.622 OA 
HETATM   30  C   UNL     1     -10.776  11.802  63.998  1.00  0.00    -0.434 C  
ENDBRANCH  15  28
ENDBRANCH   8  10
ENDBRANCH   6   8
ENDBRANCH   3   6
ENDBRANCH   2   3
TORSDOF 11
ENDMDL
MODEL       69
REMARK 921   NORMALIZED FREE ENERGY PREDICTED BY IDOCK:   -5.15 KCAL/MOL
REMARK 922        TOTAL FREE ENERGY PREDICTED BY IDOCK:   -9.59 KCAL/MOL
REMARK 923 INTER-LIGAND FREE ENERGY PREDICTED BY IDOCK:   -8.38 KCAL/MOL
REMARK 924 INTRA-LIGAND FREE ENERGY PREDICTED BY IDOCK:   -1.21 KCAL/MOL
REMARK 927      BINDING AFFINITY PREDICTED BY RF-SCORE:    0.00 PKD
ROOT
HETATM    1  C   UNL     1     -10.699   6.682  69.510  1.00  0.00    -0.305 C  
HETATM    2  C   UNL     1     -11.019   5.851  70.744  1.00  0.00    -0.273 C  
ENDROOT
BRANCH   2   3
HETATM    3  N   UNL     1     -11.461   6.659  71.885  1.00  0.00    -0.276 N  
BRANCH   3   4
HETATM    4  C   UNL     1     -10.528   6.836  73.003  1.00  0.00    -0.254 C  
HETATM    5  C   UNL     1      -9.449   7.874  72.757  1.00  0.00    -0.304 C  
ENDBRANCH   3   4
BRANCH   3   6
HETATM    6  C   UNL     1     -12.653   7.367  71.732  1.00  0.00    -0.335 C  
HETATM    7  O   UNL     1     -13.599   6.915  71.089  1.00  0.00    -0.204 OA 
BRANCH   6   8
HETATM    8  N   UNL     1     -12.693   8.583  72.390  1.00  0.00    -0.516 N  
HETATM    9  H   UNL     1     -12.792   8.592  73.405  1.00  0.00     0.000 HD 
BRANCH   8  10
HETATM   10  C   UNL     1     -12.603   9.806  71.702  1.00  0.00    -0.416 A  
HETATM   11  C   UNL     1     -13.260  10.952  72.143  1.00  0.00    -0.333 A  
HETATM   12  C   UNL     1     -13.093  12.164  71.468  1.00  0.00    -0.357 A  
HETATM   13  C   UNL     1     -12.247  12.260  70.354  1.00  0.00    -0.288 A  
HETATM   14  C   UNL     1     -11.817   9.871  70.552  1.00  0.00    -0.350 A  
HETATM   15  C   UNL     1     -11.611  11.095  69.890  1.00  0.00    -0.416 A  
BRANCH  13  16
HETATM   16  O   UNL     1     -11.969  13.441  69.721  1.00  0.00    -0.309 OA 
BRANCH  16  17
HETATM   17  C   UNL     1     -12.089  14.649  70.490  1.00  0.00    -0.321 C  
BRANCH  17  18
HETATM   18  C   UNL     1     -11.835  15.854  69.573  1.00  0.00    -0.301 C  
HETATM   19  H   UNL     1     -10.605  17.385  69.548  1.00  0.00     0.000 HD 
HETATM   20  O   UNL     1     -10.762  16.639  70.116  1.00  0.00    -0.253 OA 
BRANCH  18  21
HETATM   21  C   UNL     1     -11.470  15.463  68.128  1.00  0.00    -0.343 C  
BRANCH  21  22
HETATM   22  N   UNL     1     -10.443  16.324  67.530  1.00  0.00    -0.297 NA 
HETATM   23  C   UNL     1      -9.575  15.664  66.531  1.00  0.00    -0.270 C  
HETATM   24  H   UNL     1      -9.874  16.753  68.261  1.00  0.00     0.000 HD 
HETATM   25  C   UNL     1      -8.523  16.702  66.097  1.00  0.00    -0.308 C  
HETATM   26  C   UNL     1     -10.367  15.242  65.281  1.00  0.00    -0.430 C  
HETATM   27  C   UNL     1      -8.841  14.451  67.125  1.00  0.00    -0.244 C  
ENDBRANCH  21  22
ENDBRANCH  18  21
ENDBRANCH  17  18
ENDBRANCH  16  17
ENDBRANCH  13  16
BRANCH  15  28
HETATM   28  C   UNL     1     -10.626  11.033  68.767  1.00  0.00    -0.202 C  
HETATM   29  O   UNL     1      -9.440  11.281  68.996  1.00  0.00    -0.135 OA 
HETATM   30  C   UNL     1     -11.048  10.622  67.383  1.00  0.00    -0.341 C  
ENDBRANCH  15  28
ENDBRANCH   8  10
ENDBRANCH   6   8
ENDBRANCH   3   6
ENDBRANCH   2   3
TORSDOF 11
ENDMDL
MODEL       70
REMARK 921   NORMALIZED FREE ENERGY PREDICTED BY IDOCK:   -5.15 KCAL/MOL
REMARK 922        TOTAL FREE ENERGY PREDICTED BY IDOCK:   -9.59 KCAL/MOL
REMARK 923 INTER-LIGAND FREE ENERGY PREDICTED BY IDOCK:   -8.46 KCAL/MOL
REMARK 924 INTRA-LIGAND FREE ENERGY PREDICTED BY IDOCK:   -1.13 KCAL/MOL
REMARK 927      BINDING AFFINITY PREDICTED BY RF-SCORE:    0.00 PKD
ROOT
HETATM    1  C   UNL     1     -10.839   6.701  69.772  1.00  0.00    -0.337 C  
HETATM    2  C   UNL     1      -9.497   6.897  69.080  1.00  0.00    -0.142 C  
ENDROOT
BRANCH   2   3
HETATM    3  N   UNL     1      -9.589   6.845  67.618  1.00  0.00    -0.125 N  
BRANCH   3   4
HETATM    4  C   UNL     1     -10.767   6.200  67.027  1.00  0.00    -0.350 C  
HETATM    5  C   UNL     1     -10.482   4.863  66.367  1.00  0.00    -0.325 C  
ENDBRANCH   3   4
BRANCH   3   6
HETATM    6  C   UNL     1      -8.655   7.592  66.900  1.00  0.00    -0.124 C  
HETATM    7  O   UNL     1      -7.513   7.779  67.318  1.00  0.00    -0.089 OA 
BRANCH   6   8
HETATM    8  N   UNL     1      -9.104   8.061  65.679  1.00  0.00    -0.383 N  
HETATM    9  H   UNL     1      -9.110   7.429  64.879  1.00  0.00     0.000 HD 
BRANCH   8  10
HETATM   10  C   UNL     1      -9.551   9.384  65.508  1.00  0.00    -0.258 A  
HETATM   11  C   UNL     1      -9.537  10.013  64.265  1.00  0.00    -0.301 A  
HETATM   12  C   UNL     1     -10.051  11.305  64.124  1.00  0.00    -0.373 A  
HETATM   13  C   UNL     1     -10.609  11.983  65.216  1.00  0.00    -0.287 A  
HETATM   14  C   UNL     1     -10.037  10.075  66.617  1.00  0.00    -0.289 A  
HETATM   15  C   UNL     1     -10.592  11.360  66.477  1.00  0.00    -0.309 A  
BRANCH  13  16
HETATM   16  O   UNL     1     -11.217  13.206  65.110  1.00  0.00    -0.288 OA 
BRANCH  16  17
HETATM   17  C   UNL     1     -10.369  14.360  64.998  1.00  0.00    -0.421 C  
BRANCH  17  18
HETATM   18  C   UNL     1     -11.167  15.509  64.368  1.00  0.00    -0.219 C  
HETATM   19  H   UNL     1     -13.025  15.806  63.803  1.00  0.00     0.000 HD 
HETATM   20  O   UNL     1     -12.530  15.094  64.193  1.00  0.00    -0.718 OA 
BRANCH  18  21
HETATM   21  C   UNL     1     -11.156  16.801  65.209  1.00  0.00     0.007 C  
BRANCH  21  22
HETATM   22  N   UNL     1      -9.846  17.106  65.796  1.00  0.00    -0.558 NA 
HETATM   23  C   UNL     1      -9.890  17.783  67.110  1.00  0.00    -0.311 C  
HETATM   24  H   UNL     1      -9.284  17.649  65.139  1.00  0.00     0.000 HD 
HETATM   25  C   UNL     1      -8.432  18.091  67.504  1.00  0.00    -0.237 C  
HETATM   26  C   UNL     1     -10.492  16.877  68.197  1.00  0.00    -0.350 C  
HETATM   27  C   UNL     1     -10.662  19.111  67.042  1.00  0.00    -0.542 C  
ENDBRANCH  21  22
ENDBRANCH  18  21
ENDBRANCH  17  18
ENDBRANCH  16  17
ENDBRANCH  13  16
BRANCH  15  28
HETATM   28  C   UNL     1     -11.207  11.909  67.724  1.00  0.00    -0.267 C  
HETATM   29  O   UNL     1     -12.263  11.425  68.134  1.00  0.00    -0.602 OA 
HETATM   30  C   UNL     1     -10.530  12.999  68.511  1.00  0.00    -0.261 C  
ENDBRANCH  15  28
ENDBRANCH   8  10
ENDBRANCH   6   8
ENDBRANCH   3   6
ENDBRANCH   2   3
TORSDOF 11
ENDMDL
MODEL       71
REMARK 921   NORMALIZED FREE ENERGY PREDICTED BY IDOCK:   -5.14 KCAL/MOL
REMARK 922        TOTAL FREE ENERGY PREDICTED BY IDOCK:   -9.58 KCAL/MOL
REMARK 923 INTER-LIGAND FREE ENERGY PREDICTED BY IDOCK:   -8.36 KCAL/MOL
REMARK 924 INTRA-LIGAND FREE ENERGY PREDICTED BY IDOCK:   -1.22 KCAL/MOL
REMARK 927      BINDING AFFINITY PREDICTED BY RF-SCORE:    0.00 PKD
ROOT
HETATM    1  C   UNL     1     -10.062  19.725  68.286  1.00  0.00    -0.575 C  
HETATM    2  C   UNL     1     -10.595  18.501  67.555  1.00  0.00    -0.423 C  
ENDROOT
BRANCH   2   3
HETATM    3  N   UNL     1     -10.075  17.238  68.090  1.00  0.00    -0.306 N  
BRANCH   3   4
HETATM    4  C   UNL     1      -8.743  16.805  67.656  1.00  0.00    -0.204 C  
HETATM    5  C   UNL     1      -8.724  16.090  66.318  1.00  0.00    -0.372 C  
ENDBRANCH   3   4
BRANCH   3   6
HETATM    6  C   UNL     1     -10.798  16.648  69.127  1.00  0.00    -0.315 C  
HETATM    7  O   UNL     1     -10.515  16.842  70.309  1.00  0.00     0.014 OA 
BRANCH   6   8
HETATM    8  N   UNL     1     -11.868  15.873  68.720  1.00  0.00    -0.467 N  
HETATM    9  H   UNL     1     -12.791  16.302  68.651  1.00  0.00     0.000 HD 
BRANCH   8  10
HETATM   10  C   UNL     1     -11.723  14.512  68.398  1.00  0.00    -0.333 A  
HETATM   11  C   UNL     1     -11.554  13.535  69.378  1.00  0.00    -0.369 A  
HETATM   12  C   UNL     1     -11.479  12.186  69.022  1.00  0.00    -0.351 A  
HETATM   13  C   UNL     1     -11.595  11.785  67.684  1.00  0.00    -0.294 A  
HETATM   14  C   UNL     1     -11.766  14.132  67.057  1.00  0.00    -0.430 A  
HETATM   15  C   UNL     1     -11.731  12.774  66.693  1.00  0.00    -0.459 A  
BRANCH  13  16
HETATM   16  O   UNL     1     -11.631  10.473  67.293  1.00  0.00    -0.327 OA 
BRANCH  16  17
HETATM   17  C   UNL     1     -10.928   9.520  68.107  1.00  0.00    -0.089 C  
BRANCH  17  18
HETATM   18  C   UNL     1      -9.992   8.693  67.215  1.00  0.00    -0.219 C  
HETATM   19  H   UNL     1      -8.124   8.090  67.290  1.00  0.00     0.000 HD 
HETATM   20  O   UNL     1      -8.704   8.602  67.842  1.00  0.00    -0.135 OA 
BRANCH  18  21
HETATM   21  C   UNL     1     -10.502   7.265  66.942  1.00  0.00    -0.299 C  
BRANCH  21  22
HETATM   22  N   UNL     1      -9.524   6.221  67.268  1.00  0.00    -0.117 NA 
HETATM   23  C   UNL     1      -9.227   5.275  66.171  1.00  0.00    -0.154 C  
HETATM   24  H   UNL     1      -9.818   5.711  68.102  1.00  0.00     0.000 HD 
HETATM   25  C   UNL     1      -8.259   4.220  66.740  1.00  0.00    -0.101 C  
HETATM   26  C   UNL     1      -8.527   5.973  64.992  1.00  0.00    -0.089 C  
HETATM   27  C   UNL     1     -10.494   4.554  65.681  1.00  0.00    -0.261 C  
ENDBRANCH  21  22
ENDBRANCH  18  21
ENDBRANCH  17  18
ENDBRANCH  16  17
ENDBRANCH  13  16
BRANCH  15  28
HETATM   28  C   UNL     1     -11.939  12.517  65.235  1.00  0.00    -0.438 C  
HETATM   29  O   UNL     1     -13.087  12.493  64.788  1.00  0.00    -0.853 OA 
HETATM   30  C   UNL     1     -10.770  12.346  64.302  1.00  0.00    -0.390 C  
ENDBRANCH  15  28
ENDBRANCH   8  10
ENDBRANCH   6   8
ENDBRANCH   3   6
ENDBRANCH   2   3
TORSDOF 11
ENDMDL
MODEL       72
REMARK 921   NORMALIZED FREE ENERGY PREDICTED BY IDOCK:   -5.13 KCAL/MOL
REMARK 922        TOTAL FREE ENERGY PREDICTED BY IDOCK:   -9.57 KCAL/MOL
REMARK 923 INTER-LIGAND FREE ENERGY PREDICTED BY IDOCK:   -8.43 KCAL/MOL
REMARK 924 INTRA-LIGAND FREE ENERGY PREDICTED BY IDOCK:   -1.13 KCAL/MOL
REMARK 927      BINDING AFFINITY PREDICTED BY RF-SCORE:    0.00 PKD
ROOT
HETATM    1  C   UNL     1      -6.574  19.843  69.098  1.00  0.00    -0.368 C  
HETATM    2  C   UNL     1      -7.597  18.746  68.840  1.00  0.00    -0.278 C  
ENDROOT
BRANCH   2   3
HETATM    3  N   UNL     1      -8.146  18.778  67.481  1.00  0.00    -0.254 N  
BRANCH   3   4
HETATM    4  C   UNL     1      -7.263  18.393  66.374  1.00  0.00    -0.243 C  
HETATM    5  C   UNL     1      -6.611  17.033  66.539  1.00  0.00    -0.254 C  
ENDBRANCH   3   4
BRANCH   3   6
HETATM    6  C   UNL     1      -9.522  18.972  67.361  1.00  0.00    -0.301 C  
HETATM    7  O   UNL     1     -10.087  19.945  67.859  1.00  0.00    -0.395 OA 
BRANCH   6   8
HETATM    8  N   UNL     1     -10.179  18.013  66.612  1.00  0.00    -0.356 N  
HETATM    9  H   UNL     1     -10.409  18.217  65.640  1.00  0.00     0.000 HD 
BRANCH   8  10
HETATM   10  C   UNL     1     -10.541  16.765  67.151  1.00  0.00    -0.256 A  
HETATM   11  C   UNL     1     -10.184  15.565  66.540  1.00  0.00    -0.291 A  
HETATM   12  C   UNL     1     -10.506  14.345  67.142  1.00  0.00    -0.263 A  
HETATM   13  C   UNL     1     -11.169  14.301  68.375  1.00  0.00    -0.269 A  
HETATM   14  C   UNL     1     -11.266  16.734  68.342  1.00  0.00    -0.176 A  
HETATM   15  C   UNL     1     -11.559  15.512  68.974  1.00  0.00    -0.377 A  
BRANCH  13  16
HETATM   16  O   UNL     1     -11.416  13.138  69.055  1.00  0.00    -0.260 OA 
BRANCH  16  17
HETATM   17  C   UNL     1     -10.525  12.035  68.826  1.00  0.00    -0.183 C  
BRANCH  17  18
HETATM   18  C   UNL     1     -11.333  10.730  68.823  1.00  0.00    -0.288 C  
HETATM   19  H   UNL     1     -11.536   9.189  67.622  1.00  0.00     0.000 HD 
HETATM   20  O   UNL     1     -11.036   9.997  67.624  1.00  0.00    -0.290 OA 
BRANCH  18  21
HETATM   21  C   UNL     1     -11.043   9.822  70.034  1.00  0.00    -0.267 C  
BRANCH  21  22
HETATM   22  N   UNL     1     -12.044   8.767  70.228  1.00  0.00    -0.366 NA 
HETATM   23  C   UNL     1     -12.433   8.523  71.633  1.00  0.00    -0.330 C  
HETATM   24  H   UNL     1     -11.730   7.899  69.794  1.00  0.00     0.000 HD 
HETATM   25  C   UNL     1     -13.413   7.334  71.627  1.00  0.00    -0.428 C  
HETATM   26  C   UNL     1     -13.162   9.734  72.241  1.00  0.00    -0.468 C  
HETATM   27  C   UNL     1     -11.222   8.146  72.502  1.00  0.00    -0.459 C  
ENDBRANCH  21  22
ENDBRANCH  18  21
ENDBRANCH  17  18
ENDBRANCH  16  17
ENDBRANCH  13  16
BRANCH  15  28
HETATM   28  C   UNL     1     -12.205  15.648  70.315  1.00  0.00    -0.386 C  
HETATM   29  O   UNL     1     -13.329  15.173  70.490  1.00  0.00    -0.286 OA 
HETATM   30  C   UNL     1     -11.485  16.303  71.464  1.00  0.00    -0.344 C  
ENDBRANCH  15  28
ENDBRANCH   8  10
ENDBRANCH   6   8
ENDBRANCH   3   6
ENDBRANCH   2   3
TORSDOF 11
ENDMDL
MODEL       73
REMARK 921   NORMALIZED FREE ENERGY PREDICTED BY IDOCK:   -5.13 KCAL/MOL
REMARK 922        TOTAL FREE ENERGY PREDICTED BY IDOCK:   -9.56 KCAL/MOL
REMARK 923 INTER-LIGAND FREE ENERGY PREDICTED BY IDOCK:   -8.50 KCAL/MOL
REMARK 924 INTRA-LIGAND FREE ENERGY PREDICTED BY IDOCK:   -1.07 KCAL/MOL
REMARK 927      BINDING AFFINITY PREDICTED BY RF-SCORE:    0.00 PKD
ROOT
HETATM    1  C   UNL     1      -6.473  20.105  66.218  1.00  0.00    -0.230 C  
HETATM    2  C   UNL     1      -7.994  20.129  66.289  1.00  0.00    -0.242 C  
ENDROOT
BRANCH   2   3
HETATM    3  N   UNL     1      -8.543  19.144  67.227  1.00  0.00    -0.279 N  
BRANCH   3   4
HETATM    4  C   UNL     1      -7.762  18.830  68.428  1.00  0.00    -0.315 C  
HETATM    5  C   UNL     1      -7.211  17.417  68.464  1.00  0.00    -0.230 C  
ENDBRANCH   3   4
BRANCH   3   6
HETATM    6  C   UNL     1      -9.858  18.733  67.010  1.00  0.00    -0.325 C  
HETATM    7  O   UNL     1     -10.813  19.482  67.206  1.00  0.00    -0.493 OA 
BRANCH   6   8
HETATM    8  N   UNL     1      -9.990  17.444  66.526  1.00  0.00    -0.298 N  
HETATM    9  H   UNL     1      -9.662  17.235  65.583  1.00  0.00     0.000 HD 
BRANCH   8  10
HETATM   10  C   UNL     1     -10.561  16.414  67.294  1.00  0.00    -0.293 A  
HETATM   11  C   UNL     1     -10.839  16.571  68.650  1.00  0.00    -0.345 A  
HETATM   12  C   UNL     1     -11.468  15.547  69.364  1.00  0.00    -0.345 A  
HETATM   13  C   UNL     1     -11.852  14.357  68.732  1.00  0.00    -0.325 A  
HETATM   14  C   UNL     1     -10.872  15.206  66.671  1.00  0.00    -0.318 A  
HETATM   15  C   UNL     1     -11.540  14.186  67.371  1.00  0.00    -0.399 A  
BRANCH  13  16
HETATM   16  O   UNL     1     -12.560  13.367  69.359  1.00  0.00    -0.042 OA 
BRANCH  16  17
HETATM   17  C   UNL     1     -12.775  13.501  70.774  1.00  0.00    -0.245 C  
BRANCH  17  18
HETATM   18  C   UNL     1     -12.490  12.155  71.454  1.00  0.00    -0.117 C  
HETATM   19  H   UNL     1     -13.456  10.938  72.655  1.00  0.00     0.000 HD 
HETATM   20  O   UNL     1     -13.633  11.772  72.234  1.00  0.00    -0.328 OA 
BRANCH  18  21
HETATM   21  C   UNL     1     -12.173  11.019  70.463  1.00  0.00    -0.381 C  
BRANCH  21  22
HETATM   22  N   UNL     1     -10.741  10.875  70.175  1.00  0.00    -0.440 NA 
HETATM   23  C   UNL     1     -10.197   9.513  70.366  1.00  0.00    -0.279 C  
HETATM   24  H   UNL     1     -10.203  11.548  70.722  1.00  0.00     0.000 HD 
HETATM   25  C   UNL     1      -8.681   9.596  70.101  1.00  0.00    -0.263 C  
HETATM   26  C   UNL     1     -10.798   8.515  69.361  1.00  0.00    -0.103 C  
HETATM   27  C   UNL     1     -10.410   9.009  71.802  1.00  0.00    -0.407 C  
ENDBRANCH  21  22
ENDBRANCH  18  21
ENDBRANCH  17  18
ENDBRANCH  16  17
ENDBRANCH  13  16
BRANCH  15  28
HETATM   28  C   UNL     1     -11.939  13.016  66.531  1.00  0.00    -0.391 C  
HETATM   29  O   UNL     1     -11.749  11.876  66.960  1.00  0.00    -0.538 OA 
HETATM   30  C   UNL     1     -12.616  13.208  65.200  1.00  0.00    -0.525 C  
ENDBRANCH  15  28
ENDBRANCH   8  10
ENDBRANCH   6   8
ENDBRANCH   3   6
ENDBRANCH   2   3
TORSDOF 11
ENDMDL
MODEL       74
REMARK 921   NORMALIZED FREE ENERGY PREDICTED BY IDOCK:   -5.13 KCAL/MOL
REMARK 922        TOTAL FREE ENERGY PREDICTED BY IDOCK:   -9.56 KCAL/MOL
REMARK 923 INTER-LIGAND FREE ENERGY PREDICTED BY IDOCK:   -8.41 KCAL/MOL
REMARK 924 INTRA-LIGAND FREE ENERGY PREDICTED BY IDOCK:   -1.15 KCAL/MOL
REMARK 927      BINDING AFFINITY PREDICTED BY RF-SCORE:    0.00 PKD
ROOT
HETATM    1  C   UNL     1     -12.352  13.458  63.384  1.00  0.00    -0.343 C  
HETATM    2  C   UNL     1     -12.139  11.986  63.711  1.00  0.00    -0.499 C  
ENDROOT
BRANCH   2   3
HETATM    3  N   UNL     1     -10.762  11.678  64.112  1.00  0.00    -0.332 N  
BRANCH   3   4
HETATM    4  C   UNL     1      -9.774  11.449  63.053  1.00  0.00    -0.371 C  
HETATM    5  C   UNL     1      -9.243  10.028  62.991  1.00  0.00    -0.313 C  
ENDBRANCH   3   4
BRANCH   3   6
HETATM    6  C   UNL     1     -10.451  11.830  65.463  1.00  0.00    -0.267 C  
HETATM    7  O   UNL     1     -11.060  11.222  66.343  1.00  0.00    -0.276 OA 
BRANCH   6   8
HETATM    8  N   UNL     1      -9.388  12.676  65.721  1.00  0.00    -0.456 N  
HETATM    9  H   UNL     1      -8.447  12.381  65.463  1.00  0.00     0.000 HD 
BRANCH   8  10
HETATM   10  C   UNL     1      -9.566  13.932  66.330  1.00  0.00    -0.256 A  
HETATM   11  C   UNL     1     -10.721  14.687  66.140  1.00  0.00    -0.314 A  
HETATM   12  C   UNL     1     -10.889  15.900  66.814  1.00  0.00    -0.228 A  
HETATM   13  C   UNL     1      -9.917  16.370  67.707  1.00  0.00    -0.248 A  
HETATM   14  C   UNL     1      -8.560  14.424  67.160  1.00  0.00    -0.237 A  
HETATM   15  C   UNL     1      -8.737  15.623  67.872  1.00  0.00    -0.166 A  
BRANCH  13  16
HETATM   16  O   UNL     1     -10.078  17.497  68.468  1.00  0.00    -0.319 OA 
BRANCH  16  17
HETATM   17  C   UNL     1     -10.614  18.662  67.821  1.00  0.00    -0.385 C  
BRANCH  17  18
HETATM   18  C   UNL     1      -9.800  18.951  66.553  1.00  0.00    -0.368 C  
HETATM   19  H   UNL     1     -10.128  19.819  64.821  1.00  0.00     0.000 HD 
HETATM   20  O   UNL     1     -10.632  19.640  65.607  1.00  0.00    -0.503 OA 
BRANCH  18  21
HETATM   21  C   UNL     1      -8.543  19.804  66.808  1.00  0.00    -0.327 C  
BRANCH  21  22
HETATM   22  N   UNL     1      -7.969  20.381  65.587  1.00  0.00    -0.499 NA 
HETATM   23  C   UNL     1      -6.530  20.109  65.381  1.00  0.00    -0.265 C  
HETATM   24  H   UNL     1      -8.144  21.385  65.555  1.00  0.00     0.000 HD 
HETATM   25  C   UNL     1      -6.108  20.867  64.107  1.00  0.00    -0.356 C  
HETATM   26  C   UNL     1      -6.261  18.612  65.151  1.00  0.00    -0.285 C  
HETATM   27  C   UNL     1      -5.679  20.624  66.553  1.00  0.00    -0.222 C  
ENDBRANCH  21  22
ENDBRANCH  18  21
ENDBRANCH  17  18
ENDBRANCH  16  17
ENDBRANCH  13  16
BRANCH  15  28
HETATM   28  C   UNL     1      -7.637  15.941  68.834  1.00  0.00    -0.190 C  
HETATM   29  O   UNL     1      -7.475  15.218  69.819  1.00  0.00    -0.201 OA 
HETATM   30  C   UNL     1      -6.696  17.090  68.588  1.00  0.00    -0.182 C  
ENDBRANCH  15  28
ENDBRANCH   8  10
ENDBRANCH   6   8
ENDBRANCH   3   6
ENDBRANCH   2   3
TORSDOF 11
ENDMDL
MODEL       75
REMARK 921   NORMALIZED FREE ENERGY PREDICTED BY IDOCK:   -5.13 KCAL/MOL
REMARK 922        TOTAL FREE ENERGY PREDICTED BY IDOCK:   -9.56 KCAL/MOL
REMARK 923 INTER-LIGAND FREE ENERGY PREDICTED BY IDOCK:   -8.10 KCAL/MOL
REMARK 924 INTRA-LIGAND FREE ENERGY PREDICTED BY IDOCK:   -1.46 KCAL/MOL
REMARK 927      BINDING AFFINITY PREDICTED BY RF-SCORE:    0.00 PKD
ROOT
HETATM    1  C   UNL     1      -8.230  14.361  67.145  1.00  0.00    -0.202 C  
HETATM    2  C   UNL     1      -8.817  15.651  66.589  1.00  0.00    -0.292 C  
ENDROOT
BRANCH   2   3
HETATM    3  N   UNL     1     -10.257  15.782  66.835  1.00  0.00    -0.274 N  
BRANCH   3   4
HETATM    4  C   UNL     1     -10.707  16.872  67.707  1.00  0.00    -0.315 C  
HETATM    5  C   UNL     1      -9.587  17.602  68.425  1.00  0.00    -0.310 C  
ENDBRANCH   3   4
BRANCH   3   6
HETATM    6  C   UNL     1     -11.104  14.990  66.060  1.00  0.00    -0.329 C  
HETATM    7  O   UNL     1     -10.910  14.815  64.858  1.00  0.00    -0.389 OA 
BRANCH   6   8
HETATM    8  N   UNL     1     -12.139  14.395  66.757  1.00  0.00    -0.458 N  
HETATM    9  H   UNL     1     -13.100  14.642  66.520  1.00  0.00     0.000 HD 
BRANCH   8  10
HETATM   10  C   UNL     1     -11.908  13.461  67.782  1.00  0.00    -0.358 A  
HETATM   11  C   UNL     1     -12.261  13.714  69.106  1.00  0.00    -0.265 A  
HETATM   12  C   UNL     1     -12.074  12.734  70.085  1.00  0.00    -0.370 A  
HETATM   13  C   UNL     1     -11.552  11.475  69.756  1.00  0.00    -0.326 A  
HETATM   14  C   UNL     1     -11.320  12.239  67.456  1.00  0.00    -0.388 A  
HETATM   15  C   UNL     1     -11.165  11.233  68.426  1.00  0.00    -0.324 A  
BRANCH  13  16
HETATM   16  O   UNL     1     -11.445  10.448  70.655  1.00  0.00    -0.317 OA 
BRANCH  16  17
HETATM   17  C   UNL     1     -12.585  10.172  71.485  1.00  0.00    -0.434 C  
BRANCH  17  18
HETATM   18  C   UNL     1     -12.400   8.802  72.151  1.00  0.00    -0.389 C  
HETATM   19  H   UNL     1     -12.963   6.956  71.785  1.00  0.00     0.000 HD 
HETATM   20  O   UNL     1     -13.078   7.805  71.372  1.00  0.00    -0.321 OA 
BRANCH  18  21
HETATM   21  C   UNL     1     -10.924   8.384  72.301  1.00  0.00    -0.361 C  
BRANCH  21  22
HETATM   22  N   UNL     1     -10.397   7.669  71.132  1.00  0.00    -0.200 NA 
HETATM   23  C   UNL     1      -9.689   6.407  71.436  1.00  0.00    -0.172 C  
HETATM   24  H   UNL     1      -9.797   8.286  70.584  1.00  0.00     0.000 HD 
HETATM   25  C   UNL     1      -9.143   5.867  70.100  1.00  0.00    -0.155 C  
HETATM   26  C   UNL     1     -10.639   5.348  72.022  1.00  0.00    -0.284 C  
HETATM   27  C   UNL     1      -8.501   6.634  72.386  1.00  0.00    -0.117 C  
ENDBRANCH  21  22
ENDBRANCH  18  21
ENDBRANCH  17  18
ENDBRANCH  16  17
ENDBRANCH  13  16
BRANCH  15  28
HETATM   28  C   UNL     1     -10.662   9.930  67.893  1.00  0.00    -0.265 C  
HETATM   29  O   UNL     1     -10.780   8.915  68.581  1.00  0.00    -0.178 OA 
HETATM   30  C   UNL     1     -10.068   9.831  66.513  1.00  0.00    -0.307 C  
ENDBRANCH  15  28
ENDBRANCH   8  10
ENDBRANCH   6   8
ENDBRANCH   3   6
ENDBRANCH   2   3
TORSDOF 11
ENDMDL
MODEL       76
REMARK 921   NORMALIZED FREE ENERGY PREDICTED BY IDOCK:   -5.06 KCAL/MOL
REMARK 922        TOTAL FREE ENERGY PREDICTED BY IDOCK:   -9.45 KCAL/MOL
REMARK 923 INTER-LIGAND FREE ENERGY PREDICTED BY IDOCK:   -7.82 KCAL/MOL
REMARK 924 INTRA-LIGAND FREE ENERGY PREDICTED BY IDOCK:   -1.63 KCAL/MOL
REMARK 927      BINDING AFFINITY PREDICTED BY RF-SCORE:    0.00 PKD
ROOT
HETATM    1  C   UNL     1     -11.833  15.726  69.552  1.00  0.00    -0.359 C  
HETATM    2  C   UNL     1     -11.883  14.377  70.256  1.00  0.00    -0.313 C  
ENDROOT
BRANCH   2   3
HETATM    3  N   UNL     1     -12.764  14.371  71.429  1.00  0.00    -0.322 N  
BRANCH   3   4
HETATM    4  C   UNL     1     -13.082  15.659  72.055  1.00  0.00    -0.459 C  
HETATM    5  C   UNL     1     -12.354  15.914  73.362  1.00  0.00    -0.647 C  
ENDBRANCH   3   4
BRANCH   3   6
HETATM    6  C   UNL     1     -13.398  13.167  71.735  1.00  0.00    -0.389 C  
HETATM    7  O   UNL     1     -14.157  13.059  72.697  1.00  0.00    -0.643 OA 
BRANCH   6   8
HETATM    8  N   UNL     1     -13.136  12.134  70.854  1.00  0.00     0.038 N  
HETATM    9  H   UNL     1     -13.285  12.286  69.856  1.00  0.00     0.000 HD 
BRANCH   8  10
HETATM   10  C   UNL     1     -12.671  10.881  71.292  1.00  0.00    -0.437 A  
HETATM   11  C   UNL     1     -13.446  10.045  72.092  1.00  0.00    -0.420 A  
HETATM   12  C   UNL     1     -12.974   8.779  72.452  1.00  0.00    -0.442 A  
HETATM   13  C   UNL     1     -11.731   8.316  72.000  1.00  0.00    -0.346 A  
HETATM   14  C   UNL     1     -11.402  10.461  70.896  1.00  0.00    -0.307 A  
HETATM   15  C   UNL     1     -10.936   9.175  71.220  1.00  0.00    -0.400 A  
BRANCH  13  16
HETATM   16  O   UNL     1     -11.269   7.050  72.238  1.00  0.00    -0.246 OA 
BRANCH  16  17
HETATM   17  C   UNL     1     -10.763   6.765  73.553  1.00  0.00    -0.292 C  
BRANCH  17  18
HETATM   18  C   UNL     1     -10.225   5.328  73.583  1.00  0.00    -0.210 C  
HETATM   19  H   UNL     1     -10.816   3.605  74.318  1.00  0.00     0.000 HD 
HETATM   20  O   UNL     1     -11.149   4.495  74.300  1.00  0.00    -0.277 OA 
BRANCH  18  21
HETATM   21  C   UNL     1     -10.008   4.722  72.183  1.00  0.00    -0.179 C  
BRANCH  21  22
HETATM   22  N   UNL     1      -8.933   5.372  71.423  1.00  0.00    -0.137 NA 
HETATM   23  C   UNL     1      -8.755   4.878  70.041  1.00  0.00    -0.094 C  
HETATM   24  H   UNL     1      -8.053   5.308  71.935  1.00  0.00     0.000 HD 
HETATM   25  C   UNL     1      -7.536   5.616  69.455  1.00  0.00    -0.071 C  
HETATM   26  C   UNL     1      -9.973   5.204  69.159  1.00  0.00    -0.273 C  
HETATM   27  C   UNL     1      -8.468   3.368  70.007  1.00  0.00    -0.094 C  
ENDBRANCH  21  22
ENDBRANCH  18  21
ENDBRANCH  17  18
ENDBRANCH  16  17
ENDBRANCH  13  16
BRANCH  15  28
HETATM   28  C   UNL     1      -9.625   8.816  70.599  1.00  0.00    -0.199 C  
HETATM   29  O   UNL     1      -8.691   8.470  71.325  1.00  0.00    -0.148 OA 
HETATM   30  C   UNL     1      -9.446   8.816  69.104  1.00  0.00    -0.157 C  
ENDBRANCH  15  28
ENDBRANCH   8  10
ENDBRANCH   6   8
ENDBRANCH   3   6
ENDBRANCH   2   3
TORSDOF 11
ENDMDL
MODEL       77
REMARK 921   NORMALIZED FREE ENERGY PREDICTED BY IDOCK:   -5.06 KCAL/MOL
REMARK 922        TOTAL FREE ENERGY PREDICTED BY IDOCK:   -9.44 KCAL/MOL
REMARK 923 INTER-LIGAND FREE ENERGY PREDICTED BY IDOCK:   -8.47 KCAL/MOL
REMARK 924 INTRA-LIGAND FREE ENERGY PREDICTED BY IDOCK:   -0.98 KCAL/MOL
REMARK 927      BINDING AFFINITY PREDICTED BY RF-SCORE:    0.00 PKD
ROOT
HETATM    1  C   UNL     1     -11.059   6.404  69.664  1.00  0.00    -0.465 C  
HETATM    2  C   UNL     1     -12.088   6.862  70.688  1.00  0.00    -0.311 C  
ENDROOT
BRANCH   2   3
HETATM    3  N   UNL     1     -11.609   7.961  71.534  1.00  0.00    -0.263 N  
BRANCH   3   4
HETATM    4  C   UNL     1     -11.399   7.688  72.960  1.00  0.00    -0.280 C  
HETATM    5  C   UNL     1     -10.006   7.192  73.301  1.00  0.00    -0.296 C  
ENDBRANCH   3   4
BRANCH   3   6
HETATM    6  C   UNL     1     -11.195   9.123  70.883  1.00  0.00    -0.295 C  
HETATM    7  O   UNL     1     -10.016   9.473  70.866  1.00  0.00    -0.284 OA 
BRANCH   6   8
HETATM    8  N   UNL     1     -12.202   9.814  70.234  1.00  0.00    -0.481 N  
HETATM    9  H   UNL     1     -13.084   9.339  70.044  1.00  0.00     0.000 HD 
BRANCH   8  10
HETATM   10  C   UNL     1     -12.045  11.151  69.828  1.00  0.00    -0.344 A  
HETATM   11  C   UNL     1     -11.648  11.490  68.537  1.00  0.00    -0.377 A  
HETATM   12  C   UNL     1     -11.567  12.831  68.153  1.00  0.00    -0.380 A  
HETATM   13  C   UNL     1     -11.905  13.859  69.044  1.00  0.00    -0.358 A  
HETATM   14  C   UNL     1     -12.314  12.166  70.747  1.00  0.00    -0.391 A  
HETATM   15  C   UNL     1     -12.274  13.517  70.358  1.00  0.00    -0.426 A  
BRANCH  13  16
HETATM   16  O   UNL     1     -11.942  15.181  68.689  1.00  0.00    -0.315 OA 
BRANCH  16  17
HETATM   17  C   UNL     1     -11.013  15.623  67.686  1.00  0.00    -0.315 C  
BRANCH  17  18
HETATM   18  C   UNL     1     -10.281  16.871  68.197  1.00  0.00    -0.311 C  
HETATM   19  H   UNL     1     -10.448  18.088  69.729  1.00  0.00     0.000 HD 
HETATM   20  O   UNL     1     -10.902  17.316  69.412  1.00  0.00    -0.152 OA 
BRANCH  18  21
HETATM   21  C   UNL     1      -8.783  16.637  68.472  1.00  0.00    -0.242 C  
BRANCH  21  22
HETATM   22  N   UNL     1      -7.898  17.466  67.645  1.00  0.00    -0.189 NA 
HETATM   23  C   UNL     1      -6.452  17.273  67.885  1.00  0.00    -0.153 C  
HETATM   24  H   UNL     1      -8.143  18.451  67.746  1.00  0.00     0.000 HD 
HETATM   25  C   UNL     1      -5.711  18.287  66.992  1.00  0.00    -0.159 C  
HETATM   26  C   UNL     1      -5.992  15.861  67.481  1.00  0.00    -0.162 C  
HETATM   27  C   UNL     1      -6.075  17.552  69.349  1.00  0.00    -0.245 C  
ENDBRANCH  21  22
ENDBRANCH  18  21
ENDBRANCH  17  18
ENDBRANCH  16  17
ENDBRANCH  13  16
BRANCH  15  28
HETATM   28  C   UNL     1     -12.732  14.478  71.408  1.00  0.00    -0.337 C  
HETATM   29  O   UNL     1     -13.940  14.626  71.599  1.00  0.00    -0.396 OA 
HETATM   30  C   UNL     1     -11.744  15.220  72.268  1.00  0.00    -0.539 C  
ENDBRANCH  15  28
ENDBRANCH   8  10
ENDBRANCH   6   8
ENDBRANCH   3   6
ENDBRANCH   2   3
TORSDOF 11
ENDMDL
MODEL       78
REMARK 921   NORMALIZED FREE ENERGY PREDICTED BY IDOCK:   -5.04 KCAL/MOL
REMARK 922        TOTAL FREE ENERGY PREDICTED BY IDOCK:   -9.42 KCAL/MOL
REMARK 923 INTER-LIGAND FREE ENERGY PREDICTED BY IDOCK:   -8.18 KCAL/MOL
REMARK 924 INTRA-LIGAND FREE ENERGY PREDICTED BY IDOCK:   -1.24 KCAL/MOL
REMARK 927      BINDING AFFINITY PREDICTED BY RF-SCORE:    0.00 PKD
ROOT
HETATM    1  C   UNL     1     -10.969   5.833  69.738  1.00  0.00    -0.397 C  
HETATM    2  C   UNL     1     -10.113   6.588  70.745  1.00  0.00    -0.185 C  
ENDROOT
BRANCH   2   3
HETATM    3  N   UNL     1     -10.378   8.031  70.760  1.00  0.00    -0.198 N  
BRANCH   3   4
HETATM    4  C   UNL     1     -10.741   8.649  72.039  1.00  0.00    -0.357 C  
HETATM    5  C   UNL     1     -10.886   7.668  73.188  1.00  0.00    -0.440 C  
ENDBRANCH   3   4
BRANCH   3   6
HETATM    6  C   UNL     1     -10.063   8.741  69.601  1.00  0.00    -0.204 C  
HETATM    7  O   UNL     1      -8.901   8.887  69.224  1.00  0.00    -0.136 OA 
BRANCH   6   8
HETATM    8  N   UNL     1     -11.155   9.223  68.903  1.00  0.00    -0.447 N  
HETATM    9  H   UNL     1     -11.932   8.593  68.704  1.00  0.00     0.000 HD 
BRANCH   8  10
HETATM   10  C   UNL     1     -11.226  10.556  68.459  1.00  0.00    -0.274 A  
HETATM   11  C   UNL     1     -11.068  10.898  67.118  1.00  0.00    -0.308 A  
HETATM   12  C   UNL     1     -11.211  12.226  66.708  1.00  0.00    -0.371 A  
HETATM   13  C   UNL     1     -11.538  13.234  67.625  1.00  0.00    -0.346 A  
HETATM   14  C   UNL     1     -11.480  11.560  69.393  1.00  0.00    -0.376 A  
HETATM   15  C   UNL     1     -11.665  12.893  68.983  1.00  0.00    -0.375 A  
BRANCH  13  16
HETATM   16  O   UNL     1     -11.790  14.529  67.260  1.00  0.00    -0.394 OA 
BRANCH  16  17
HETATM   17  C   UNL     1     -11.366  14.943  65.951  1.00  0.00    -0.306 C  
BRANCH  17  18
HETATM   18  C   UNL     1     -10.458  16.172  66.083  1.00  0.00    -0.325 C  
HETATM   19  H   UNL     1     -10.220  17.630  67.379  1.00  0.00     0.000 HD 
HETATM   20  O   UNL     1     -10.783  16.868  67.296  1.00  0.00    -0.297 OA 
BRANCH  18  21
HETATM   21  C   UNL     1      -8.955  15.829  66.106  1.00  0.00    -0.337 C  
BRANCH  21  22
HETATM   22  N   UNL     1      -8.676  14.449  66.521  1.00  0.00    -0.460 NA 
HETATM   23  C   UNL     1      -7.837  14.316  67.731  1.00  0.00    -0.165 C  
HETATM   24  H   UNL     1      -8.264  13.926  65.748  1.00  0.00     0.000 HD 
HETATM   25  C   UNL     1      -7.591  12.809  67.942  1.00  0.00    -0.138 C  
HETATM   26  C   UNL     1      -8.551  14.858  68.981  1.00  0.00    -0.170 C  
HETATM   27  C   UNL     1      -6.475  15.008  67.559  1.00  0.00    -0.121 C  
ENDBRANCH  21  22
ENDBRANCH  18  21
ENDBRANCH  17  18
ENDBRANCH  16  17
ENDBRANCH  13  16
BRANCH  15  28
HETATM   28  C   UNL     1     -12.079  13.825  70.076  1.00  0.00    -0.349 C  
HETATM   29  O   UNL     1     -12.307  13.370  71.198  1.00  0.00    -0.349 OA 
HETATM   30  C   UNL     1     -12.165  15.309  69.842  1.00  0.00    -0.357 C  
ENDBRANCH  15  28
ENDBRANCH   8  10
ENDBRANCH   6   8
ENDBRANCH   3   6
ENDBRANCH   2   3
TORSDOF 11
ENDMDL
MODEL       79
REMARK 921   NORMALIZED FREE ENERGY PREDICTED BY IDOCK:   -5.04 KCAL/MOL
REMARK 922        TOTAL FREE ENERGY PREDICTED BY IDOCK:   -9.41 KCAL/MOL
REMARK 923 INTER-LIGAND FREE ENERGY PREDICTED BY IDOCK:   -7.86 KCAL/MOL
REMARK 924 INTRA-LIGAND FREE ENERGY PREDICTED BY IDOCK:   -1.55 KCAL/MOL
REMARK 927      BINDING AFFINITY PREDICTED BY RF-SCORE:    0.00 PKD
ROOT
HETATM    1  C   UNL     1     -12.829  12.065  63.415  1.00  0.00    -0.427 C  
HETATM    2  C   UNL     1     -11.513  12.794  63.651  1.00  0.00    -0.481 C  
ENDROOT
BRANCH   2   3
HETATM    3  N   UNL     1     -10.709  12.198  64.723  1.00  0.00    -0.288 N  
BRANCH   3   4
HETATM    4  C   UNL     1      -9.817  11.087  64.376  1.00  0.00    -0.298 C  
HETATM    5  C   UNL     1      -9.296  11.127  62.951  1.00  0.00    -0.385 C  
ENDBRANCH   3   4
BRANCH   3   6
HETATM    6  C   UNL     1     -10.699  12.865  65.948  1.00  0.00    -0.271 C  
HETATM    7  O   UNL     1      -9.878  13.746  66.202  1.00  0.00    -0.294 OA 
BRANCH   6   8
HETATM    8  N   UNL     1     -11.701  12.485  66.823  1.00  0.00    -0.386 N  
HETATM    9  H   UNL     1     -12.656  12.794  66.644  1.00  0.00     0.000 HD 
BRANCH   8  10
HETATM   10  C   UNL     1     -11.441  11.686  67.951  1.00  0.00    -0.311 A  
HETATM   11  C   UNL     1     -11.883  12.040  69.224  1.00  0.00    -0.377 A  
HETATM   12  C   UNL     1     -11.662  11.187  70.309  1.00  0.00    -0.431 A  
HETATM   13  C   UNL     1     -11.017   9.954  70.139  1.00  0.00    -0.301 A  
HETATM   14  C   UNL     1     -10.734  10.497  67.781  1.00  0.00    -0.319 A  
HETATM   15  C   UNL     1     -10.541   9.614  68.859  1.00  0.00    -0.239 A  
BRANCH  13  16
HETATM   16  O   UNL     1     -10.867   9.039  71.146  1.00  0.00    -0.245 OA 
BRANCH  16  17
HETATM   17  C   UNL     1     -12.049   8.637  71.857  1.00  0.00    -0.356 C  
BRANCH  17  18
HETATM   18  C   UNL     1     -12.156   7.106  71.825  1.00  0.00    -0.328 C  
HETATM   19  H   UNL     1     -12.186   5.713  70.441  1.00  0.00     0.000 HD 
HETATM   20  O   UNL     1     -12.120   6.661  70.461  1.00  0.00    -0.390 OA 
BRANCH  18  21
HETATM   21  C   UNL     1     -11.032   6.393  72.601  1.00  0.00    -0.253 C  
BRANCH  21  22
HETATM   22  N   UNL     1      -9.710   6.532  71.977  1.00  0.00    -0.151 NA 
HETATM   23  C   UNL     1      -8.583   6.678  72.922  1.00  0.00    -0.118 C  
HETATM   24  H   UNL     1      -9.715   7.306  71.312  1.00  0.00     0.000 HD 
HETATM   25  C   UNL     1      -7.314   6.897  72.075  1.00  0.00    -0.087 C  
HETATM   26  C   UNL     1      -8.377   5.406  73.762  1.00  0.00    -0.111 C  
HETATM   27  C   UNL     1      -8.764   7.895  73.843  1.00  0.00    -0.332 C  
ENDBRANCH  21  22
ENDBRANCH  18  21
ENDBRANCH  17  18
ENDBRANCH  16  17
ENDBRANCH  13  16
BRANCH  15  28
HETATM   28  C   UNL     1      -9.900   8.315  68.490  1.00  0.00    -0.176 C  
HETATM   29  O   UNL     1      -8.964   7.893  69.171  1.00  0.00    -0.144 OA 
HETATM   30  C   UNL     1     -10.415   7.493  67.339  1.00  0.00    -0.367 C  
ENDBRANCH  15  28
ENDBRANCH   8  10
ENDBRANCH   6   8
ENDBRANCH   3   6
ENDBRANCH   2   3
TORSDOF 11
ENDMDL
MODEL       80
REMARK 921   NORMALIZED FREE ENERGY PREDICTED BY IDOCK:   -5.03 KCAL/MOL
REMARK 922        TOTAL FREE ENERGY PREDICTED BY IDOCK:   -9.39 KCAL/MOL
REMARK 923 INTER-LIGAND FREE ENERGY PREDICTED BY IDOCK:   -7.99 KCAL/MOL
REMARK 924 INTRA-LIGAND FREE ENERGY PREDICTED BY IDOCK:   -1.40 KCAL/MOL
REMARK 927      BINDING AFFINITY PREDICTED BY RF-SCORE:    0.00 PKD
ROOT
HETATM    1  C   UNL     1     -11.301  16.203  64.439  1.00  0.00    -0.210 C  
HETATM    2  C   UNL     1     -10.485  15.206  65.251  1.00  0.00    -0.409 C  
ENDROOT
BRANCH   2   3
HETATM    3  N   UNL     1     -11.159  13.915  65.424  1.00  0.00    -0.302 N  
BRANCH   3   4
HETATM    4  C   UNL     1     -12.325  13.863  66.313  1.00  0.00    -0.449 C  
HETATM    5  C   UNL     1     -12.001  14.074  67.780  1.00  0.00    -0.392 C  
ENDBRANCH   3   4
BRANCH   3   6
HETATM    6  C   UNL     1     -10.768  12.881  64.573  1.00  0.00    -0.371 C  
HETATM    7  O   UNL     1     -11.386  12.620  63.542  1.00  0.00    -0.458 OA 
BRANCH   6   8
HETATM    8  N   UNL     1      -9.622  12.213  64.962  1.00  0.00    -0.450 N  
HETATM    9  H   UNL     1      -8.713  12.621  64.742  1.00  0.00     0.000 HD 
BRANCH   8  10
HETATM   10  C   UNL     1      -9.670  10.988  65.651  1.00  0.00    -0.232 A  
HETATM   11  C   UNL     1     -10.520  10.784  66.736  1.00  0.00    -0.305 A  
HETATM   12  C   UNL     1     -10.587   9.531  67.353  1.00  0.00    -0.337 A  
HETATM   13  C   UNL     1      -9.825   8.453  66.883  1.00  0.00    -0.245 A  
HETATM   14  C   UNL     1      -8.853   9.944  65.220  1.00  0.00    -0.210 A  
HETATM   15  C   UNL     1      -8.943   8.670  65.809  1.00  0.00    -0.244 A  
BRANCH  13  16
HETATM   16  O   UNL     1      -9.929   7.184  67.385  1.00  0.00    -0.148 OA 
BRANCH  16  17
HETATM   17  C   UNL     1      -9.482   6.965  68.732  1.00  0.00    -0.135 C  
BRANCH  17  18
HETATM   18  C   UNL     1     -10.428   5.971  69.419  1.00  0.00    -0.267 C  
HETATM   19  H   UNL     1     -10.255   4.518  70.730  1.00  0.00     0.000 HD 
HETATM   20  O   UNL     1      -9.668   5.133  70.304  1.00  0.00    -0.171 OA 
BRANCH  18  21
HETATM   21  C   UNL     1     -11.548   6.649  70.233  1.00  0.00    -0.395 C  
BRANCH  21  22
HETATM   22  N   UNL     1     -11.627   8.100  70.026  1.00  0.00    -0.456 NA 
HETATM   23  C   UNL     1     -11.507   8.916  71.253  1.00  0.00    -0.299 C  
HETATM   24  H   UNL     1     -12.485   8.338  69.528  1.00  0.00     0.000 HD 
HETATM   25  C   UNL     1     -11.703  10.386  70.834  1.00  0.00    -0.455 C  
HETATM   26  C   UNL     1     -10.111   8.787  71.887  1.00  0.00    -0.409 C  
HETATM   27  C   UNL     1     -12.590   8.559  72.284  1.00  0.00    -0.438 C  
ENDBRANCH  21  22
ENDBRANCH  18  21
ENDBRANCH  17  18
ENDBRANCH  16  17
ENDBRANCH  13  16
BRANCH  15  28
HETATM   28  C   UNL     1      -8.115   7.619  65.141  1.00  0.00    -0.134 C  
HETATM   29  O   UNL     1      -8.330   7.348  63.958  1.00  0.00    -0.007 OA 
HETATM   30  C   UNL     1      -6.994   6.930  65.873  1.00  0.00    -0.064 C  
ENDBRANCH  15  28
ENDBRANCH   8  10
ENDBRANCH   6   8
ENDBRANCH   3   6
ENDBRANCH   2   3
TORSDOF 11
ENDMDL
MODEL       81
REMARK 921   NORMALIZED FREE ENERGY PREDICTED BY IDOCK:   -5.03 KCAL/MOL
REMARK 922        TOTAL FREE ENERGY PREDICTED BY IDOCK:   -9.39 KCAL/MOL
REMARK 923 INTER-LIGAND FREE ENERGY PREDICTED BY IDOCK:   -7.63 KCAL/MOL
REMARK 924 INTRA-LIGAND FREE ENERGY PREDICTED BY IDOCK:   -1.76 KCAL/MOL
REMARK 927      BINDING AFFINITY PREDICTED BY RF-SCORE:    0.00 PKD
ROOT
HETATM    1  C   UNL     1      -7.082   9.096  62.901  1.00  0.00    -0.091 C  
HETATM    2  C   UNL     1      -8.462   9.108  63.545  1.00  0.00    -0.189 C  
ENDROOT
BRANCH   2   3
HETATM    3  N   UNL     1      -8.415   9.109  65.010  1.00  0.00    -0.161 N  
BRANCH   3   4
HETATM    4  C   UNL     1      -8.906   7.919  65.714  1.00  0.00    -0.119 C  
HETATM    5  C   UNL     1     -10.039   8.191  66.685  1.00  0.00    -0.344 C  
ENDBRANCH   3   4
BRANCH   3   6
HETATM    6  C   UNL     1      -7.719  10.154  65.618  1.00  0.00    -0.143 C  
HETATM    7  O   UNL     1      -6.704   9.957  66.285  1.00  0.00    -0.083 OA 
BRANCH   6   8
HETATM    8  N   UNL     1      -8.236  11.413  65.375  1.00  0.00    -0.330 N  
HETATM    9  H   UNL     1      -7.863  11.959  64.599  1.00  0.00     0.000 HD 
BRANCH   8  10
HETATM   10  C   UNL     1      -9.260  11.963  66.166  1.00  0.00    -0.199 A  
HETATM   11  C   UNL     1      -9.267  11.844  67.554  1.00  0.00    -0.177 A  
HETATM   12  C   UNL     1     -10.267  12.461  68.310  1.00  0.00    -0.230 A  
HETATM   13  C   UNL     1     -11.266  13.228  67.696  1.00  0.00    -0.280 A  
HETATM   14  C   UNL     1     -10.290  12.663  65.538  1.00  0.00    -0.305 A  
HETATM   15  C   UNL     1     -11.278  13.320  66.293  1.00  0.00    -0.321 A  
BRANCH  13  16
HETATM   16  O   UNL     1     -12.207  13.936  68.395  1.00  0.00    -0.339 OA 
BRANCH  16  17
HETATM   17  C   UNL     1     -11.989  14.116  69.804  1.00  0.00    -0.339 C  
BRANCH  17  18
HETATM   18  C   UNL     1     -11.766  15.607  70.090  1.00  0.00    -0.360 C  
HETATM   19  H   UNL     1     -11.432  16.714  71.678  1.00  0.00     0.000 HD 
HETATM   20  O   UNL     1     -11.570  15.790  71.501  1.00  0.00    -0.384 OA 
BRANCH  18  21
HETATM   21  C   UNL     1     -10.554  16.203  69.348  1.00  0.00    -0.300 C  
BRANCH  21  22
HETATM   22  N   UNL     1     -10.914  16.918  68.118  1.00  0.00    -0.346 NA 
HETATM   23  C   UNL     1      -9.771  17.346  67.284  1.00  0.00    -0.267 C  
HETATM   24  H   UNL     1     -11.509  17.718  68.337  1.00  0.00     0.000 HD 
HETATM   25  C   UNL     1     -10.353  18.146  66.103  1.00  0.00    -0.394 C  
HETATM   26  C   UNL     1      -9.005  16.143  66.709  1.00  0.00    -0.270 C  
HETATM   27  C   UNL     1      -8.810  18.262  68.060  1.00  0.00    -0.290 C  
ENDBRANCH  21  22
ENDBRANCH  18  21
ENDBRANCH  17  18
ENDBRANCH  16  17
ENDBRANCH  13  16
BRANCH  15  28
HETATM   28  C   UNL     1     -12.223  14.152  65.486  1.00  0.00    -0.432 C  
HETATM   29  O   UNL     1     -13.436  14.017  65.657  1.00  0.00    -0.604 OA 
HETATM   30  C   UNL     1     -11.716  15.184  64.514  1.00  0.00    -0.331 C  
ENDBRANCH  15  28
ENDBRANCH   8  10
ENDBRANCH   6   8
ENDBRANCH   3   6
ENDBRANCH   2   3
TORSDOF 11
ENDMDL
MODEL       82
REMARK 921   NORMALIZED FREE ENERGY PREDICTED BY IDOCK:   -5.01 KCAL/MOL
REMARK 922        TOTAL FREE ENERGY PREDICTED BY IDOCK:   -9.36 KCAL/MOL
REMARK 923 INTER-LIGAND FREE ENERGY PREDICTED BY IDOCK:   -8.28 KCAL/MOL
REMARK 924 INTRA-LIGAND FREE ENERGY PREDICTED BY IDOCK:   -1.08 KCAL/MOL
REMARK 927      BINDING AFFINITY PREDICTED BY RF-SCORE:    0.00 PKD
ROOT
HETATM    1  C   UNL     1     -11.649  16.045  70.350  1.00  0.00    -0.364 C  
HETATM    2  C   UNL     1     -11.505  14.847  71.279  1.00  0.00    -0.271 C  
ENDROOT
BRANCH   2   3
HETATM    3  N   UNL     1     -12.655  14.666  72.170  1.00  0.00    -0.325 N  
BRANCH   3   4
HETATM    4  C   UNL     1     -13.014  15.774  73.062  1.00  0.00    -0.525 C  
HETATM    5  C   UNL     1     -12.477  15.638  74.475  1.00  0.00    -0.749 C  
ENDBRANCH   3   4
BRANCH   3   6
HETATM    6  C   UNL     1     -13.446  13.537  71.958  1.00  0.00    -0.494 C  
HETATM    7  O   UNL     1     -14.387  13.254  72.697  1.00  0.00    -0.679 OA 
BRANCH   6   8
HETATM    8  N   UNL     1     -13.111  12.798  70.837  1.00  0.00     0.014 N  
HETATM    9  H   UNL     1     -13.282  13.196  69.914  1.00  0.00     0.000 HD 
BRANCH   8  10
HETATM   10  C   UNL     1     -12.543  11.515  70.933  1.00  0.00    -0.341 A  
HETATM   11  C   UNL     1     -13.075  10.532  71.764  1.00  0.00    -0.570 A  
HETATM   12  C   UNL     1     -12.521   9.249  71.782  1.00  0.00    -0.458 A  
HETATM   13  C   UNL     1     -11.439   8.918  70.955  1.00  0.00    -0.288 A  
HETATM   14  C   UNL     1     -11.421  11.219  70.159  1.00  0.00    -0.336 A  
HETATM   15  C   UNL     1     -10.882   9.921  70.142  1.00  0.00    -0.356 A  
BRANCH  13  16
HETATM   16  O   UNL     1     -10.926   7.652  70.859  1.00  0.00    -0.241 OA 
BRANCH  16  17
HETATM   17  C   UNL     1     -11.656   6.699  70.069  1.00  0.00    -0.362 C  
BRANCH  17  18
HETATM   18  C   UNL     1     -10.727   5.533  69.707  1.00  0.00    -0.285 C  
HETATM   19  H   UNL     1      -9.385   5.163  68.321  1.00  0.00     0.000 HD 
HETATM   20  O   UNL     1      -9.960   5.885  68.545  1.00  0.00    -0.131 OA 
BRANCH  18  21
HETATM   21  C   UNL     1      -9.751   5.148  70.836  1.00  0.00    -0.188 C  
BRANCH  21  22
HETATM   22  N   UNL     1     -10.419   4.825  72.102  1.00  0.00    -0.199 NA 
HETATM   23  C   UNL     1      -9.563   4.169  73.113  1.00  0.00    -0.120 C  
HETATM   24  H   UNL     1     -11.252   4.262  71.928  1.00  0.00     0.000 HD 
HETATM   25  C   UNL     1     -10.465   3.839  74.318  1.00  0.00    -0.270 C  
HETATM   26  C   UNL     1      -8.442   5.103  73.603  1.00  0.00    -0.112 C  
HETATM   27  C   UNL     1      -8.963   2.855  72.586  1.00  0.00    -0.111 C  
ENDBRANCH  21  22
ENDBRANCH  18  21
ENDBRANCH  17  18
ENDBRANCH  16  17
ENDBRANCH  13  16
BRANCH  15  28
HETATM   28  C   UNL     1      -9.780   9.721  69.151  1.00  0.00    -0.184 C  
HETATM   29  O   UNL     1     -10.065   9.516  67.970  1.00  0.00    -0.170 OA 
HETATM   30  C   UNL     1      -8.336   9.823  69.563  1.00  0.00    -0.165 C  
ENDBRANCH  15  28
ENDBRANCH   8  10
ENDBRANCH   6   8
ENDBRANCH   3   6
ENDBRANCH   2   3
TORSDOF 11
ENDMDL
MODEL       83
REMARK 921   NORMALIZED FREE ENERGY PREDICTED BY IDOCK:   -4.99 KCAL/MOL
REMARK 922        TOTAL FREE ENERGY PREDICTED BY IDOCK:   -9.32 KCAL/MOL
REMARK 923 INTER-LIGAND FREE ENERGY PREDICTED BY IDOCK:   -7.97 KCAL/MOL
REMARK 924 INTRA-LIGAND FREE ENERGY PREDICTED BY IDOCK:   -1.35 KCAL/MOL
REMARK 927      BINDING AFFINITY PREDICTED BY RF-SCORE:    0.00 PKD
ROOT
HETATM    1  C   UNL     1      -8.237   8.004  69.687  1.00  0.00    -0.121 C  
HETATM    2  C   UNL     1      -8.895   6.968  68.786  1.00  0.00    -0.129 C  
ENDROOT
BRANCH   2   3
HETATM    3  N   UNL     1      -8.865   7.337  67.367  1.00  0.00    -0.120 N  
BRANCH   3   4
HETATM    4  C   UNL     1      -7.683   6.958  66.585  1.00  0.00    -0.105 C  
HETATM    5  C   UNL     1      -7.712   5.534  66.061  1.00  0.00    -0.095 C  
ENDBRANCH   3   4
BRANCH   3   6
HETATM    6  C   UNL     1     -10.047   7.836  66.820  1.00  0.00    -0.270 C  
HETATM    7  O   UNL     1     -11.103   7.206  66.870  1.00  0.00    -0.327 OA 
BRANCH   6   8
HETATM    8  N   UNL     1      -9.940   9.097  66.263  1.00  0.00    -0.287 N  
HETATM    9  H   UNL     1      -9.388   9.217  65.414  1.00  0.00     0.000 HD 
BRANCH   8  10
HETATM   10  C   UNL     1     -10.571  10.218  66.831  1.00  0.00    -0.217 A  
HETATM   11  C   UNL     1     -10.744  10.350  68.207  1.00  0.00    -0.275 A  
HETATM   12  C   UNL     1     -11.316  11.509  68.737  1.00  0.00    -0.327 A  
HETATM   13  C   UNL     1     -11.705  12.569  67.906  1.00  0.00    -0.359 A  
HETATM   14  C   UNL     1     -11.019  11.234  65.987  1.00  0.00    -0.237 A  
HETATM   15  C   UNL     1     -11.560  12.421  66.515  1.00  0.00    -0.447 A  
BRANCH  13  16
HETATM   16  O   UNL     1     -12.174  13.764  68.381  1.00  0.00    -0.340 OA 
BRANCH  16  17
HETATM   17  C   UNL     1     -12.200  13.947  69.805  1.00  0.00    -0.332 C  
BRANCH  17  18
HETATM   18  C   UNL     1     -11.905  15.418  70.128  1.00  0.00    -0.335 C  
HETATM   19  H   UNL     1     -10.637  16.396  71.265  1.00  0.00     0.000 HD 
HETATM   20  O   UNL     1     -10.820  15.485  71.065  1.00  0.00    -0.321 OA 
BRANCH  18  21
HETATM   21  C   UNL     1     -11.532  16.257  68.890  1.00  0.00    -0.282 C  
BRANCH  21  22
HETATM   22  N   UNL     1     -10.454  17.221  69.139  1.00  0.00    -0.318 NA 
HETATM   23  C   UNL     1      -9.525  17.429  68.008  1.00  0.00    -0.281 C  
HETATM   24  H   UNL     1      -9.934  16.958  69.977  1.00  0.00     0.000 HD 
HETATM   25  C   UNL     1      -8.431  18.396  68.499  1.00  0.00    -0.346 C  
HETATM   26  C   UNL     1     -10.230  18.084  66.807  1.00  0.00    -0.367 C  
HETATM   27  C   UNL     1      -8.852  16.117  67.574  1.00  0.00    -0.198 C  
ENDBRANCH  21  22
ENDBRANCH  18  21
ENDBRANCH  17  18
ENDBRANCH  16  17
ENDBRANCH  13  16
BRANCH  15  28
HETATM   28  C   UNL     1     -11.854  13.474  65.495  1.00  0.00    -0.363 C  
HETATM   29  O   UNL     1     -13.020  13.656  65.140  1.00  0.00    -0.734 OA 
HETATM   30  C   UNL     1     -10.760  14.347  64.941  1.00  0.00    -0.444 C  
ENDBRANCH  15  28
ENDBRANCH   8  10
ENDBRANCH   6   8
ENDBRANCH   3   6
ENDBRANCH   2   3
TORSDOF 11
ENDMDL
MODEL       84
REMARK 921   NORMALIZED FREE ENERGY PREDICTED BY IDOCK:   -4.98 KCAL/MOL
REMARK 922        TOTAL FREE ENERGY PREDICTED BY IDOCK:   -9.32 KCAL/MOL
REMARK 923 INTER-LIGAND FREE ENERGY PREDICTED BY IDOCK:   -8.13 KCAL/MOL
REMARK 924 INTRA-LIGAND FREE ENERGY PREDICTED BY IDOCK:   -1.19 KCAL/MOL
REMARK 927      BINDING AFFINITY PREDICTED BY RF-SCORE:    0.00 PKD
ROOT
HETATM    1  C   UNL     1     -12.009  11.883  63.498  1.00  0.00    -0.567 C  
HETATM    2  C   UNL     1     -12.730  12.532  64.671  1.00  0.00    -0.349 C  
ENDROOT
BRANCH   2   3
HETATM    3  N   UNL     1     -12.075  13.756  65.144  1.00  0.00    -0.377 N  
BRANCH   3   4
HETATM    4  C   UNL     1     -12.168  14.954  64.303  1.00  0.00    -0.344 C  
HETATM    5  C   UNL     1     -11.186  16.052  64.668  1.00  0.00    -0.340 C  
ENDBRANCH   3   4
BRANCH   3   6
HETATM    6  C   UNL     1     -11.590  13.746  66.452  1.00  0.00    -0.360 C  
HETATM    7  O   UNL     1     -12.256  14.171  67.395  1.00  0.00    -0.380 OA 
BRANCH   6   8
HETATM    8  N   UNL     1     -10.333  13.188  66.600  1.00  0.00    -0.262 N  
HETATM    9  H   UNL     1      -9.515  13.793  66.547  1.00  0.00     0.000 HD 
BRANCH   8  10
HETATM   10  C   UNL     1     -10.151  11.811  66.820  1.00  0.00    -0.209 A  
HETATM   11  C   UNL     1     -10.917  11.102  67.743  1.00  0.00    -0.315 A  
HETATM   12  C   UNL     1     -10.751   9.722  67.886  1.00  0.00    -0.312 A  
HETATM   13  C   UNL     1      -9.833   9.020  67.094  1.00  0.00    -0.203 A  
HETATM   14  C   UNL     1      -9.183  11.135  66.077  1.00  0.00    -0.223 A  
HETATM   15  C   UNL     1      -9.037   9.741  66.186  1.00  0.00    -0.198 A  
BRANCH  13  16
HETATM   16  O   UNL     1      -9.705   7.657  67.121  1.00  0.00    -0.157 OA 
BRANCH  16  17
HETATM   17  C   UNL     1     -10.889   6.884  67.375  1.00  0.00    -0.326 C  
BRANCH  17  18
HETATM   18  C   UNL     1     -10.597   5.869  68.488  1.00  0.00    -0.252 C  
HETATM   19  H   UNL     1      -8.999   5.177  69.396  1.00  0.00     0.000 HD 
HETATM   20  O   UNL     1      -9.180   5.806  68.706  1.00  0.00    -0.117 OA 
BRANCH  18  21
HETATM   21  C   UNL     1     -11.282   6.208  69.826  1.00  0.00    -0.423 C  
BRANCH  21  22
HETATM   22  N   UNL     1     -11.564   7.638  69.995  1.00  0.00    -0.480 NA 
HETATM   23  C   UNL     1     -12.197   8.006  71.279  1.00  0.00    -0.287 C  
HETATM   24  H   UNL     1     -12.126   7.980  69.215  1.00  0.00     0.000 HD 
HETATM   25  C   UNL     1     -12.487   9.518  71.219  1.00  0.00    -0.432 C  
HETATM   26  C   UNL     1     -11.257   7.752  72.470  1.00  0.00    -0.419 C  
HETATM   27  C   UNL     1     -13.529   7.267  71.490  1.00  0.00    -0.439 C  
ENDBRANCH  21  22
ENDBRANCH  18  21
ENDBRANCH  17  18
ENDBRANCH  16  17
ENDBRANCH  13  16
BRANCH  15  28
HETATM   28  C   UNL     1      -8.066   9.143  65.219  1.00  0.00    -0.124 C  
HETATM   29  O   UNL     1      -8.459   8.822  64.096  1.00  0.00    -0.168 OA 
HETATM   30  C   UNL     1      -6.613   8.979  65.576  1.00  0.00    -0.068 C  
ENDBRANCH  15  28
ENDBRANCH   8  10
ENDBRANCH   6   8
ENDBRANCH   3   6
ENDBRANCH   2   3
TORSDOF 11
ENDMDL
MODEL       85
REMARK 921   NORMALIZED FREE ENERGY PREDICTED BY IDOCK:   -4.96 KCAL/MOL
REMARK 922        TOTAL FREE ENERGY PREDICTED BY IDOCK:   -9.28 KCAL/MOL
REMARK 923 INTER-LIGAND FREE ENERGY PREDICTED BY IDOCK:   -7.60 KCAL/MOL
REMARK 924 INTRA-LIGAND FREE ENERGY PREDICTED BY IDOCK:   -1.68 KCAL/MOL
REMARK 927      BINDING AFFINITY PREDICTED BY RF-SCORE:    0.00 PKD
ROOT
HETATM    1  C   UNL     1     -12.412  12.042  63.406  1.00  0.00    -0.625 C  
HETATM    2  C   UNL     1     -11.025  12.368  63.942  1.00  0.00    -0.414 C  
ENDROOT
BRANCH   2   3
HETATM    3  N   UNL     1     -11.030  12.765  65.354  1.00  0.00    -0.279 N  
BRANCH   3   4
HETATM    4  C   UNL     1     -11.768  13.978  65.722  1.00  0.00    -0.363 C  
HETATM    5  C   UNL     1     -11.247  15.247  65.073  1.00  0.00    -0.409 C  
ENDBRANCH   3   4
BRANCH   3   6
HETATM    6  C   UNL     1     -10.509  11.849  66.268  1.00  0.00    -0.239 C  
HETATM    7  O   UNL     1     -10.205  10.703  65.939  1.00  0.00    -0.248 OA 
BRANCH   6   8
HETATM    8  N   UNL     1     -10.326  12.347  67.545  1.00  0.00    -0.213 N  
HETATM    9  H   UNL     1      -9.982  13.300  67.660  1.00  0.00     0.000 HD 
BRANCH   8  10
HETATM   10  C   UNL     1     -10.599  11.577  68.690  1.00  0.00    -0.208 A  
HETATM   11  C   UNL     1     -11.769  11.742  69.429  1.00  0.00    -0.405 A  
HETATM   12  C   UNL     1     -12.034  10.913  70.522  1.00  0.00    -0.466 A  
HETATM   13  C   UNL     1     -11.148   9.889  70.884  1.00  0.00    -0.348 A  
HETATM   14  C   UNL     1      -9.675  10.610  69.084  1.00  0.00    -0.205 A  
HETATM   15  C   UNL     1      -9.951   9.746  70.159  1.00  0.00    -0.315 A  
BRANCH  13  16
HETATM   16  O   UNL     1     -11.408   8.987  71.880  1.00  0.00    -0.349 OA 
BRANCH  16  17
HETATM   17  C   UNL     1     -12.690   8.337  71.868  1.00  0.00    -0.342 C  
BRANCH  17  18
HETATM   18  C   UNL     1     -12.487   6.831  71.661  1.00  0.00    -0.351 C  
HETATM   19  H   UNL     1     -12.026   5.652  70.158  1.00  0.00     0.000 HD 
HETATM   20  O   UNL     1     -12.152   6.586  70.287  1.00  0.00    -0.348 OA 
BRANCH  18  21
HETATM   21  C   UNL     1     -11.377   6.231  72.547  1.00  0.00    -0.275 C  
BRANCH  21  22
HETATM   22  N   UNL     1     -10.158   5.888  71.806  1.00  0.00    -0.184 NA 
HETATM   23  C   UNL     1      -9.156   5.115  72.571  1.00  0.00    -0.133 C  
HETATM   24  H   UNL     1      -9.731   6.731  71.420  1.00  0.00     0.000 HD 
HETATM   25  C   UNL     1      -7.931   4.937  71.653  1.00  0.00    -0.111 C  
HETATM   26  C   UNL     1      -9.678   3.715  72.939  1.00  0.00    -0.186 C  
HETATM   27  C   UNL     1      -8.706   5.861  73.838  1.00  0.00    -0.123 C  
ENDBRANCH  21  22
ENDBRANCH  18  21
ENDBRANCH  17  18
ENDBRANCH  16  17
ENDBRANCH  13  16
BRANCH  15  28
HETATM   28  C   UNL     1      -8.936   8.668  70.364  1.00  0.00    -0.158 C  
HETATM   29  O   UNL     1      -8.936   7.693  69.610  1.00  0.00    -0.140 OA 
HETATM   30  C   UNL     1      -7.886   8.782  71.436  1.00  0.00    -0.166 C  
ENDBRANCH  15  28
ENDBRANCH   8  10
ENDBRANCH   6   8
ENDBRANCH   3   6
ENDBRANCH   2   3
TORSDOF 11
ENDMDL
MODEL       86
REMARK 921   NORMALIZED FREE ENERGY PREDICTED BY IDOCK:   -4.96 KCAL/MOL
REMARK 922        TOTAL FREE ENERGY PREDICTED BY IDOCK:   -9.28 KCAL/MOL
REMARK 923 INTER-LIGAND FREE ENERGY PREDICTED BY IDOCK:   -7.98 KCAL/MOL
REMARK 924 INTRA-LIGAND FREE ENERGY PREDICTED BY IDOCK:   -1.30 KCAL/MOL
REMARK 927      BINDING AFFINITY PREDICTED BY RF-SCORE:    0.00 PKD
ROOT
HETATM    1  C   UNL     1      -6.190  18.378  68.827  1.00  0.00    -0.215 C  
HETATM    2  C   UNL     1      -7.501  17.632  68.619  1.00  0.00    -0.273 C  
ENDROOT
BRANCH   2   3
HETATM    3  N   UNL     1      -7.482  16.749  67.448  1.00  0.00    -0.153 N  
BRANCH   3   4
HETATM    4  C   UNL     1      -6.679  15.524  67.524  1.00  0.00    -0.190 C  
HETATM    5  C   UNL     1      -6.855  14.741  68.812  1.00  0.00    -0.099 C  
ENDBRANCH   3   4
BRANCH   3   6
HETATM    6  C   UNL     1      -8.391  17.035  66.429  1.00  0.00    -0.284 C  
HETATM    7  O   UNL     1      -8.564  18.180  66.015  1.00  0.00    -0.496 OA 
BRANCH   6   8
HETATM    8  N   UNL     1      -9.040  15.932  65.905  1.00  0.00    -0.319 N  
HETATM    9  H   UNL     1      -8.965  15.743  64.906  1.00  0.00     0.000 HD 
BRANCH   8  10
HETATM   10  C   UNL     1      -9.800  15.063  66.709  1.00  0.00    -0.243 A  
HETATM   11  C   UNL     1     -10.680  15.535  67.680  1.00  0.00    -0.302 A  
HETATM   12  C   UNL     1     -11.466  14.642  68.413  1.00  0.00    -0.335 A  
HETATM   13  C   UNL     1     -11.405  13.263  68.174  1.00  0.00    -0.288 A  
HETATM   14  C   UNL     1      -9.677  13.688  66.512  1.00  0.00    -0.298 A  
HETATM   15  C   UNL     1     -10.492  12.785  67.217  1.00  0.00    -0.238 A  
BRANCH  13  16
HETATM   16  O   UNL     1     -12.226  12.356  68.790  1.00  0.00    -0.178 OA 
BRANCH  16  17
HETATM   17  C   UNL     1     -11.788  11.813  70.046  1.00  0.00    -0.342 C  
BRANCH  17  18
HETATM   18  C   UNL     1     -13.003  11.633  70.966  1.00  0.00    -0.135 C  
HETATM   19  H   UNL     1     -13.620  10.287  72.257  1.00  0.00     0.000 HD 
HETATM   20  O   UNL     1     -12.867  10.399  71.687  1.00  0.00    -0.404 OA 
BRANCH  18  21
HETATM   21  C   UNL     1     -13.180  12.776  71.984  1.00  0.00    -0.436 C  
BRANCH  21  22
HETATM   22  N   UNL     1     -12.292  13.919  71.742  1.00  0.00    -0.197 NA 
HETATM   23  C   UNL     1     -12.792  15.218  72.239  1.00  0.00    -0.360 C  
HETATM   24  H   UNL     1     -12.066  13.985  70.749  1.00  0.00     0.000 HD 
HETATM   25  C   UNL     1     -11.767  16.286  71.811  1.00  0.00    -0.504 C  
HETATM   26  C   UNL     1     -12.886  15.241  73.775  1.00  0.00    -0.618 C  
HETATM   27  C   UNL     1     -14.152  15.580  71.621  1.00  0.00    -0.540 C  
ENDBRANCH  21  22
ENDBRANCH  18  21
ENDBRANCH  17  18
ENDBRANCH  16  17
ENDBRANCH  13  16
BRANCH  15  28
HETATM   28  C   UNL     1     -10.352  11.359  66.789  1.00  0.00    -0.234 C  
HETATM   29  O   UNL     1     -11.362  10.721  66.489  1.00  0.00    -0.132 OA 
HETATM   30  C   UNL     1      -8.997  10.714  66.667  1.00  0.00    -0.162 C  
ENDBRANCH  15  28
ENDBRANCH   8  10
ENDBRANCH   6   8
ENDBRANCH   3   6
ENDBRANCH   2   3
TORSDOF 11
ENDMDL
MODEL       87
REMARK 921   NORMALIZED FREE ENERGY PREDICTED BY IDOCK:   -4.96 KCAL/MOL
REMARK 922        TOTAL FREE ENERGY PREDICTED BY IDOCK:   -9.28 KCAL/MOL
REMARK 923 INTER-LIGAND FREE ENERGY PREDICTED BY IDOCK:   -8.31 KCAL/MOL
REMARK 924 INTRA-LIGAND FREE ENERGY PREDICTED BY IDOCK:   -0.97 KCAL/MOL
REMARK 927      BINDING AFFINITY PREDICTED BY RF-SCORE:    0.00 PKD
ROOT
HETATM    1  C   UNL     1      -6.709  19.680  68.273  1.00  0.00    -0.313 C  
HETATM    2  C   UNL     1      -8.101  19.187  68.646  1.00  0.00    -0.370 C  
ENDROOT
BRANCH   2   3
HETATM    3  N   UNL     1      -8.974  18.991  67.485  1.00  0.00    -0.290 N  
BRANCH   3   4
HETATM    4  C   UNL     1      -9.619  20.174  66.903  1.00  0.00    -0.430 C  
HETATM    5  C   UNL     1     -10.809  19.863  66.014  1.00  0.00    -0.330 C  
ENDBRANCH   3   4
BRANCH   3   6
HETATM    6  C   UNL     1      -8.964  17.728  66.894  1.00  0.00    -0.255 C  
HETATM    7  O   UNL     1      -8.284  17.481  65.899  1.00  0.00    -0.538 OA 
BRANCH   6   8
HETATM    8  N   UNL     1      -9.739  16.781  67.539  1.00  0.00    -0.248 N  
HETATM    9  H   UNL     1     -10.259  17.052  68.373  1.00  0.00     0.000 HD 
BRANCH   8  10
HETATM   10  C   UNL     1      -9.832  15.455  67.078  1.00  0.00    -0.232 A  
HETATM   11  C   UNL     1      -8.955  14.461  67.505  1.00  0.00    -0.192 A  
HETATM   12  C   UNL     1      -9.121  13.142  67.075  1.00  0.00    -0.231 A  
HETATM   13  C   UNL     1     -10.180  12.787  66.228  1.00  0.00    -0.253 A  
HETATM   14  C   UNL     1     -10.846  15.128  66.178  1.00  0.00    -0.330 A  
HETATM   15  C   UNL     1     -11.045  13.797  65.771  1.00  0.00    -0.290 A  
BRANCH  13  16
HETATM   16  O   UNL     1     -10.447  11.495  65.860  1.00  0.00    -0.241 OA 
BRANCH  16  17
HETATM   17  C   UNL     1     -10.606  10.527  66.910  1.00  0.00    -0.243 C  
BRANCH  17  18
HETATM   18  C   UNL     1      -9.889   9.231  66.508  1.00  0.00    -0.263 C  
HETATM   19  H   UNL     1      -8.068   8.510  66.656  1.00  0.00     0.000 HD 
HETATM   20  O   UNL     1      -8.512   9.313  66.905  1.00  0.00    -0.125 OA 
BRANCH  18  21
HETATM   21  C   UNL     1     -10.503   7.966  67.140  1.00  0.00    -0.344 C  
BRANCH  21  22
HETATM   22  N   UNL     1      -9.529   7.142  67.866  1.00  0.00    -0.130 NA 
HETATM   23  C   UNL     1      -9.850   6.900  69.289  1.00  0.00    -0.157 C  
HETATM   24  H   UNL     1      -8.595   7.544  67.780  1.00  0.00     0.000 HD 
HETATM   25  C   UNL     1      -8.674   6.102  69.884  1.00  0.00    -0.136 C  
HETATM   26  C   UNL     1     -11.125   6.054  69.449  1.00  0.00    -0.445 C  
HETATM   27  C   UNL     1      -9.987   8.215  70.075  1.00  0.00    -0.192 C  
ENDBRANCH  21  22
ENDBRANCH  18  21
ENDBRANCH  17  18
ENDBRANCH  16  17
ENDBRANCH  13  16
BRANCH  15  28
HETATM   28  C   UNL     1     -12.260  13.582  64.927  1.00  0.00    -0.410 C  
HETATM   29  O   UNL     1     -13.365  13.884  65.380  1.00  0.00    -0.710 OA 
HETATM   30  C   UNL     1     -12.148  13.057  63.521  1.00  0.00    -0.617 C  
ENDBRANCH  15  28
ENDBRANCH   8  10
ENDBRANCH   6   8
ENDBRANCH   3   6
ENDBRANCH   2   3
TORSDOF 11
ENDMDL
MODEL       88
REMARK 921   NORMALIZED FREE ENERGY PREDICTED BY IDOCK:   -4.95 KCAL/MOL
REMARK 922        TOTAL FREE ENERGY PREDICTED BY IDOCK:   -9.27 KCAL/MOL
REMARK 923 INTER-LIGAND FREE ENERGY PREDICTED BY IDOCK:   -8.01 KCAL/MOL
REMARK 924 INTRA-LIGAND FREE ENERGY PREDICTED BY IDOCK:   -1.26 KCAL/MOL
REMARK 927      BINDING AFFINITY PREDICTED BY RF-SCORE:    0.00 PKD
ROOT
HETATM    1  C   UNL     1     -10.993  15.549  70.655  1.00  0.00    -0.370 C  
HETATM    2  C   UNL     1     -12.048  16.051  71.631  1.00  0.00    -0.472 C  
ENDROOT
BRANCH   2   3
HETATM    3  N   UNL     1     -12.666  14.977  72.415  1.00  0.00    -0.323 N  
BRANCH   3   4
HETATM    4  C   UNL     1     -12.399  14.939  73.857  1.00  0.00    -0.441 C  
HETATM    5  C   UNL     1     -12.349  16.304  74.519  1.00  0.00    -0.584 C  
ENDBRANCH   3   4
BRANCH   3   6
HETATM    6  C   UNL     1     -13.624  14.196  71.769  1.00  0.00    -0.399 C  
HETATM    7  O   UNL     1     -14.387  14.668  70.928  1.00  0.00    -0.076 OA 
BRANCH   6   8
HETATM    8  N   UNL     1     -13.614  12.858  72.120  1.00  0.00    -0.536 N  
HETATM    9  H   UNL     1     -14.139  12.559  72.941  1.00  0.00     0.000 HD 
BRANCH   8  10
HETATM   10  C   UNL     1     -12.900  11.899  71.379  1.00  0.00    -0.307 A  
HETATM   11  C   UNL     1     -12.123  12.246  70.276  1.00  0.00    -0.376 A  
HETATM   12  C   UNL     1     -11.376  11.274  69.606  1.00  0.00    -0.359 A  
HETATM   13  C   UNL     1     -11.373   9.941  70.039  1.00  0.00    -0.249 A  
HETATM   14  C   UNL     1     -12.963  10.564  71.775  1.00  0.00    -0.582 A  
HETATM   15  C   UNL     1     -12.184   9.585  71.131  1.00  0.00    -0.421 A  
BRANCH  13  16
HETATM   16  O   UNL     1     -10.582   8.972  69.482  1.00  0.00    -0.223 OA 
BRANCH  16  17
HETATM   17  C   UNL     1     -11.074   8.308  68.307  1.00  0.00     0.399 C  
BRANCH  17  18
HETATM   18  C   UNL     1      -9.985   7.373  67.765  1.00  0.00    -0.167 C  
HETATM   19  H   UNL     1      -9.931   5.653  66.817  1.00  0.00     0.000 HD 
HETATM   20  O   UNL     1     -10.606   6.232  67.153  1.00  0.00    -0.229 OA 
BRANCH  18  21
HETATM   21  C   UNL     1      -9.060   8.040  66.728  1.00  0.00    -0.155 C  
BRANCH  21  22
HETATM   22  N   UNL     1      -9.709   9.119  65.974  1.00  0.00    -0.282 NA 
HETATM   23  C   UNL     1      -8.949  10.387  65.915  1.00  0.00    -0.162 C  
HETATM   24  H   UNL     1     -10.647   9.289  66.338  1.00  0.00     0.000 HD 
HETATM   25  C   UNL     1      -9.831  11.403  65.164  1.00  0.00    -0.302 C  
HETATM   26  C   UNL     1      -7.637  10.227  65.127  1.00  0.00    -0.133 C  
HETATM   27  C   UNL     1      -8.658  10.943  67.318  1.00  0.00    -0.128 C  
ENDBRANCH  21  22
ENDBRANCH  18  21
ENDBRANCH  17  18
ENDBRANCH  16  17
ENDBRANCH  13  16
BRANCH  15  28
HETATM   28  C   UNL     1     -12.243   8.232  71.764  1.00  0.00    -0.326 C  
HETATM   29  O   UNL     1     -13.167   7.472  71.470  1.00  0.00    -0.353 OA 
HETATM   30  C   UNL     1     -11.165   7.766  72.706  1.00  0.00    -0.456 C  
ENDBRANCH  15  28
ENDBRANCH   8  10
ENDBRANCH   6   8
ENDBRANCH   3   6
ENDBRANCH   2   3
TORSDOF 11
ENDMDL
MODEL       89
REMARK 921   NORMALIZED FREE ENERGY PREDICTED BY IDOCK:   -4.93 KCAL/MOL
REMARK 922        TOTAL FREE ENERGY PREDICTED BY IDOCK:   -9.24 KCAL/MOL
REMARK 923 INTER-LIGAND FREE ENERGY PREDICTED BY IDOCK:   -8.05 KCAL/MOL
REMARK 924 INTRA-LIGAND FREE ENERGY PREDICTED BY IDOCK:   -1.19 KCAL/MOL
REMARK 927      BINDING AFFINITY PREDICTED BY RF-SCORE:    0.00 PKD
ROOT
HETATM    1  C   UNL     1      -9.717   4.088  70.107  1.00  0.00    -0.265 C  
HETATM    2  C   UNL     1     -10.430   5.190  70.879  1.00  0.00    -0.187 C  
ENDROOT
BRANCH   2   3
HETATM    3  N   UNL     1      -9.588   6.368  71.111  1.00  0.00    -0.174 N  
BRANCH   3   4
HETATM    4  C   UNL     1      -9.096   6.603  72.473  1.00  0.00    -0.134 C  
HETATM    5  C   UNL     1      -9.097   8.060  72.895  1.00  0.00    -0.313 C  
ENDBRANCH   3   4
BRANCH   3   6
HETATM    6  C   UNL     1      -9.150   7.062  69.983  1.00  0.00    -0.145 C  
HETATM    7  O   UNL     1      -7.956   7.154  69.700  1.00  0.00    -0.119 OA 
BRANCH   6   8
HETATM    8  N   UNL     1     -10.159   7.594  69.202  1.00  0.00    -0.189 N  
HETATM    9  H   UNL     1     -10.592   7.009  68.488  1.00  0.00     0.000 HD 
BRANCH   8  10
HETATM   10  C   UNL     1     -10.605   8.918  69.362  1.00  0.00    -0.217 A  
HETATM   11  C   UNL     1     -10.267   9.926  68.462  1.00  0.00    -0.199 A  
HETATM   12  C   UNL     1     -10.784  11.215  68.619  1.00  0.00    -0.234 A  
HETATM   13  C   UNL     1     -11.668  11.515  69.664  1.00  0.00    -0.351 A  
HETATM   14  C   UNL     1     -11.426   9.222  70.448  1.00  0.00    -0.255 A  
HETATM   15  C   UNL     1     -11.982  10.506  70.591  1.00  0.00    -0.455 A  
BRANCH  13  16
HETATM   16  O   UNL     1     -12.282  12.731  69.803  1.00  0.00    -0.245 OA 
BRANCH  16  17
HETATM   17  C   UNL     1     -11.445  13.870  70.066  1.00  0.00    -0.140 C  
BRANCH  17  18
HETATM   18  C   UNL     1     -11.910  15.045  69.196  1.00  0.00    -0.308 C  
HETATM   19  H   UNL     1     -11.701  16.998  69.218  1.00  0.00     0.000 HD 
HETATM   20  O   UNL     1     -11.413  16.270  69.757  1.00  0.00    -0.299 OA 
BRANCH  18  21
HETATM   21  C   UNL     1     -11.438  14.953  67.733  1.00  0.00    -0.338 C  
BRANCH  21  22
HETATM   22  N   UNL     1     -12.159  13.945  66.947  1.00  0.00    -0.436 NA 
HETATM   23  C   UNL     1     -11.625  13.709  65.588  1.00  0.00    -0.328 C  
HETATM   24  H   UNL     1     -13.151  14.179  66.899  1.00  0.00     0.000 HD 
HETATM   25  C   UNL     1     -12.565  12.695  64.908  1.00  0.00    -0.525 C  
HETATM   26  C   UNL     1     -10.215  13.094  65.630  1.00  0.00    -0.294 C  
HETATM   27  C   UNL     1     -11.614  14.997  64.748  1.00  0.00    -0.395 C  
ENDBRANCH  21  22
ENDBRANCH  18  21
ENDBRANCH  17  18
ENDBRANCH  16  17
ENDBRANCH  13  16
BRANCH  15  28
HETATM   28  C   UNL     1     -12.958  10.636  71.716  1.00  0.00    -0.472 C  
HETATM   29  O   UNL     1     -13.236  11.758  72.143  1.00  0.00    -0.498 OA 
HETATM   30  C   UNL     1     -13.644   9.427  72.294  1.00  0.00    -0.532 C  
ENDBRANCH  15  28
ENDBRANCH   8  10
ENDBRANCH   6   8
ENDBRANCH   3   6
ENDBRANCH   2   3
TORSDOF 11
ENDMDL
MODEL       90
REMARK 921   NORMALIZED FREE ENERGY PREDICTED BY IDOCK:   -4.93 KCAL/MOL
REMARK 922        TOTAL FREE ENERGY PREDICTED BY IDOCK:   -9.23 KCAL/MOL
REMARK 923 INTER-LIGAND FREE ENERGY PREDICTED BY IDOCK:   -7.93 KCAL/MOL
REMARK 924 INTRA-LIGAND FREE ENERGY PREDICTED BY IDOCK:   -1.29 KCAL/MOL
REMARK 927      BINDING AFFINITY PREDICTED BY RF-SCORE:    0.00 PKD
ROOT
HETATM    1  C   UNL     1     -11.031  15.797  64.457  1.00  0.00    -0.209 C  
HETATM    2  C   UNL     1     -10.451  15.099  65.680  1.00  0.00    -0.359 C  
ENDROOT
BRANCH   2   3
HETATM    3  N   UNL     1     -11.461  14.388  66.471  1.00  0.00    -0.351 N  
BRANCH   3   4
HETATM    4  C   UNL     1     -11.743  14.878  67.824  1.00  0.00    -0.317 C  
HETATM    5  C   UNL     1     -10.808  15.975  68.299  1.00  0.00    -0.319 C  
ENDBRANCH   3   4
BRANCH   3   6
HETATM    6  C   UNL     1     -12.223  13.429  65.804  1.00  0.00    -0.458 C  
HETATM    7  O   UNL     1     -13.325  13.692  65.324  1.00  0.00    -0.669 OA 
BRANCH   6   8
HETATM    8  N   UNL     1     -11.624  12.187  65.694  1.00  0.00    -0.368 N  
HETATM    9  H   UNL     1     -11.583  11.737  64.780  1.00  0.00     0.000 HD 
BRANCH   8  10
HETATM   10  C   UNL     1     -11.070  11.526  66.806  1.00  0.00    -0.302 A  
HETATM   11  C   UNL     1      -9.821  10.913  66.753  1.00  0.00    -0.231 A  
HETATM   12  C   UNL     1      -9.276  10.324  67.897  1.00  0.00    -0.143 A  
HETATM   13  C   UNL     1      -9.958  10.356  69.121  1.00  0.00    -0.223 A  
HETATM   14  C   UNL     1     -11.792  11.502  67.999  1.00  0.00    -0.287 A  
HETATM   15  C   UNL     1     -11.235  10.946  69.164  1.00  0.00    -0.318 A  
BRANCH  13  16
HETATM   16  O   UNL     1      -9.426   9.886  70.291  1.00  0.00    -0.232 OA 
BRANCH  16  17
HETATM   17  C   UNL     1      -8.068   9.418  70.261  1.00  0.00    -0.164 C  
BRANCH  17  18
HETATM   18  C   UNL     1      -7.916   8.257  71.253  1.00  0.00    -0.111 C  
HETATM   19  H   UNL     1      -8.663   7.778  73.005  1.00  0.00     0.000 HD 
HETATM   20  O   UNL     1      -8.758   8.497  72.390  1.00  0.00    -0.246 OA 
BRANCH  18  21
HETATM   21  C   UNL     1      -8.283   6.884  70.656  1.00  0.00    -0.120 C  
BRANCH  21  22
HETATM   22  N   UNL     1      -9.069   6.973  69.420  1.00  0.00    -0.145 NA 
HETATM   23  C   UNL     1     -10.314   6.175  69.410  1.00  0.00    -0.227 C  
HETATM   24  H   UNL     1      -8.490   6.731  68.616  1.00  0.00     0.000 HD 
HETATM   25  C   UNL     1     -10.937   6.335  68.010  1.00  0.00    -0.418 C  
HETATM   26  C   UNL     1     -11.331   6.695  70.442  1.00  0.00    -0.421 C  
HETATM   27  C   UNL     1     -10.036   4.682  69.648  1.00  0.00    -0.232 C  
ENDBRANCH  21  22
ENDBRANCH  18  21
ENDBRANCH  17  18
ENDBRANCH  16  17
ENDBRANCH  13  16
BRANCH  15  28
HETATM   28  C   UNL     1     -12.063  11.129  70.395  1.00  0.00    -0.385 C  
HETATM   29  O   UNL     1     -12.374  10.140  71.062  1.00  0.00    -0.316 OA 
HETATM   30  C   UNL     1     -12.473  12.501  70.860  1.00  0.00    -0.361 C  
ENDBRANCH  15  28
ENDBRANCH   8  10
ENDBRANCH   6   8
ENDBRANCH   3   6
ENDBRANCH   2   3
TORSDOF 11
ENDMDL
MODEL       91
REMARK 921   NORMALIZED FREE ENERGY PREDICTED BY IDOCK:   -4.92 KCAL/MOL
REMARK 922        TOTAL FREE ENERGY PREDICTED BY IDOCK:   -9.21 KCAL/MOL
REMARK 923 INTER-LIGAND FREE ENERGY PREDICTED BY IDOCK:   -8.02 KCAL/MOL
REMARK 924 INTRA-LIGAND FREE ENERGY PREDICTED BY IDOCK:   -1.19 KCAL/MOL
REMARK 927      BINDING AFFINITY PREDICTED BY RF-SCORE:    0.00 PKD
ROOT
HETATM    1  C   UNL     1      -6.400  19.949  69.809  1.00  0.00    -0.402 C  
HETATM    2  C   UNL     1      -7.226  18.960  68.999  1.00  0.00    -0.293 C  
ENDROOT
BRANCH   2   3
HETATM    3  N   UNL     1      -8.184  19.610  68.099  1.00  0.00    -0.313 N  
BRANCH   3   4
HETATM    4  C   UNL     1      -7.662  20.245  66.884  1.00  0.00    -0.312 C  
HETATM    5  C   UNL     1      -7.083  19.274  65.871  1.00  0.00    -0.304 C  
ENDBRANCH   3   4
BRANCH   3   6
HETATM    6  C   UNL     1      -9.538  19.397  68.359  1.00  0.00    -0.388 C  
HETATM    7  O   UNL     1     -10.134  20.011  69.243  1.00  0.00    -0.341 OA 
BRANCH   6   8
HETATM    8  N   UNL     1     -10.152  18.483  67.523  1.00  0.00    -0.339 N  
HETATM    9  H   UNL     1     -10.494  18.795  66.615  1.00  0.00     0.000 HD 
BRANCH   8  10
HETATM   10  C   UNL     1     -10.319  17.135  67.888  1.00  0.00    -0.350 A  
HETATM   11  C   UNL     1      -9.643  16.104  67.238  1.00  0.00    -0.231 A  
HETATM   12  C   UNL     1      -9.785  14.784  67.673  1.00  0.00    -0.213 A  
HETATM   13  C   UNL     1     -10.587  14.470  68.779  1.00  0.00    -0.248 A  
HETATM   14  C   UNL     1     -11.177  16.827  68.944  1.00  0.00    -0.113 A  
HETATM   15  C   UNL     1     -11.295  15.507  69.413  1.00  0.00    -0.321 A  
BRANCH  13  16
HETATM   16  O   UNL     1     -10.679  13.211  69.308  1.00  0.00    -0.095 OA 
BRANCH  16  17
HETATM   17  C   UNL     1     -11.522  12.267  68.628  1.00  0.00    -0.307 C  
BRANCH  17  18
HETATM   18  C   UNL     1     -10.642  11.242  67.899  1.00  0.00    -0.194 C  
HETATM   19  H   UNL     1     -10.799   9.358  67.366  1.00  0.00     0.000 HD 
HETATM   20  O   UNL     1     -11.344   9.993  67.818  1.00  0.00    -0.209 OA 
BRANCH  18  21
HETATM   21  C   UNL     1     -10.246  11.673  66.474  1.00  0.00    -0.214 C  
BRANCH  21  22
HETATM   22  N   UNL     1     -11.235  11.303  65.454  1.00  0.00    -0.077 NA 
HETATM   23  C   UNL     1     -11.737  12.424  64.631  1.00  0.00    -0.365 C  
HETATM   24  H   UNL     1     -12.016  10.807  65.885  1.00  0.00     0.000 HD 
HETATM   25  C   UNL     1     -12.816  11.845  63.696  1.00  0.00    -0.429 C  
HETATM   26  C   UNL     1     -10.626  13.028  63.755  1.00  0.00    -0.175 C  
HETATM   27  C   UNL     1     -12.383  13.521  65.494  1.00  0.00    -0.524 C  
ENDBRANCH  21  22
ENDBRANCH  18  21
ENDBRANCH  17  18
ENDBRANCH  16  17
ENDBRANCH  13  16
BRANCH  15  28
HETATM   28  C   UNL     1     -12.132  15.359  70.643  1.00  0.00    -0.369 C  
HETATM   29  O   UNL     1     -13.194  14.737  70.575  1.00  0.00    -0.310 OA 
HETATM   30  C   UNL     1     -11.672  15.908  71.967  1.00  0.00    -0.588 C  
ENDBRANCH  15  28
ENDBRANCH   8  10
ENDBRANCH   6   8
ENDBRANCH   3   6
ENDBRANCH   2   3
TORSDOF 11
ENDMDL
MODEL       92
REMARK 921   NORMALIZED FREE ENERGY PREDICTED BY IDOCK:   -4.91 KCAL/MOL
REMARK 922        TOTAL FREE ENERGY PREDICTED BY IDOCK:   -9.21 KCAL/MOL
REMARK 923 INTER-LIGAND FREE ENERGY PREDICTED BY IDOCK:   -7.49 KCAL/MOL
REMARK 924 INTRA-LIGAND FREE ENERGY PREDICTED BY IDOCK:   -1.72 KCAL/MOL
REMARK 927      BINDING AFFINITY PREDICTED BY RF-SCORE:    0.00 PKD
ROOT
HETATM    1  C   UNL     1     -10.483  16.280  69.689  1.00  0.00    -0.294 C  
HETATM    2  C   UNL     1     -11.982  16.107  69.894  1.00  0.00    -0.042 C  
ENDROOT
BRANCH   2   3
HETATM    3  N   UNL     1     -12.323  15.533  71.200  1.00  0.00    -0.376 N  
BRANCH   3   4
HETATM    4  C   UNL     1     -12.129  16.371  72.388  1.00  0.00    -0.415 C  
HETATM    5  C   UNL     1     -11.700  15.607  73.627  1.00  0.00    -0.190 C  
ENDBRANCH   3   4
BRANCH   3   6
HETATM    6  C   UNL     1     -12.998  14.313  71.196  1.00  0.00    -0.353 C  
HETATM    7  O   UNL     1     -14.221  14.247  71.084  1.00  0.00    -0.208 OA 
BRANCH   6   8
HETATM    8  N   UNL     1     -12.182  13.200  71.285  1.00  0.00    -0.322 N  
HETATM    9  H   UNL     1     -11.798  12.940  72.193  1.00  0.00     0.000 HD 
BRANCH   8  10
HETATM   10  C   UNL     1     -11.867  12.415  70.161  1.00  0.00    -0.262 A  
HETATM   11  C   UNL     1     -11.573  11.058  70.266  1.00  0.00    -0.414 A  
HETATM   12  C   UNL     1     -11.329  10.298  69.119  1.00  0.00    -0.244 A  
HETATM   13  C   UNL     1     -11.397  10.875  67.844  1.00  0.00    -0.308 A  
HETATM   14  C   UNL     1     -11.865  13.017  68.903  1.00  0.00    -0.358 A  
HETATM   15  C   UNL     1     -11.660  12.252  67.740  1.00  0.00    -0.416 A  
BRANCH  13  16
HETATM   16  O   UNL     1     -11.268  10.155  66.686  1.00  0.00     0.061 OA 
BRANCH  16  17
HETATM   17  C   UNL     1     -10.155   9.252  66.587  1.00  0.00    -0.271 C  
BRANCH  17  18
HETATM   18  C   UNL     1      -9.334   9.601  65.339  1.00  0.00    -0.259 C  
HETATM   19  H   UNL     1      -9.644  10.576  63.662  1.00  0.00     0.000 HD 
HETATM   20  O   UNL     1     -10.153  10.359  64.435  1.00  0.00    -0.343 OA 
BRANCH  18  21
HETATM   21  C   UNL     1      -8.063  10.416  65.645  1.00  0.00    -0.156 C  
BRANCH  21  22
HETATM   22  N   UNL     1      -8.339  11.746  66.199  1.00  0.00    -0.386 NA 
HETATM   23  C   UNL     1      -7.560  12.097  67.406  1.00  0.00    -0.155 C  
HETATM   24  H   UNL     1      -9.337  11.851  66.382  1.00  0.00     0.000 HD 
HETATM   25  C   UNL     1      -8.058  13.479  67.873  1.00  0.00    -0.165 C  
HETATM   26  C   UNL     1      -6.057  12.215  67.098  1.00  0.00    -0.143 C  
HETATM   27  C   UNL     1      -7.789  11.091  68.545  1.00  0.00    -0.129 C  
ENDBRANCH  21  22
ENDBRANCH  18  21
ENDBRANCH  17  18
ENDBRANCH  16  17
ENDBRANCH  13  16
BRANCH  15  28
HETATM   28  C   UNL     1     -11.838  13.008  66.463  1.00  0.00    -0.403 C  
HETATM   29  O   UNL     1     -12.607  12.567  65.607  1.00  0.00    -0.612 OA 
HETATM   30  C   UNL     1     -11.137  14.320  66.231  1.00  0.00    -0.323 C  
ENDBRANCH  15  28
ENDBRANCH   8  10
ENDBRANCH   6   8
ENDBRANCH   3   6
ENDBRANCH   2   3
TORSDOF 11
ENDMDL
MODEL       93
REMARK 921   NORMALIZED FREE ENERGY PREDICTED BY IDOCK:   -4.91 KCAL/MOL
REMARK 922        TOTAL FREE ENERGY PREDICTED BY IDOCK:   -9.21 KCAL/MOL
REMARK 923 INTER-LIGAND FREE ENERGY PREDICTED BY IDOCK:   -8.34 KCAL/MOL
REMARK 924 INTRA-LIGAND FREE ENERGY PREDICTED BY IDOCK:   -0.86 KCAL/MOL
REMARK 927      BINDING AFFINITY PREDICTED BY RF-SCORE:    0.00 PKD
ROOT
HETATM    1  C   UNL     1      -9.749   4.846  66.184  1.00  0.00    -0.200 C  
HETATM    2  C   UNL     1     -10.412   6.057  66.825  1.00  0.00    -0.267 C  
ENDROOT
BRANCH   2   3
HETATM    3  N   UNL     1      -9.506   7.201  66.970  1.00  0.00    -0.147 N  
BRANCH   3   4
HETATM    4  C   UNL     1      -8.446   7.367  65.971  1.00  0.00    -0.148 C  
HETATM    5  C   UNL     1      -8.306   8.781  65.438  1.00  0.00    -0.159 C  
ENDBRANCH   3   4
BRANCH   3   6
HETATM    6  C   UNL     1      -9.847   8.158  67.926  1.00  0.00    -0.169 C  
HETATM    7  O   UNL     1      -9.176   8.329  68.942  1.00  0.00    -0.147 OA 
BRANCH   6   8
HETATM    8  N   UNL     1     -10.964   8.913  67.617  1.00  0.00    -0.475 N  
HETATM    9  H   UNL     1     -11.831   8.436  67.373  1.00  0.00     0.000 HD 
BRANCH   8  10
HETATM   10  C   UNL     1     -10.939  10.319  67.628  1.00  0.00    -0.294 A  
HETATM   11  C   UNL     1     -10.320  11.039  68.648  1.00  0.00    -0.209 A  
HETATM   12  C   UNL     1     -10.259  12.434  68.590  1.00  0.00    -0.169 A  
HETATM   13  C   UNL     1     -10.794  13.135  67.501  1.00  0.00    -0.255 A  
HETATM   14  C   UNL     1     -11.539  11.009  66.575  1.00  0.00     0.446 A  
HETATM   15  C   UNL     1     -11.448  12.410  66.489  1.00  0.00    -0.427 A  
BRANCH  13  16
HETATM   16  O   UNL     1     -10.671  14.490  67.345  1.00  0.00    -0.274 OA 
BRANCH  16  17
HETATM   17  C   UNL     1     -11.554  15.327  68.108  1.00  0.00    -0.330 C  
BRANCH  17  18
HETATM   18  C   UNL     1     -10.778  15.931  69.286  1.00  0.00    -0.259 C  
HETATM   19  H   UNL     1      -9.965  17.668  69.710  1.00  0.00     0.000 HD 
HETATM   20  O   UNL     1     -10.445  17.294  68.980  1.00  0.00    -0.337 OA 
BRANCH  18  21
HETATM   21  C   UNL     1     -11.558  15.907  70.615  1.00  0.00    -0.400 C  
BRANCH  21  22
HETATM   22  N   UNL     1     -12.061  14.576  70.975  1.00  0.00    -0.327 NA 
HETATM   23  C   UNL     1     -12.983  14.545  72.131  1.00  0.00    -0.346 C  
HETATM   24  H   UNL     1     -11.282  13.935  71.129  1.00  0.00     0.000 HD 
HETATM   25  C   UNL     1     -13.319  13.065  72.395  1.00  0.00    -0.563 C  
HETATM   26  C   UNL     1     -14.299  15.282  71.828  1.00  0.00    -0.678 C  
HETATM   27  C   UNL     1     -12.330  15.126  73.396  1.00  0.00    -0.597 C  
ENDBRANCH  21  22
ENDBRANCH  18  21
ENDBRANCH  17  18
ENDBRANCH  16  17
ENDBRANCH  13  16
BRANCH  15  28
HETATM   28  C   UNL     1     -12.007  12.990  65.229  1.00  0.00    -0.407 C  
HETATM   29  O   UNL     1     -13.066  13.619  65.277  1.00  0.00    -0.735 OA 
HETATM   30  C   UNL     1     -11.272  12.865  63.922  1.00  0.00    -0.471 C  
ENDBRANCH  15  28
ENDBRANCH   8  10
ENDBRANCH   6   8
ENDBRANCH   3   6
ENDBRANCH   2   3
TORSDOF 11
ENDMDL
MODEL       94
REMARK 921   NORMALIZED FREE ENERGY PREDICTED BY IDOCK:   -4.91 KCAL/MOL
REMARK 922        TOTAL FREE ENERGY PREDICTED BY IDOCK:   -9.20 KCAL/MOL
REMARK 923 INTER-LIGAND FREE ENERGY PREDICTED BY IDOCK:   -8.16 KCAL/MOL
REMARK 924 INTRA-LIGAND FREE ENERGY PREDICTED BY IDOCK:   -1.03 KCAL/MOL
REMARK 927      BINDING AFFINITY PREDICTED BY RF-SCORE:    0.00 PKD
ROOT
HETATM    1  C   UNL     1      -9.479  15.514  65.719  1.00  0.00    -0.334 C  
HETATM    2  C   UNL     1     -10.833  15.213  65.091  1.00  0.00    -0.422 C  
ENDROOT
BRANCH   2   3
HETATM    3  N   UNL     1     -11.091  13.778  64.936  1.00  0.00    -0.344 N  
BRANCH   3   4
HETATM    4  C   UNL     1     -10.054  12.960  64.297  1.00  0.00    -0.226 C  
HETATM    5  C   UNL     1     -10.590  11.811  63.463  1.00  0.00    -0.499 C  
ENDBRANCH   3   4
BRANCH   3   6
HETATM    6  C   UNL     1     -12.210  13.264  65.590  1.00  0.00    -0.462 C  
HETATM    7  O   UNL     1     -13.107  12.681  64.983  1.00  0.00    -0.808 OA 
BRANCH   6   8
HETATM    8  N   UNL     1     -12.203  13.426  66.964  1.00  0.00    -0.321 N  
HETATM    9  H   UNL     1     -12.472  14.328  67.356  1.00  0.00     0.000 HD 
BRANCH   8  10
HETATM   10  C   UNL     1     -11.836  12.385  67.835  1.00  0.00    -0.308 A  
HETATM   11  C   UNL     1     -12.179  12.396  69.185  1.00  0.00    -0.058 A  
HETATM   12  C   UNL     1     -11.853  11.312  70.005  1.00  0.00    -0.448 A  
HETATM   13  C   UNL     1     -11.199  10.186  69.486  1.00  0.00    -0.238 A  
HETATM   14  C   UNL     1     -11.122  11.303  67.323  1.00  0.00    -0.367 A  
HETATM   15  C   UNL     1     -10.824  10.190  68.130  1.00  0.00    -0.310 A  
BRANCH  13  16
HETATM   16  O   UNL     1     -10.949   9.058  70.220  1.00  0.00    -0.237 OA 
BRANCH  16  17
HETATM   17  C   UNL     1     -10.758   9.217  71.635  1.00  0.00    -0.371 C  
BRANCH  17  18
HETATM   18  C   UNL     1      -9.379   8.664  72.020  1.00  0.00    -0.292 C  
HETATM   19  H   UNL     1      -8.640   7.583  73.484  1.00  0.00     0.000 HD 
HETATM   20  O   UNL     1      -9.494   7.925  73.246  1.00  0.00    -0.255 OA 
BRANCH  18  21
HETATM   21  C   UNL     1      -8.765   7.740  70.950  1.00  0.00    -0.137 C  
BRANCH  21  22
HETATM   22  N   UNL     1      -8.873   6.313  71.276  1.00  0.00    -0.139 NA 
HETATM   23  C   UNL     1      -9.488   5.475  70.224  1.00  0.00    -0.165 C  
HETATM   24  H   UNL     1      -9.371   6.191  72.158  1.00  0.00     0.000 HD 
HETATM   25  C   UNL     1      -9.588   4.046  70.793  1.00  0.00    -0.263 C  
HETATM   26  C   UNL     1      -8.614   5.420  68.959  1.00  0.00    -0.102 C  
HETATM   27  C   UNL     1     -10.904   5.954  69.868  1.00  0.00    -0.439 C  
ENDBRANCH  21  22
ENDBRANCH  18  21
ENDBRANCH  17  18
ENDBRANCH  16  17
ENDBRANCH  13  16
BRANCH  15  28
HETATM   28  C   UNL     1     -10.190   9.049  67.403  1.00  0.00    -0.245 C  
HETATM   29  O   UNL     1     -10.910   8.199  66.875  1.00  0.00    -0.250 OA 
HETATM   30  C   UNL     1      -8.694   8.952  67.259  1.00  0.00    -0.125 C  
ENDBRANCH  15  28
ENDBRANCH   8  10
ENDBRANCH   6   8
ENDBRANCH   3   6
ENDBRANCH   2   3
TORSDOF 11
ENDMDL
MODEL       95
REMARK 921   NORMALIZED FREE ENERGY PREDICTED BY IDOCK:   -4.91 KCAL/MOL
REMARK 922        TOTAL FREE ENERGY PREDICTED BY IDOCK:   -9.19 KCAL/MOL
REMARK 923 INTER-LIGAND FREE ENERGY PREDICTED BY IDOCK:   -7.54 KCAL/MOL
REMARK 924 INTRA-LIGAND FREE ENERGY PREDICTED BY IDOCK:   -1.65 KCAL/MOL
REMARK 927      BINDING AFFINITY PREDICTED BY RF-SCORE:    0.00 PKD
ROOT
HETATM    1  C   UNL     1     -11.309  16.025  64.685  1.00  0.00    -0.312 C  
HETATM    2  C   UNL     1     -10.786  14.596  64.725  1.00  0.00    -0.385 C  
ENDROOT
BRANCH   2   3
HETATM    3  N   UNL     1     -11.564  13.721  65.609  1.00  0.00    -0.322 N  
BRANCH   3   4
HETATM    4  C   UNL     1     -12.254  12.575  65.007  1.00  0.00    -0.456 C  
HETATM    5  C   UNL     1     -12.252  12.572  63.489  1.00  0.00    -0.652 C  
ENDBRANCH   3   4
BRANCH   3   6
HETATM    6  C   UNL     1     -11.423  13.926  66.981  1.00  0.00    -0.346 C  
HETATM    7  O   UNL     1     -12.344  14.362  67.672  1.00  0.00    -0.251 OA 
BRANCH   6   8
HETATM    8  N   UNL     1     -10.193  13.562  67.498  1.00  0.00    -0.232 N  
HETATM    9  H   UNL     1      -9.485  14.282  67.642  1.00  0.00     0.000 HD 
BRANCH   8  10
HETATM   10  C   UNL     1      -9.889  12.230  67.830  1.00  0.00    -0.201 A  
HETATM   11  C   UNL     1      -8.953  11.485  67.116  1.00  0.00    -0.166 A  
HETATM   12  C   UNL     1      -8.631  10.186  67.517  1.00  0.00    -0.118 A  
HETATM   13  C   UNL     1      -9.219   9.615  68.654  1.00  0.00    -0.136 A  
HETATM   14  C   UNL     1     -10.535  11.646  68.920  1.00  0.00    -0.201 A  
HETATM   15  C   UNL     1     -10.188  10.355  69.355  1.00  0.00    -0.257 A  
BRANCH  13  16
HETATM   16  O   UNL     1      -8.864   8.388  69.148  1.00  0.00    -0.140 OA 
BRANCH  16  17
HETATM   17  C   UNL     1      -9.143   7.239  68.333  1.00  0.00    -0.135 C  
BRANCH  17  18
HETATM   18  C   UNL     1     -10.561   6.739  68.640  1.00  0.00    -0.227 C  
HETATM   19  H   UNL     1     -11.961   5.757  67.674  1.00  0.00     0.000 HD 
HETATM   20  O   UNL     1     -11.083   6.067  67.483  1.00  0.00    -0.302 OA 
BRANCH  18  21
HETATM   21  C   UNL     1     -10.627   5.771  69.837  1.00  0.00    -0.318 C  
BRANCH  21  22
HETATM   22  N   UNL     1     -10.145   6.358  71.093  1.00  0.00    -0.184 NA 
HETATM   23  C   UNL     1     -10.992   6.093  72.275  1.00  0.00    -0.260 C  
HETATM   24  H   UNL     1     -10.003   7.362  70.980  1.00  0.00     0.000 HD 
HETATM   25  C   UNL     1     -10.366   6.861  73.455  1.00  0.00    -0.368 C  
HETATM   26  C   UNL     1     -11.009   4.598  72.639  1.00  0.00    -0.187 C  
HETATM   27  C   UNL     1     -12.428   6.603  72.074  1.00  0.00    -0.288 C  
ENDBRANCH  21  22
ENDBRANCH  18  21
ENDBRANCH  17  18
ENDBRANCH  16  17
ENDBRANCH  13  16
BRANCH  15  28
HETATM   28  C   UNL     1     -10.857   9.927  70.622  1.00  0.00    -0.330 C  
HETATM   29  O   UNL     1     -10.177   9.425  71.518  1.00  0.00    -0.308 OA 
HETATM   30  C   UNL     1     -12.329  10.152  70.838  1.00  0.00    -0.461 C  
ENDBRANCH  15  28
ENDBRANCH   8  10
ENDBRANCH   6   8
ENDBRANCH   3   6
ENDBRANCH   2   3
TORSDOF 11
ENDMDL
MODEL       96
REMARK 921   NORMALIZED FREE ENERGY PREDICTED BY IDOCK:   -4.88 KCAL/MOL
REMARK 922        TOTAL FREE ENERGY PREDICTED BY IDOCK:   -9.16 KCAL/MOL
REMARK 923 INTER-LIGAND FREE ENERGY PREDICTED BY IDOCK:   -8.44 KCAL/MOL
REMARK 924 INTRA-LIGAND FREE ENERGY PREDICTED BY IDOCK:   -0.72 KCAL/MOL
REMARK 927      BINDING AFFINITY PREDICTED BY RF-SCORE:    0.00 PKD
ROOT
HETATM    1  C   UNL     1      -7.847  16.033  68.446  1.00  0.00    -0.149 C  
HETATM    2  C   UNL     1      -8.965  17.060  68.560  1.00  0.00    -0.263 C  
ENDROOT
BRANCH   2   3
HETATM    3  N   UNL     1      -9.418  17.567  67.260  1.00  0.00    -0.249 N  
BRANCH   3   4
HETATM    4  C   UNL     1      -9.145  18.972  66.938  1.00  0.00    -0.303 C  
HETATM    5  C   UNL     1     -10.290  19.687  66.244  1.00  0.00    -0.619 C  
ENDBRANCH   3   4
BRANCH   3   6
HETATM    6  C   UNL     1      -9.889  16.625  66.346  1.00  0.00    -0.292 C  
HETATM    7  O   UNL     1      -9.208  16.244  65.396  1.00  0.00    -0.316 OA 
BRANCH   6   8
HETATM    8  N   UNL     1     -11.153  16.133  66.620  1.00  0.00    -0.049 N  
HETATM    9  H   UNL     1     -11.956  16.752  66.517  1.00  0.00     0.000 HD 
BRANCH   8  10
HETATM   10  C   UNL     1     -11.361  14.807  67.038  1.00  0.00    -0.353 A  
HETATM   11  C   UNL     1     -11.194  13.726  66.175  1.00  0.00    -0.301 A  
HETATM   12  C   UNL     1     -11.347  12.419  66.645  1.00  0.00    -0.394 A  
HETATM   13  C   UNL     1     -11.647  12.165  67.990  1.00  0.00    -0.348 A  
HETATM   14  C   UNL     1     -11.732  14.571  68.361  1.00  0.00    -0.367 A  
HETATM   15  C   UNL     1     -11.850  13.258  68.852  1.00  0.00    -0.367 A  
BRANCH  13  16
HETATM   16  O   UNL     1     -11.707  10.905  68.523  1.00  0.00    -0.382 OA 
BRANCH  16  17
HETATM   17  C   UNL     1     -11.005   9.860  67.831  1.00  0.00    -0.223 C  
BRANCH  17  18
HETATM   18  C   UNL     1      -9.750   9.485  68.631  1.00  0.00    -0.155 C  
HETATM   19  H   UNL     1      -8.341  10.452  69.599  1.00  0.00     0.000 HD 
HETATM   20  O   UNL     1      -9.118  10.684  69.104  1.00  0.00    -0.181 OA 
BRANCH  18  21
HETATM   21  C   UNL     1     -10.039   8.576  69.841  1.00  0.00    -0.195 C  
BRANCH  21  22
HETATM   22  N   UNL     1     -11.470   8.419  70.127  1.00  0.00    -0.460 NA 
HETATM   23  C   UNL     1     -11.791   7.482  71.226  1.00  0.00    -0.294 C  
HETATM   24  H   UNL     1     -11.971   8.151  69.280  1.00  0.00     0.000 HD 
HETATM   25  C   UNL     1     -13.327   7.394  71.304  1.00  0.00    -0.338 C  
HETATM   26  C   UNL     1     -11.277   7.999  72.581  1.00  0.00    -0.462 C  
HETATM   27  C   UNL     1     -11.239   6.073  70.954  1.00  0.00    -0.335 C  
ENDBRANCH  21  22
ENDBRANCH  18  21
ENDBRANCH  17  18
ENDBRANCH  16  17
ENDBRANCH  13  16
BRANCH  15  28
HETATM   28  C   UNL     1     -12.104  13.167  70.323  1.00  0.00    -0.328 C  
HETATM   29  O   UNL     1     -11.995  14.182  71.014  1.00  0.00    -0.333 OA 
HETATM   30  C   UNL     1     -12.541  11.875  70.958  1.00  0.00    -0.381 C  
ENDBRANCH  15  28
ENDBRANCH   8  10
ENDBRANCH   6   8
ENDBRANCH   3   6
ENDBRANCH   2   3
TORSDOF 11
ENDMDL
MODEL       97
REMARK 921   NORMALIZED FREE ENERGY PREDICTED BY IDOCK:   -4.88 KCAL/MOL
REMARK 922        TOTAL FREE ENERGY PREDICTED BY IDOCK:   -9.15 KCAL/MOL
REMARK 923 INTER-LIGAND FREE ENERGY PREDICTED BY IDOCK:   -6.67 KCAL/MOL
REMARK 924 INTRA-LIGAND FREE ENERGY PREDICTED BY IDOCK:   -2.49 KCAL/MOL
REMARK 927      BINDING AFFINITY PREDICTED BY RF-SCORE:    0.00 PKD
ROOT
HETATM    1  C   UNL     1     -13.036  14.019  65.219  1.00  0.00    -0.315 C  
HETATM    2  C   UNL     1     -12.254  12.718  65.333  1.00  0.00    -0.478 C  
ENDROOT
BRANCH   2   3
HETATM    3  N   UNL     1     -10.858  12.845  64.900  1.00  0.00    -0.295 N  
BRANCH   3   4
HETATM    4  C   UNL     1     -10.108  14.026  65.338  1.00  0.00    -0.319 C  
HETATM    5  C   UNL     1      -9.557  13.929  66.748  1.00  0.00    -0.288 C  
ENDBRANCH   3   4
BRANCH   3   6
HETATM    6  C   UNL     1     -10.289  11.734  64.277  1.00  0.00    -0.314 C  
HETATM    7  O   UNL     1      -9.663  11.830  63.222  1.00  0.00    -0.377 OA 
BRANCH   6   8
HETATM    8  N   UNL     1     -10.450  10.542  64.958  1.00  0.00    -0.237 N  
HETATM    9  H   UNL     1     -10.993   9.795  64.525  1.00  0.00     0.000 HD 
BRANCH   8  10
HETATM   10  C   UNL     1      -9.889  10.328  66.230  1.00  0.00    -0.219 A  
HETATM   11  C   UNL     1      -8.516  10.190  66.418  1.00  0.00    -0.133 A  
HETATM   12  C   UNL     1      -7.992  10.045  67.705  1.00  0.00    -0.105 A  
HETATM   13  C   UNL     1      -8.827  10.059  68.831  1.00  0.00    -0.148 A  
HETATM   14  C   UNL     1     -10.737  10.270  67.336  1.00  0.00    -0.339 A  
HETATM   15  C   UNL     1     -10.216  10.164  68.637  1.00  0.00    -0.193 A  
BRANCH  13  16
HETATM   16  O   UNL     1      -8.356  10.024  70.116  1.00  0.00    -0.177 OA 
BRANCH  16  17
HETATM   17  C   UNL     1      -7.428   8.981  70.454  1.00  0.00    -0.089 C  
BRANCH  17  18
HETATM   18  C   UNL     1      -8.000   8.157  71.615  1.00  0.00    -0.121 C  
HETATM   19  H   UNL     1      -9.335   8.432  73.029  1.00  0.00     0.000 HD 
HETATM   20  O   UNL     1      -8.981   8.942  72.310  1.00  0.00    -0.388 OA 
BRANCH  18  21
HETATM   21  C   UNL     1      -8.658   6.837  71.170  1.00  0.00    -0.132 C  
BRANCH  21  22
HETATM   22  N   UNL     1      -9.748   7.023  70.204  1.00  0.00    -0.175 NA 
HETATM   23  C   UNL     1      -9.679   6.157  69.007  1.00  0.00    -0.135 C  
HETATM   24  H   UNL     1      -9.808   8.003  69.926  1.00  0.00     0.000 HD 
HETATM   25  C   UNL     1     -10.849   6.566  68.091  1.00  0.00    -0.370 C  
HETATM   26  C   UNL     1      -9.859   4.672  69.369  1.00  0.00    -0.272 C  
HETATM   27  C   UNL     1      -8.366   6.356  68.233  1.00  0.00    -0.116 C  
ENDBRANCH  21  22
ENDBRANCH  18  21
ENDBRANCH  17  18
ENDBRANCH  16  17
ENDBRANCH  13  16
BRANCH  15  28
HETATM   28  C   UNL     1     -11.237  10.267  69.724  1.00  0.00    -0.282 C  
HETATM   29  O   UNL     1     -11.582   9.246  70.322  1.00  0.00    -0.225 OA 
HETATM   30  C   UNL     1     -11.806  11.599  70.134  1.00  0.00    -0.428 C  
ENDBRANCH  15  28
ENDBRANCH   8  10
ENDBRANCH   6   8
ENDBRANCH   3   6
ENDBRANCH   2   3
TORSDOF 11
ENDMDL
MODEL       98
REMARK 921   NORMALIZED FREE ENERGY PREDICTED BY IDOCK:   -4.88 KCAL/MOL
REMARK 922        TOTAL FREE ENERGY PREDICTED BY IDOCK:   -9.15 KCAL/MOL
REMARK 923 INTER-LIGAND FREE ENERGY PREDICTED BY IDOCK:   -7.66 KCAL/MOL
REMARK 924 INTRA-LIGAND FREE ENERGY PREDICTED BY IDOCK:   -1.50 KCAL/MOL
REMARK 927      BINDING AFFINITY PREDICTED BY RF-SCORE:    0.00 PKD
ROOT
HETATM    1  C   UNL     1     -12.050  12.322  63.495  1.00  0.00    -0.649 C  
HETATM    2  C   UNL     1     -12.615  12.717  64.852  1.00  0.00    -0.470 C  
ENDROOT
BRANCH   2   3
HETATM    3  N   UNL     1     -11.847  13.779  65.510  1.00  0.00    -0.346 N  
BRANCH   3   4
HETATM    4  C   UNL     1     -11.743  15.074  64.828  1.00  0.00    -0.370 C  
HETATM    5  C   UNL     1     -10.453  15.823  65.103  1.00  0.00    -0.394 C  
ENDBRANCH   3   4
BRANCH   3   6
HETATM    6  C   UNL     1     -11.446  13.545  66.825  1.00  0.00    -0.346 C  
HETATM    7  O   UNL     1     -12.115  13.926  67.786  1.00  0.00    -0.371 OA 
BRANCH   6   8
HETATM    8  N   UNL     1     -10.274  12.824  66.954  1.00  0.00    -0.234 N  
HETATM    9  H   UNL     1      -9.383  13.296  66.797  1.00  0.00     0.000 HD 
BRANCH   8  10
HETATM   10  C   UNL     1     -10.272  11.460  67.296  1.00  0.00    -0.199 A  
HETATM   11  C   UNL     1     -10.079  10.460  66.345  1.00  0.00    -0.287 A  
HETATM   12  C   UNL     1     -10.019   9.119  66.734  1.00  0.00    -0.322 A  
HETATM   13  C   UNL     1     -10.125   8.753  68.083  1.00  0.00    -0.190 A  
HETATM   14  C   UNL     1     -10.452  11.103  68.632  1.00  0.00    -0.220 A  
HETATM   15  C   UNL     1     -10.354   9.760  69.038  1.00  0.00    -0.222 A  
BRANCH  13  16
HETATM   16  O   UNL     1      -9.971   7.468  68.528  1.00  0.00    -0.158 OA 
BRANCH  16  17
HETATM   17  C   UNL     1     -10.806   6.458  67.939  1.00  0.00    -0.322 C  
BRANCH  17  18
HETATM   18  C   UNL     1     -10.102   5.099  68.048  1.00  0.00    -0.128 C  
HETATM   19  H   UNL     1      -8.392   4.334  67.458  1.00  0.00     0.000 HD 
HETATM   20  O   UNL     1      -8.828   5.175  67.390  1.00  0.00    -0.107 OA 
BRANCH  18  21
HETATM   21  C   UNL     1      -9.874   4.637  69.500  1.00  0.00    -0.216 C  
BRANCH  21  22
HETATM   22  N   UNL     1     -10.649   5.400  70.486  1.00  0.00    -0.266 NA 
HETATM   23  C   UNL     1     -10.192   5.261  71.885  1.00  0.00    -0.207 C  
HETATM   24  H   UNL     1     -11.639   5.165  70.414  1.00  0.00     0.000 HD 
HETATM   25  C   UNL     1     -11.179   6.059  72.759  1.00  0.00    -0.299 C  
HETATM   26  C   UNL     1      -8.790   5.860  72.089  1.00  0.00    -0.136 C  
HETATM   27  C   UNL     1     -10.213   3.795  72.349  1.00  0.00    -0.219 C  
ENDBRANCH  21  22
ENDBRANCH  18  21
ENDBRANCH  17  18
ENDBRANCH  16  17
ENDBRANCH  13  16
BRANCH  15  28
HETATM   28  C   UNL     1     -10.419   9.554  70.517  1.00  0.00    -0.296 C  
HETATM   29  O   UNL     1      -9.373   9.376  71.145  1.00  0.00    -0.224 OA 
HETATM   30  C   UNL     1     -11.730   9.615  71.254  1.00  0.00    -0.458 C  
ENDBRANCH  15  28
ENDBRANCH   8  10
ENDBRANCH   6   8
ENDBRANCH   3   6
ENDBRANCH   2   3
TORSDOF 11
ENDMDL
MODEL       99
REMARK 921   NORMALIZED FREE ENERGY PREDICTED BY IDOCK:   -4.87 KCAL/MOL
REMARK 922        TOTAL FREE ENERGY PREDICTED BY IDOCK:   -9.13 KCAL/MOL
REMARK 923 INTER-LIGAND FREE ENERGY PREDICTED BY IDOCK:   -7.87 KCAL/MOL
REMARK 924 INTRA-LIGAND FREE ENERGY PREDICTED BY IDOCK:   -1.25 KCAL/MOL
REMARK 927      BINDING AFFINITY PREDICTED BY RF-SCORE:    0.00 PKD
ROOT
HETATM    1  C   UNL     1      -8.405  10.956  67.012  1.00  0.00    -0.132 C  
HETATM    2  C   UNL     1      -8.768  10.048  68.179  1.00  0.00    -0.122 C  
ENDROOT
BRANCH   2   3
HETATM    3  N   UNL     1     -10.173   9.627  68.167  1.00  0.00    -0.180 N  
BRANCH   3   4
HETATM    4  C   UNL     1     -10.558   8.552  67.246  1.00  0.00    -0.245 C  
HETATM    5  C   UNL     1      -9.549   7.423  67.146  1.00  0.00    -0.204 C  
ENDBRANCH   3   4
BRANCH   3   6
HETATM    6  C   UNL     1     -10.992  10.135  69.174  1.00  0.00    -0.230 C  
HETATM    7  O   UNL     1     -10.786   9.896  70.363  1.00  0.00    -0.279 OA 
BRANCH   6   8
HETATM    8  N   UNL     1     -12.016  10.953  68.730  1.00  0.00    -0.452 N  
HETATM    9  H   UNL     1     -12.969  10.590  68.720  1.00  0.00     0.000 HD 
BRANCH   8  10
HETATM   10  C   UNL     1     -11.782  12.269  68.293  1.00  0.00    -0.336 A  
HETATM   11  C   UNL     1     -11.612  13.325  69.186  1.00  0.00    -0.370 A  
HETATM   12  C   UNL     1     -11.316  14.606  68.714  1.00  0.00    -0.302 A  
HETATM   13  C   UNL     1     -11.161  14.853  67.343  1.00  0.00    -0.338 A  
HETATM   14  C   UNL     1     -11.703  12.516  66.923  1.00  0.00    -0.447 A  
HETATM   15  C   UNL     1     -11.367  13.794  66.441  1.00  0.00    -0.327 A  
BRANCH  13  16
HETATM   16  O   UNL     1     -10.772  16.064  66.837  1.00  0.00    -0.314 OA 
BRANCH  16  17
HETATM   17  C   UNL     1      -9.920  16.882  67.655  1.00  0.00    -0.271 C  
BRANCH  17  18
HETATM   18  C   UNL     1      -9.843  18.289  67.048  1.00  0.00    -0.326 C  
HETATM   19  H   UNL     1     -11.005  19.871  66.976  1.00  0.00     0.000 HD 
HETATM   20  O   UNL     1     -11.053  18.999  67.352  1.00  0.00    -0.395 OA 
BRANCH  18  21
HETATM   21  C   UNL     1      -8.650  19.117  67.563  1.00  0.00    -0.288 C  
BRANCH  21  22
HETATM   22  N   UNL     1      -7.879  18.444  68.615  1.00  0.00    -0.308 NA 
HETATM   23  C   UNL     1      -6.451  18.820  68.686  1.00  0.00    -0.241 C  
HETATM   24  H   UNL     1      -7.972  17.431  68.526  1.00  0.00     0.000 HD 
HETATM   25  C   UNL     1      -5.811  17.947  69.783  1.00  0.00    -0.243 C  
HETATM   26  C   UNL     1      -6.271  20.294  69.090  1.00  0.00    -0.363 C  
HETATM   27  C   UNL     1      -5.722  18.543  67.361  1.00  0.00    -0.153 C  
ENDBRANCH  21  22
ENDBRANCH  18  21
ENDBRANCH  17  18
ENDBRANCH  16  17
ENDBRANCH  13  16
BRANCH  15  28
HETATM   28  C   UNL     1     -11.173  13.866  64.961  1.00  0.00    -0.342 C  
HETATM   29  O   UNL     1     -10.067  13.597  64.487  1.00  0.00    -0.349 OA 
HETATM   30  C   UNL     1     -12.315  14.205  64.041  1.00  0.00    -0.315 C  
ENDBRANCH  15  28
ENDBRANCH   8  10
ENDBRANCH   6   8
ENDBRANCH   3   6
ENDBRANCH   2   3
TORSDOF 11
ENDMDL
MODEL      100
REMARK 921   NORMALIZED FREE ENERGY PREDICTED BY IDOCK:   -4.87 KCAL/MOL
REMARK 922        TOTAL FREE ENERGY PREDICTED BY IDOCK:   -9.13 KCAL/MOL
REMARK 923 INTER-LIGAND FREE ENERGY PREDICTED BY IDOCK:   -7.37 KCAL/MOL
REMARK 924 INTRA-LIGAND FREE ENERGY PREDICTED BY IDOCK:   -1.75 KCAL/MOL
REMARK 927      BINDING AFFINITY PREDICTED BY RF-SCORE:    0.00 PKD
ROOT
HETATM    1  C   UNL     1     -12.042  14.565  70.004  1.00  0.00    -0.395 C  
HETATM    2  C   UNL     1     -10.842  15.082  69.222  1.00  0.00    -0.261 C  
ENDROOT
BRANCH   2   3
HETATM    3  N   UNL     1     -10.634  14.378  67.952  1.00  0.00    -0.238 N  
BRANCH   3   4
HETATM    4  C   UNL     1     -11.313  14.898  66.760  1.00  0.00    -0.328 C  
HETATM    5  C   UNL     1     -12.363  13.967  66.183  1.00  0.00    -0.504 C  
ENDBRANCH   3   4
BRANCH   3   6
HETATM    6  C   UNL     1      -9.647  13.393  67.932  1.00  0.00    -0.216 C  
HETATM    7  O   UNL     1      -8.465  13.653  68.149  1.00  0.00    -0.159 OA 
BRANCH   6   8
HETATM    8  N   UNL     1     -10.111  12.113  67.691  1.00  0.00    -0.196 N  
HETATM    9  H   UNL     1     -10.359  11.848  66.738  1.00  0.00     0.000 HD 
BRANCH   8  10
HETATM   10  C   UNL     1     -10.252  11.165  68.721  1.00  0.00    -0.206 A  
HETATM   11  C   UNL     1      -9.202  10.337  69.111  1.00  0.00    -0.203 A  
HETATM   12  C   UNL     1      -9.362   9.454  70.183  1.00  0.00    -0.276 A  
HETATM   13  C   UNL     1     -10.565   9.398  70.899  1.00  0.00    -0.320 A  
HETATM   14  C   UNL     1     -11.478  11.066  69.378  1.00  0.00    -0.364 A  
HETATM   15  C   UNL     1     -11.636  10.209  70.482  1.00  0.00    -0.411 A  
BRANCH  13  16
HETATM   16  O   UNL     1     -10.739   8.627  72.017  1.00  0.00    -0.311 OA 
BRANCH  16  17
HETATM   17  C   UNL     1      -9.905   7.466  72.158  1.00  0.00    -0.172 C  
BRANCH  17  18
HETATM   18  C   UNL     1     -10.753   6.208  71.933  1.00  0.00    -0.232 C  
HETATM   19  H   UNL     1     -12.663   5.753  71.995  1.00  0.00     0.000 HD 
HETATM   20  O   UNL     1     -12.137   6.532  72.134  1.00  0.00    -0.315 OA 
BRANCH  18  21
HETATM   21  C   UNL     1     -10.595   5.600  70.526  1.00  0.00    -0.284 C  
BRANCH  21  22
HETATM   22  N   UNL     1      -9.446   6.133  69.784  1.00  0.00    -0.149 NA 
HETATM   23  C   UNL     1      -9.577   6.094  68.312  1.00  0.00    -0.120 C  
HETATM   24  H   UNL     1      -8.590   5.658  70.073  1.00  0.00     0.000 HD 
HETATM   25  C   UNL     1      -8.246   6.608  67.730  1.00  0.00    -0.119 C  
HETATM   26  C   UNL     1     -10.700   7.022  67.817  1.00  0.00    -0.300 C  
HETATM   27  C   UNL     1      -9.809   4.663  67.798  1.00  0.00    -0.183 C  
ENDBRANCH  21  22
ENDBRANCH  18  21
ENDBRANCH  17  18
ENDBRANCH  16  17
ENDBRANCH  13  16
BRANCH  15  28
HETATM   28  C   UNL     1     -12.956  10.326  71.173  1.00  0.00    -0.409 C  
HETATM   29  O   UNL     1     -13.748   9.383  71.116  1.00  0.00    -0.304 OA 
HETATM   30  C   UNL     1     -13.307  11.547  71.979  1.00  0.00    -0.397 C  
ENDBRANCH  15  28
ENDBRANCH   8  10
ENDBRANCH   6   8
ENDBRANCH   3   6
ENDBRANCH   2   3
TORSDOF 11
ENDMDL
MODEL      101
REMARK 921   NORMALIZED FREE ENERGY PREDICTED BY IDOCK:   -4.86 KCAL/MOL
REMARK 922        TOTAL FREE ENERGY PREDICTED BY IDOCK:   -9.12 KCAL/MOL
REMARK 923 INTER-LIGAND FREE ENERGY PREDICTED BY IDOCK:   -8.05 KCAL/MOL
REMARK 924 INTRA-LIGAND FREE ENERGY PREDICTED BY IDOCK:   -1.06 KCAL/MOL
REMARK 927      BINDING AFFINITY PREDICTED BY RF-SCORE:    0.00 PKD
ROOT
HETATM    1  C   UNL     1     -12.543  12.026  63.337  1.00  0.00    -0.592 C  
HETATM    2  C   UNL     1     -11.350  12.821  63.850  1.00  0.00    -0.442 C  
ENDROOT
BRANCH   2   3
HETATM    3  N   UNL     1     -11.439  13.138  65.279  1.00  0.00    -0.295 N  
BRANCH   3   4
HETATM    4  C   UNL     1     -11.999  14.439  65.660  1.00  0.00    -0.354 C  
HETATM    5  C   UNL     1     -11.194  15.182  66.709  1.00  0.00    -0.285 C  
ENDBRANCH   3   4
BRANCH   3   6
HETATM    6  C   UNL     1     -11.176  12.100  66.172  1.00  0.00    -0.338 C  
HETATM    7  O   UNL     1     -11.971  11.788  67.058  1.00  0.00    -0.610 OA 
BRANCH   6   8
HETATM    8  N   UNL     1      -9.984  11.435  65.953  1.00  0.00    -0.224 N  
HETATM    9  H   UNL     1      -9.339  11.795  65.250  1.00  0.00     0.000 HD 
BRANCH   8  10
HETATM   10  C   UNL     1      -9.634  10.277  66.670  1.00  0.00    -0.175 A  
HETATM   11  C   UNL     1      -9.741   9.003  66.116  1.00  0.00    -0.354 A  
HETATM   12  C   UNL     1      -9.321   7.883  66.837  1.00  0.00    -0.209 A  
HETATM   13  C   UNL     1      -8.765   8.014  68.117  1.00  0.00    -0.126 A  
HETATM   14  C   UNL     1      -9.149  10.415  67.971  1.00  0.00    -0.136 A  
HETATM   15  C   UNL     1      -8.688   9.297  68.689  1.00  0.00    -0.132 A  
BRANCH  13  16
HETATM   16  O   UNL     1      -8.245   6.963  68.823  1.00  0.00    -0.119 OA 
BRANCH  16  17
HETATM   17  C   UNL     1      -8.943   6.551  70.009  1.00  0.00    -0.144 C  
BRANCH  17  18
HETATM   18  C   UNL     1     -10.204   5.775  69.605  1.00  0.00    -0.233 C  
HETATM   19  H   UNL     1     -10.857   3.931  69.789  1.00  0.00     0.000 HD 
HETATM   20  O   UNL     1     -10.076   4.412  70.040  1.00  0.00    -0.218 OA 
BRANCH  18  21
HETATM   21  C   UNL     1     -11.502   6.355  70.198  1.00  0.00    -0.417 C  
BRANCH  21  22
HETATM   22  N   UNL     1     -11.503   7.821  70.283  1.00  0.00    -0.456 NA 
HETATM   23  C   UNL     1     -12.111   8.377  71.510  1.00  0.00    -0.301 C  
HETATM   24  H   UNL     1     -11.949   8.221  69.457  1.00  0.00     0.000 HD 
HETATM   25  C   UNL     1     -12.093   9.911  71.364  1.00  0.00    -0.501 C  
HETATM   26  C   UNL     1     -11.297   8.012  72.764  1.00  0.00    -0.439 C  
HETATM   27  C   UNL     1     -13.571   7.925  71.679  1.00  0.00    -0.397 C  
ENDBRANCH  21  22
ENDBRANCH  18  21
ENDBRANCH  17  18
ENDBRANCH  16  17
ENDBRANCH  13  16
BRANCH  15  28
HETATM   28  C   UNL     1      -8.060   9.623  70.006  1.00  0.00    -0.178 C  
HETATM   29  O   UNL     1      -8.740   9.545  71.030  1.00  0.00    -0.260 OA 
HETATM   30  C   UNL     1      -6.603   9.989  70.103  1.00  0.00    -0.117 C  
ENDBRANCH  15  28
ENDBRANCH   8  10
ENDBRANCH   6   8
ENDBRANCH   3   6
ENDBRANCH   2   3
TORSDOF 11
ENDMDL
MODEL      102
REMARK 921   NORMALIZED FREE ENERGY PREDICTED BY IDOCK:   -4.86 KCAL/MOL
REMARK 922        TOTAL FREE ENERGY PREDICTED BY IDOCK:   -9.11 KCAL/MOL
REMARK 923 INTER-LIGAND FREE ENERGY PREDICTED BY IDOCK:   -7.46 KCAL/MOL
REMARK 924 INTRA-LIGAND FREE ENERGY PREDICTED BY IDOCK:   -1.66 KCAL/MOL
REMARK 927      BINDING AFFINITY PREDICTED BY RF-SCORE:    0.00 PKD
ROOT
HETATM    1  C   UNL     1     -11.135  16.044  64.732  1.00  0.00    -0.378 C  
HETATM    2  C   UNL     1     -10.764  14.569  64.660  1.00  0.00    -0.310 C  
ENDROOT
BRANCH   2   3
HETATM    3  N   UNL     1     -11.617  13.718  65.497  1.00  0.00    -0.318 N  
BRANCH   3   4
HETATM    4  C   UNL     1     -12.119  14.277  66.757  1.00  0.00    -0.417 C  
HETATM    5  C   UNL     1     -11.154  14.158  67.922  1.00  0.00    -0.285 C  
ENDBRANCH   3   4
BRANCH   3   6
HETATM    6  C   UNL     1     -12.053  12.518  64.936  1.00  0.00    -0.440 C  
HETATM    7  O   UNL     1     -13.207  12.370  64.535  1.00  0.00    -0.834 OA 
BRANCH   6   8
HETATM    8  N   UNL     1     -11.082  11.539  64.834  1.00  0.00    -0.256 N  
HETATM    9  H   UNL     1     -10.901  11.116  63.924  1.00  0.00     0.000 HD 
BRANCH   8  10
HETATM   10  C   UNL     1     -10.337  11.109  65.947  1.00  0.00    -0.259 A  
HETATM   11  C   UNL     1      -8.944  11.098  65.944  1.00  0.00    -0.210 A  
HETATM   12  C   UNL     1      -8.240  10.727  67.093  1.00  0.00    -0.123 A  
HETATM   13  C   UNL     1      -8.913  10.381  68.272  1.00  0.00    -0.135 A  
HETATM   14  C   UNL     1     -11.020  10.697  67.091  1.00  0.00    -0.312 A  
HETATM   15  C   UNL     1     -10.320  10.359  68.263  1.00  0.00    -0.198 A  
BRANCH  13  16
HETATM   16  O   UNL     1      -8.273  10.109  69.451  1.00  0.00    -0.140 OA 
BRANCH  16  17
HETATM   17  C   UNL     1      -7.664   8.815  69.592  1.00  0.00    -0.088 C  
BRANCH  17  18
HETATM   18  C   UNL     1      -7.405   8.541  71.079  1.00  0.00    -0.074 C  
HETATM   19  H   UNL     1      -6.385   9.395  72.524  1.00  0.00     0.000 HD 
HETATM   20  O   UNL     1      -6.546   9.564  71.603  1.00  0.00    -0.299 OA 
BRANCH  18  21
HETATM   21  C   UNL     1      -8.689   8.500  71.931  1.00  0.00    -0.203 C  
BRANCH  21  22
HETATM   22  N   UNL     1      -9.532   7.329  71.664  1.00  0.00    -0.152 NA 
HETATM   23  C   UNL     1     -10.550   7.040  72.697  1.00  0.00    -0.245 C  
HETATM   24  H   UNL     1      -8.951   6.506  71.504  1.00  0.00     0.000 HD 
HETATM   25  C   UNL     1     -11.258   5.738  72.276  1.00  0.00    -0.333 C  
HETATM   26  C   UNL     1     -11.611   8.151  72.777  1.00  0.00    -0.371 C  
HETATM   27  C   UNL     1      -9.913   6.818  74.079  1.00  0.00    -0.367 C  
ENDBRANCH  21  22
ENDBRANCH  18  21
ENDBRANCH  17  18
ENDBRANCH  16  17
ENDBRANCH  13  16
BRANCH  15  28
HETATM   28  C   UNL     1     -11.190  10.086  69.448  1.00  0.00    -0.188 C  
HETATM   29  O   UNL     1     -11.401   8.918  69.780  1.00  0.00    -0.090 OA 
HETATM   30  C   UNL     1     -11.763  11.210  70.268  1.00  0.00    -0.431 C  
ENDBRANCH  15  28
ENDBRANCH   8  10
ENDBRANCH   6   8
ENDBRANCH   3   6
ENDBRANCH   2   3
TORSDOF 11
ENDMDL
MODEL      103
REMARK 921   NORMALIZED FREE ENERGY PREDICTED BY IDOCK:   -4.85 KCAL/MOL
REMARK 922        TOTAL FREE ENERGY PREDICTED BY IDOCK:   -9.11 KCAL/MOL
REMARK 923 INTER-LIGAND FREE ENERGY PREDICTED BY IDOCK:   -8.41 KCAL/MOL
REMARK 924 INTRA-LIGAND FREE ENERGY PREDICTED BY IDOCK:   -0.69 KCAL/MOL
REMARK 927      BINDING AFFINITY PREDICTED BY RF-SCORE:    0.00 PKD
ROOT
HETATM    1  C   UNL     1     -10.927  15.822  64.759  1.00  0.00    -0.410 C  
HETATM    2  C   UNL     1     -12.166  14.959  64.568  1.00  0.00    -0.382 C  
ENDROOT
BRANCH   2   3
HETATM    3  N   UNL     1     -12.200  13.793  65.458  1.00  0.00    -0.413 N  
BRANCH   3   4
HETATM    4  C   UNL     1     -12.567  12.497  64.877  1.00  0.00    -0.390 C  
HETATM    5  C   UNL     1     -12.062  12.282  63.462  1.00  0.00    -0.649 C  
ENDBRANCH   3   4
BRANCH   3   6
HETATM    6  C   UNL     1     -11.682  13.964  66.741  1.00  0.00    -0.399 C  
HETATM    7  O   UNL     1     -12.105  14.833  67.502  1.00  0.00    -0.301 OA 
BRANCH   6   8
HETATM    8  N   UNL     1     -10.696  13.061  67.093  1.00  0.00    -0.253 N  
HETATM    9  H   UNL     1      -9.836  13.029  66.546  1.00  0.00     0.000 HD 
BRANCH   8  10
HETATM   10  C   UNL     1     -10.844  12.184  68.183  1.00  0.00    -0.222 A  
HETATM   11  C   UNL     1     -11.980  12.192  68.989  1.00  0.00    -0.302 A  
HETATM   12  C   UNL     1     -12.118  11.262  70.022  1.00  0.00    -0.425 A  
HETATM   13  C   UNL     1     -11.135  10.290  70.255  1.00  0.00    -0.319 A  
HETATM   14  C   UNL     1      -9.825  11.270  68.451  1.00  0.00    -0.200 A  
HETATM   15  C   UNL     1      -9.973  10.304  69.463  1.00  0.00    -0.252 A  
BRANCH  13  16
HETATM   16  O   UNL     1     -11.268   9.294  71.185  1.00  0.00    -0.284 OA 
BRANCH  16  17
HETATM   17  C   UNL     1     -12.567   8.700  71.338  1.00  0.00    -0.291 C  
BRANCH  17  18
HETATM   18  C   UNL     1     -12.415   7.175  71.414  1.00  0.00    -0.388 C  
HETATM   19  H   UNL     1     -11.890   5.737  70.183  1.00  0.00     0.000 HD 
HETATM   20  O   UNL     1     -11.984   6.681  70.137  1.00  0.00    -0.367 OA 
BRANCH  18  21
HETATM   21  C   UNL     1     -11.407   6.708  72.482  1.00  0.00    -0.253 C  
BRANCH  21  22
HETATM   22  N   UNL     1     -11.702   5.376  73.024  1.00  0.00    -0.536 NA 
HETATM   23  C   UNL     1     -10.539   4.469  73.124  1.00  0.00    -0.216 C  
HETATM   24  H   UNL     1     -12.447   4.935  72.486  1.00  0.00     0.000 HD 
HETATM   25  C   UNL     1     -11.072   3.112  73.625  1.00  0.00    -0.321 C  
HETATM   26  C   UNL     1      -9.506   4.977  74.145  1.00  0.00    -0.129 C  
HETATM   27  C   UNL     1      -9.868   4.249  71.758  1.00  0.00    -0.250 C  
ENDBRANCH  21  22
ENDBRANCH  18  21
ENDBRANCH  17  18
ENDBRANCH  16  17
ENDBRANCH  13  16
BRANCH  15  28
HETATM   28  C   UNL     1      -8.866   9.302  69.529  1.00  0.00    -0.151 C  
HETATM   29  O   UNL     1      -9.022   8.201  68.997  1.00  0.00    -0.143 OA 
HETATM   30  C   UNL     1      -7.552   9.635  70.183  1.00  0.00    -0.165 C  
ENDBRANCH  15  28
ENDBRANCH   8  10
ENDBRANCH   6   8
ENDBRANCH   3   6
ENDBRANCH   2   3
TORSDOF 11
ENDMDL
MODEL      104
REMARK 921   NORMALIZED FREE ENERGY PREDICTED BY IDOCK:   -4.84 KCAL/MOL
REMARK 922        TOTAL FREE ENERGY PREDICTED BY IDOCK:   -9.09 KCAL/MOL
REMARK 923 INTER-LIGAND FREE ENERGY PREDICTED BY IDOCK:   -8.76 KCAL/MOL
REMARK 924 INTRA-LIGAND FREE ENERGY PREDICTED BY IDOCK:   -0.32 KCAL/MOL
REMARK 927      BINDING AFFINITY PREDICTED BY RF-SCORE:    0.00 PKD
ROOT
HETATM    1  C   UNL     1     -11.031  16.466  70.307  1.00  0.00    -0.262 C  
HETATM    2  C   UNL     1     -11.199  15.469  71.445  1.00  0.00    -0.346 C  
ENDROOT
BRANCH   2   3
HETATM    3  N   UNL     1     -12.494  14.781  71.423  1.00  0.00    -0.315 N  
BRANCH   3   4
HETATM    4  C   UNL     1     -13.641  15.459  72.038  1.00  0.00    -0.487 C  
HETATM    5  C   UNL     1     -13.391  15.951  73.451  1.00  0.00    -0.609 C  
ENDBRANCH   3   4
BRANCH   3   6
HETATM    6  C   UNL     1     -12.584  13.630  70.641  1.00  0.00    -0.296 C  
HETATM    7  O   UNL     1     -12.717  12.514  71.141  1.00  0.00    -0.354 OA 
BRANCH   6   8
HETATM    8  N   UNL     1     -12.553  13.853  69.277  1.00  0.00    -0.311 N  
HETATM    9  H   UNL     1     -13.027  14.673  68.899  1.00  0.00     0.000 HD 
BRANCH   8  10
HETATM   10  C   UNL     1     -11.887  12.983  68.395  1.00  0.00    -0.334 A  
HETATM   11  C   UNL     1     -11.023  11.990  68.849  1.00  0.00    -0.277 A  
HETATM   12  C   UNL     1     -10.432  11.102  67.945  1.00  0.00    -0.220 A  
HETATM   13  C   UNL     1     -10.711  11.176  66.574  1.00  0.00    -0.260 A  
HETATM   14  C   UNL     1     -12.117  13.113  67.025  1.00  0.00    -0.366 A  
HETATM   15  C   UNL     1     -11.557  12.200  66.113  1.00  0.00    -0.418 A  
BRANCH  13  16
HETATM   16  O   UNL     1     -10.240  10.270  65.662  1.00  0.00    -0.273 OA 
BRANCH  16  17
HETATM   17  C   UNL     1      -8.816  10.109  65.561  1.00  0.00    -0.169 C  
BRANCH  17  18
HETATM   18  C   UNL     1      -8.510   8.795  64.830  1.00  0.00    -0.171 C  
HETATM   19  H   UNL     1      -7.229   8.192  63.468  1.00  0.00     0.000 HD 
HETATM   20  O   UNL     1      -7.419   9.006  63.921  1.00  0.00    -0.105 OA 
BRANCH  18  21
HETATM   21  C   UNL     1      -8.139   7.636  65.776  1.00  0.00    -0.126 C  
BRANCH  21  22
HETATM   22  N   UNL     1      -8.913   6.413  65.535  1.00  0.00    -0.360 NA 
HETATM   23  C   UNL     1      -9.756   5.971  66.666  1.00  0.00    -0.157 C  
HETATM   24  H   UNL     1      -8.294   5.656  65.242  1.00  0.00     0.000 HD 
HETATM   25  C   UNL     1     -10.408   4.639  66.246  1.00  0.00    -0.293 C  
HETATM   26  C   UNL     1     -10.883   6.976  66.961  1.00  0.00    -0.413 C  
HETATM   27  C   UNL     1      -8.925   5.723  67.935  1.00  0.00    -0.111 C  
ENDBRANCH  21  22
ENDBRANCH  18  21
ENDBRANCH  17  18
ENDBRANCH  16  17
ENDBRANCH  13  16
BRANCH  15  28
HETATM   28  C   UNL     1     -12.015  12.377  64.701  1.00  0.00    -0.394 C  
HETATM   29  O   UNL     1     -13.218  12.511  64.473  1.00  0.00    -0.832 OA 
HETATM   30  C   UNL     1     -11.028  12.449  63.566  1.00  0.00    -0.506 C  
ENDBRANCH  15  28
ENDBRANCH   8  10
ENDBRANCH   6   8
ENDBRANCH   3   6
ENDBRANCH   2   3
TORSDOF 11
ENDMDL
MODEL      105
REMARK 921   NORMALIZED FREE ENERGY PREDICTED BY IDOCK:   -4.84 KCAL/MOL
REMARK 922        TOTAL FREE ENERGY PREDICTED BY IDOCK:   -9.09 KCAL/MOL
REMARK 923 INTER-LIGAND FREE ENERGY PREDICTED BY IDOCK:   -7.98 KCAL/MOL
REMARK 924 INTRA-LIGAND FREE ENERGY PREDICTED BY IDOCK:   -1.11 KCAL/MOL
REMARK 927      BINDING AFFINITY PREDICTED BY RF-SCORE:    0.00 PKD
ROOT
HETATM    1  C   UNL     1     -11.124   6.649  67.571  1.00  0.00    -0.374 C  
HETATM    2  C   UNL     1     -11.026   6.516  69.084  1.00  0.00    -0.323 C  
ENDROOT
BRANCH   2   3
HETATM    3  N   UNL     1     -10.100   7.479  69.689  1.00  0.00    -0.185 N  
BRANCH   3   4
HETATM    4  C   UNL     1      -8.683   7.107  69.776  1.00  0.00    -0.142 C  
HETATM    5  C   UNL     1      -8.144   7.027  71.192  1.00  0.00    -0.105 C  
ENDBRANCH   3   4
BRANCH   3   6
HETATM    6  C   UNL     1     -10.598   8.755  69.949  1.00  0.00    -0.224 C  
HETATM    7  O   UNL     1     -11.587   8.935  70.659  1.00  0.00    -0.271 OA 
BRANCH   6   8
HETATM    8  N   UNL     1      -9.873   9.787  69.381  1.00  0.00    -0.192 N  
HETATM    9  H   UNL     1      -8.944   9.997  69.746  1.00  0.00     0.000 HD 
BRANCH   8  10
HETATM   10  C   UNL     1     -10.377  10.554  68.316  1.00  0.00    -0.168 A  
HETATM   11  C   UNL     1     -11.264  11.609  68.521  1.00  0.00    -0.312 A  
HETATM   12  C   UNL     1     -11.691  12.390  67.444  1.00  0.00    -0.417 A  
HETATM   13  C   UNL     1     -11.224  12.147  66.145  1.00  0.00    -0.338 A  
HETATM   14  C   UNL     1      -9.961  10.256  67.019  1.00  0.00    -0.249 A  
HETATM   15  C   UNL     1     -10.355  11.060  65.935  1.00  0.00    -0.315 A  
BRANCH  13  16
HETATM   16  O   UNL     1     -11.530  12.943  65.074  1.00  0.00    -0.300 OA 
BRANCH  16  17
HETATM   17  C   UNL     1     -12.097  14.234  65.349  1.00  0.00    -0.396 C  
BRANCH  17  18
HETATM   18  C   UNL     1     -11.195  15.317  64.743  1.00  0.00    -0.396 C  
HETATM   19  H   UNL     1     -11.396  16.758  63.423  1.00  0.00     0.000 HD 
HETATM   20  O   UNL     1     -11.954  16.087  63.799  1.00  0.00    -0.844 OA 
BRANCH  18  21
HETATM   21  C   UNL     1     -10.599  16.280  65.788  1.00  0.00    -0.324 C  
BRANCH  21  22
HETATM   22  N   UNL     1     -10.202  15.616  67.036  1.00  0.00    -0.268 NA 
HETATM   23  C   UNL     1      -9.371  16.435  67.944  1.00  0.00    -0.214 C  
HETATM   24  H   UNL     1      -9.734  14.733  66.831  1.00  0.00     0.000 HD 
HETATM   25  C   UNL     1      -8.993  15.536  69.138  1.00  0.00    -0.256 C  
HETATM   26  C   UNL     1     -10.148  17.644  68.492  1.00  0.00    -0.375 C  
HETATM   27  C   UNL     1      -8.074  16.904  67.264  1.00  0.00    -0.207 C  
ENDBRANCH  21  22
ENDBRANCH  18  21
ENDBRANCH  17  18
ENDBRANCH  16  17
ENDBRANCH  13  16
BRANCH  15  28
HETATM   28  C   UNL     1      -9.708  10.707  64.634  1.00  0.00    -0.302 C  
HETATM   29  O   UNL     1     -10.366  10.789  63.595  1.00  0.00    -0.327 OA 
HETATM   30  C   UNL     1      -8.258  10.308  64.569  1.00  0.00    -0.158 C  
ENDBRANCH  15  28
ENDBRANCH   8  10
ENDBRANCH   6   8
ENDBRANCH   3   6
ENDBRANCH   2   3
TORSDOF 11
ENDMDL
MODEL      106
REMARK 921   NORMALIZED FREE ENERGY PREDICTED BY IDOCK:   -4.84 KCAL/MOL
REMARK 922        TOTAL FREE ENERGY PREDICTED BY IDOCK:   -9.08 KCAL/MOL
REMARK 923 INTER-LIGAND FREE ENERGY PREDICTED BY IDOCK:   -7.30 KCAL/MOL
REMARK 924 INTRA-LIGAND FREE ENERGY PREDICTED BY IDOCK:   -1.78 KCAL/MOL
REMARK 927      BINDING AFFINITY PREDICTED BY RF-SCORE:    0.00 PKD
ROOT
HETATM    1  C   UNL     1     -11.231  16.331  64.652  1.00  0.00    -0.264 C  
HETATM    2  C   UNL     1     -10.389  15.173  65.170  1.00  0.00    -0.385 C  
ENDROOT
BRANCH   2   3
HETATM    3  N   UNL     1     -11.180  13.973  65.468  1.00  0.00    -0.306 N  
BRANCH   3   4
HETATM    4  C   UNL     1     -12.295  14.103  66.411  1.00  0.00    -0.400 C  
HETATM    5  C   UNL     1     -11.878  14.465  67.825  1.00  0.00    -0.402 C  
ENDBRANCH   3   4
BRANCH   3   6
HETATM    6  C   UNL     1     -10.941  12.849  64.677  1.00  0.00    -0.332 C  
HETATM    7  O   UNL     1     -11.641  12.581  63.701  1.00  0.00    -0.425 OA 
BRANCH   6   8
HETATM    8  N   UNL     1      -9.843  12.098  65.054  1.00  0.00    -0.395 N  
HETATM    9  H   UNL     1      -8.912  12.416  64.788  1.00  0.00     0.000 HD 
BRANCH   8  10
HETATM   10  C   UNL     1      -9.973  10.908  65.793  1.00  0.00    -0.247 A  
HETATM   11  C   UNL     1      -9.726   9.658  65.231  1.00  0.00    -0.330 A  
HETATM   12  C   UNL     1      -9.802   8.505  66.016  1.00  0.00    -0.135 A  
HETATM   13  C   UNL     1     -10.103   8.580  67.382  1.00  0.00    -0.234 A  
HETATM   14  C   UNL     1     -10.345  10.990  67.135  1.00  0.00    -0.259 A  
HETATM   15  C   UNL     1     -10.386   9.839  67.941  1.00  0.00    -0.258 A  
BRANCH  13  16
HETATM   16  O   UNL     1     -10.089   7.494  68.216  1.00  0.00    -0.171 OA 
BRANCH  16  17
HETATM   17  C   UNL     1      -9.020   6.548  68.054  1.00  0.00    -0.116 C  
BRANCH  17  18
HETATM   18  C   UNL     1      -8.562   6.067  69.438  1.00  0.00    -0.122 C  
HETATM   19  H   UNL     1      -7.536   6.818  70.935  1.00  0.00     0.000 HD 
HETATM   20  O   UNL     1      -7.819   7.115  70.078  1.00  0.00    -0.108 OA 
BRANCH  18  21
HETATM   21  C   UNL     1      -9.725   5.660  70.364  1.00  0.00    -0.179 C  
BRANCH  21  22
HETATM   22  N   UNL     1     -10.514   6.798  70.850  1.00  0.00    -0.211 NA 
HETATM   23  C   UNL     1     -10.848   6.761  72.289  1.00  0.00    -0.231 C  
HETATM   24  H   UNL     1     -11.364   6.899  70.294  1.00  0.00     0.000 HD 
HETATM   25  C   UNL     1     -11.743   7.983  72.573  1.00  0.00    -0.446 C  
HETATM   26  C   UNL     1      -9.591   6.881  73.168  1.00  0.00    -0.183 C  
HETATM   27  C   UNL     1     -11.632   5.492  72.661  1.00  0.00    -0.293 C  
ENDBRANCH  21  22
ENDBRANCH  18  21
ENDBRANCH  17  18
ENDBRANCH  16  17
ENDBRANCH  13  16
BRANCH  15  28
HETATM   28  C   UNL     1     -10.652  10.105  69.388  1.00  0.00    -0.237 C  
HETATM   29  O   UNL     1      -9.754   9.912  70.209  1.00  0.00    -0.248 OA 
HETATM   30  C   UNL     1     -11.976  10.655  69.847  1.00  0.00    -0.385 C  
ENDBRANCH  15  28
ENDBRANCH   8  10
ENDBRANCH   6   8
ENDBRANCH   3   6
ENDBRANCH   2   3
TORSDOF 11
ENDMDL
MODEL      107
REMARK 921   NORMALIZED FREE ENERGY PREDICTED BY IDOCK:   -4.84 KCAL/MOL
REMARK 922        TOTAL FREE ENERGY PREDICTED BY IDOCK:   -9.08 KCAL/MOL
REMARK 923 INTER-LIGAND FREE ENERGY PREDICTED BY IDOCK:   -7.86 KCAL/MOL
REMARK 924 INTRA-LIGAND FREE ENERGY PREDICTED BY IDOCK:   -1.23 KCAL/MOL
REMARK 927      BINDING AFFINITY PREDICTED BY RF-SCORE:    0.00 PKD
ROOT
HETATM    1  C   UNL     1      -8.995   9.346  64.201  1.00  0.00    -0.187 C  
HETATM    2  C   UNL     1      -9.613   9.424  65.590  1.00  0.00    -0.274 C  
ENDROOT
BRANCH   2   3
HETATM    3  N   UNL     1     -10.318  10.686  65.837  1.00  0.00    -0.247 N  
BRANCH   3   4
HETATM    4  C   UNL     1     -10.763  11.463  64.675  1.00  0.00    -0.314 C  
HETATM    5  C   UNL     1     -12.129  12.103  64.838  1.00  0.00    -0.342 C  
ENDBRANCH   3   4
BRANCH   3   6
HETATM    6  C   UNL     1     -10.694  10.950  67.154  1.00  0.00    -0.270 C  
HETATM    7  O   UNL     1     -11.629  10.360  67.694  1.00  0.00    -0.383 OA 
BRANCH   6   8
HETATM    8  N   UNL     1      -9.911  11.887  67.803  1.00  0.00    -0.182 N  
HETATM    9  H   UNL     1      -9.023  11.594  68.208  1.00  0.00     0.000 HD 
BRANCH   8  10
HETATM   10  C   UNL     1     -10.305  13.233  67.922  1.00  0.00    -0.238 A  
HETATM   11  C   UNL     1     -11.087  13.683  68.983  1.00  0.00    -0.295 A  
HETATM   12  C   UNL     1     -11.402  15.039  69.101  1.00  0.00    -0.311 A  
HETATM   13  C   UNL     1     -10.923  15.975  68.175  1.00  0.00    -0.339 A  
HETATM   14  C   UNL     1      -9.882  14.142  66.953  1.00  0.00    -0.265 A  
HETATM   15  C   UNL     1     -10.161  15.515  67.085  1.00  0.00    -0.260 A  
BRANCH  13  16
HETATM   16  O   UNL     1     -11.116  17.324  68.301  1.00  0.00    -0.281 OA 
BRANCH  16  17
HETATM   17  C   UNL     1     -10.091  18.081  68.964  1.00  0.00    -0.293 C  
BRANCH  17  18
HETATM   18  C   UNL     1      -9.819  19.364  68.168  1.00  0.00    -0.393 C  
HETATM   19  H   UNL     1     -10.307  21.261  68.321  1.00  0.00     0.000 HD 
HETATM   20  O   UNL     1     -10.475  20.466  68.814  1.00  0.00    -0.230 OA 
BRANCH  18  21
HETATM   21  C   UNL     1      -8.322  19.700  68.031  1.00  0.00    -0.306 C  
BRANCH  21  22
HETATM   22  N   UNL     1      -7.650  19.916  69.319  1.00  0.00    -0.157 NA 
HETATM   23  C   UNL     1      -6.219  19.547  69.349  1.00  0.00    -0.302 C  
HETATM   24  H   UNL     1      -8.154  19.434  70.063  1.00  0.00     0.000 HD 
HETATM   25  C   UNL     1      -5.731  19.763  70.795  1.00  0.00    -0.302 C  
HETATM   26  C   UNL     1      -5.379  20.448  68.427  1.00  0.00    -0.266 C  
HETATM   27  C   UNL     1      -6.004  18.069  68.983  1.00  0.00    -0.217 C  
ENDBRANCH  21  22
ENDBRANCH  18  21
ENDBRANCH  17  18
ENDBRANCH  16  17
ENDBRANCH  13  16
BRANCH  15  28
HETATM   28  C   UNL     1      -9.515  16.380  66.052  1.00  0.00    -0.310 C  
HETATM   29  O   UNL     1     -10.200  16.829  65.131  1.00  0.00    -0.599 OA 
HETATM   30  C   UNL     1      -8.060  16.756  66.151  1.00  0.00    -0.293 C  
ENDBRANCH  15  28
ENDBRANCH   8  10
ENDBRANCH   6   8
ENDBRANCH   3   6
ENDBRANCH   2   3
TORSDOF 11
ENDMDL
MODEL      108
REMARK 921   NORMALIZED FREE ENERGY PREDICTED BY IDOCK:   -4.83 KCAL/MOL
REMARK 922        TOTAL FREE ENERGY PREDICTED BY IDOCK:   -9.07 KCAL/MOL
REMARK 923 INTER-LIGAND FREE ENERGY PREDICTED BY IDOCK:   -7.58 KCAL/MOL
REMARK 924 INTRA-LIGAND FREE ENERGY PREDICTED BY IDOCK:   -1.49 KCAL/MOL
REMARK 927      BINDING AFFINITY PREDICTED BY RF-SCORE:    0.00 PKD
ROOT
HETATM    1  C   UNL     1     -11.311  12.310  63.238  1.00  0.00    -0.414 C  
HETATM    2  C   UNL     1     -10.658  12.612  64.580  1.00  0.00    -0.346 C  
ENDROOT
BRANCH   2   3
HETATM    3  N   UNL     1     -11.314  13.702  65.309  1.00  0.00    -0.292 N  
BRANCH   3   4
HETATM    4  C   UNL     1     -12.051  14.703  64.530  1.00  0.00    -0.475 C  
HETATM    5  C   UNL     1     -11.369  16.055  64.445  1.00  0.00    -0.253 C  
ENDBRANCH   3   4
BRANCH   3   6
HETATM    6  C   UNL     1     -11.362  13.592  66.698  1.00  0.00    -0.322 C  
HETATM    7  O   UNL     1     -10.767  14.378  67.434  1.00  0.00    -0.274 OA 
BRANCH   6   8
HETATM    8  N   UNL     1     -12.157  12.563  67.171  1.00  0.00    -0.199 N  
HETATM    9  H   UNL     1     -13.118  12.489  66.838  1.00  0.00     0.000 HD 
BRANCH   8  10
HETATM   10  C   UNL     1     -11.680  11.618  68.096  1.00  0.00    -0.295 A  
HETATM   11  C   UNL     1     -11.900  11.747  69.466  1.00  0.00    -0.402 A  
HETATM   12  C   UNL     1     -11.466  10.753  70.347  1.00  0.00    -0.397 A  
HETATM   13  C   UNL     1     -10.826   9.599  69.875  1.00  0.00    -0.256 A  
HETATM   14  C   UNL     1     -10.979  10.510  67.621  1.00  0.00    -0.375 A  
HETATM   15  C   UNL     1     -10.574   9.485  68.496  1.00  0.00    -0.247 A  
BRANCH  13  16
HETATM   16  O   UNL     1     -10.474   8.551  70.682  1.00  0.00    -0.194 OA 
BRANCH  16  17
HETATM   17  C   UNL     1     -11.235   8.357  71.885  1.00  0.00    -0.311 C  
BRANCH  17  18
HETATM   18  C   UNL     1     -11.940   6.996  71.818  1.00  0.00    -0.326 C  
HETATM   19  H   UNL     1     -13.739   6.348  71.367  1.00  0.00     0.000 HD 
HETATM   20  O   UNL     1     -13.302   7.192  71.408  1.00  0.00    -0.381 OA 
BRANCH  18  21
HETATM   21  C   UNL     1     -11.275   6.005  70.843  1.00  0.00    -0.265 C  
BRANCH  21  22
HETATM   22  N   UNL     1      -9.828   5.868  71.043  1.00  0.00    -0.178 NA 
HETATM   23  C   UNL     1      -9.286   4.514  70.803  1.00  0.00    -0.151 C  
HETATM   24  H   UNL     1      -9.569   6.190  71.976  1.00  0.00     0.000 HD 
HETATM   25  C   UNL     1      -7.785   4.564  71.149  1.00  0.00    -0.076 C  
HETATM   26  C   UNL     1      -9.418   4.102  69.326  1.00  0.00    -0.258 C  
HETATM   27  C   UNL     1      -9.955   3.464  71.705  1.00  0.00    -0.194 C  
ENDBRANCH  21  22
ENDBRANCH  18  21
ENDBRANCH  17  18
ENDBRANCH  16  17
ENDBRANCH  13  16
BRANCH  15  28
HETATM   28  C   UNL     1      -9.970   8.296  67.820  1.00  0.00    -0.186 C  
HETATM   29  O   UNL     1      -8.743   8.201  67.757  1.00  0.00    -0.130 OA 
HETATM   30  C   UNL     1     -10.834   7.193  67.268  1.00  0.00    -0.382 C  
ENDBRANCH  15  28
ENDBRANCH   8  10
ENDBRANCH   6   8
ENDBRANCH   3   6
ENDBRANCH   2   3
TORSDOF 11
ENDMDL
MODEL      109
REMARK 921   NORMALIZED FREE ENERGY PREDICTED BY IDOCK:   -4.82 KCAL/MOL
REMARK 922        TOTAL FREE ENERGY PREDICTED BY IDOCK:   -9.05 KCAL/MOL
REMARK 923 INTER-LIGAND FREE ENERGY PREDICTED BY IDOCK:   -7.97 KCAL/MOL
REMARK 924 INTRA-LIGAND FREE ENERGY PREDICTED BY IDOCK:   -1.08 KCAL/MOL
REMARK 927      BINDING AFFINITY PREDICTED BY RF-SCORE:    0.00 PKD
ROOT
HETATM    1  C   UNL     1     -12.346   8.989  71.995  1.00  0.00    -0.455 C  
HETATM    2  C   UNL     1     -10.991   9.009  71.302  1.00  0.00    -0.313 C  
ENDROOT
BRANCH   2   3
HETATM    3  N   UNL     1     -10.919   8.106  70.148  1.00  0.00    -0.245 N  
BRANCH   3   4
HETATM    4  C   UNL     1     -11.606   6.814  70.245  1.00  0.00    -0.362 C  
HETATM    5  C   UNL     1     -10.802   5.639  69.722  1.00  0.00    -0.370 C  
ENDBRANCH   3   4
BRANCH   3   6
HETATM    6  C   UNL     1     -10.379   8.627  68.972  1.00  0.00    -0.213 C  
HETATM    7  O   UNL     1      -9.215   8.410  68.640  1.00  0.00    -0.143 OA 
BRANCH   6   8
HETATM    8  N   UNL     1     -11.264   9.362  68.204  1.00  0.00    -0.497 N  
HETATM    9  H   UNL     1     -12.105   8.908  67.849  1.00  0.00     0.000 HD 
BRANCH   8  10
HETATM   10  C   UNL     1     -11.039  10.716  67.899  1.00  0.00    -0.308 A  
HETATM   11  C   UNL     1     -10.696  11.647  68.877  1.00  0.00    -0.244 A  
HETATM   12  C   UNL     1     -10.416  12.970  68.524  1.00  0.00    -0.261 A  
HETATM   13  C   UNL     1     -10.450  13.383  67.185  1.00  0.00    -0.249 A  
HETATM   14  C   UNL     1     -11.147  11.131  66.572  1.00  0.00    -0.233 A  
HETATM   15  C   UNL     1     -10.829  12.451  66.203  1.00  0.00    -0.308 A  
BRANCH  13  16
HETATM   16  O   UNL     1     -10.085  14.637  66.776  1.00  0.00    -0.256 OA 
BRANCH  16  17
HETATM   17  C   UNL     1     -11.081  15.671  66.839  1.00  0.00    -0.181 C  
BRANCH  17  18
HETATM   18  C   UNL     1     -10.570  16.806  67.736  1.00  0.00    -0.341 C  
HETATM   19  H   UNL     1     -10.627  17.239  69.651  1.00  0.00     0.000 HD 
HETATM   20  O   UNL     1     -10.944  16.536  69.095  1.00  0.00    -0.312 OA 
BRANCH  18  21
HETATM   21  C   UNL     1      -9.041  16.995  67.680  1.00  0.00    -0.229 C  
BRANCH  21  22
HETATM   22  N   UNL     1      -8.553  18.077  68.543  1.00  0.00    -0.303 NA 
HETATM   23  C   UNL     1      -7.501  18.928  67.947  1.00  0.00    -0.246 C  
HETATM   24  H   UNL     1      -8.234  17.698  69.435  1.00  0.00     0.000 HD 
HETATM   25  C   UNL     1      -7.069  19.933  69.033  1.00  0.00    -0.306 C  
HETATM   26  C   UNL     1      -8.033  19.730  66.746  1.00  0.00    -0.323 C  
HETATM   27  C   UNL     1      -6.270  18.107  67.531  1.00  0.00    -0.179 C  
ENDBRANCH  21  22
ENDBRANCH  18  21
ENDBRANCH  17  18
ENDBRANCH  16  17
ENDBRANCH  13  16
BRANCH  15  28
HETATM   28  C   UNL     1     -10.846  12.703  64.729  1.00  0.00    -0.302 C  
HETATM   29  O   UNL     1      -9.887  12.337  64.047  1.00  0.00    -0.261 OA 
HETATM   30  C   UNL     1     -12.035  13.342  64.063  1.00  0.00    -0.525 C  
ENDBRANCH  15  28
ENDBRANCH   8  10
ENDBRANCH   6   8
ENDBRANCH   3   6
ENDBRANCH   2   3
TORSDOF 11
ENDMDL
MODEL      110
REMARK 921   NORMALIZED FREE ENERGY PREDICTED BY IDOCK:   -4.80 KCAL/MOL
REMARK 922        TOTAL FREE ENERGY PREDICTED BY IDOCK:   -9.02 KCAL/MOL
REMARK 923 INTER-LIGAND FREE ENERGY PREDICTED BY IDOCK:   -7.50 KCAL/MOL
REMARK 924 INTRA-LIGAND FREE ENERGY PREDICTED BY IDOCK:   -1.52 KCAL/MOL
REMARK 927      BINDING AFFINITY PREDICTED BY RF-SCORE:    0.00 PKD
ROOT
HETATM    1  C   UNL     1     -10.047  20.046  66.568  1.00  0.00    -0.606 C  
HETATM    2  C   UNL     1      -8.787  19.208  66.402  1.00  0.00    -0.338 C  
ENDROOT
BRANCH   2   3
HETATM    3  N   UNL     1      -8.658  18.153  67.414  1.00  0.00    -0.242 N  
BRANCH   3   4
HETATM    4  C   UNL     1      -7.366  18.009  68.094  1.00  0.00    -0.250 C  
HETATM    5  C   UNL     1      -6.974  19.201  68.947  1.00  0.00    -0.371 C  
ENDBRANCH   3   4
BRANCH   3   6
HETATM    6  C   UNL     1      -9.830  17.503  67.799  1.00  0.00    -0.286 C  
HETATM    7  O   UNL     1     -10.302  17.630  68.928  1.00  0.00    -0.363 OA 
BRANCH   6   8
HETATM    8  N   UNL     1     -10.428  16.749  66.806  1.00  0.00    -0.288 N  
HETATM    9  H   UNL     1     -10.976  17.223  66.088  1.00  0.00     0.000 HD 
BRANCH   8  10
HETATM   10  C   UNL     1     -10.304  15.349  66.757  1.00  0.00    -0.279 A  
HETATM   11  C   UNL     1      -9.529  14.643  67.675  1.00  0.00    -0.205 A  
HETATM   12  C   UNL     1      -9.483  13.247  67.632  1.00  0.00    -0.211 A  
HETATM   13  C   UNL     1     -10.229  12.529  66.688  1.00  0.00    -0.230 A  
HETATM   14  C   UNL     1     -10.992  14.650  65.766  1.00  0.00    -0.330 A  
HETATM   15  C   UNL     1     -10.984  13.243  65.741  1.00  0.00    -0.284 A  
BRANCH  13  16
HETATM   16  O   UNL     1     -10.299  11.162  66.669  1.00  0.00    -0.223 OA 
BRANCH  16  17
HETATM   17  C   UNL     1     -10.798  10.507  67.847  1.00  0.00    -0.282 C  
BRANCH  17  18
HETATM   18  C   UNL     1     -10.219   9.088  67.916  1.00  0.00    -0.221 C  
HETATM   19  H   UNL     1     -10.448   7.410  66.920  1.00  0.00     0.000 HD 
HETATM   20  O   UNL     1     -10.807   8.289  66.878  1.00  0.00    -0.228 OA 
BRANCH  18  21
HETATM   21  C   UNL     1      -8.687   9.040  67.758  1.00  0.00    -0.125 C  
BRANCH  21  22
HETATM   22  N   UNL     1      -7.997  10.175  68.383  1.00  0.00    -0.100 NA 
HETATM   23  C   UNL     1      -6.650  10.463  67.846  1.00  0.00    -0.061 C  
HETATM   24  H   UNL     1      -7.952  10.045  69.394  1.00  0.00     0.000 HD 
HETATM   25  C   UNL     1      -6.071  11.618  68.686  1.00  0.00    -0.051 C  
HETATM   26  C   UNL     1      -6.711  10.929  66.381  1.00  0.00    -0.134 C  
HETATM   27  C   UNL     1      -5.712   9.252  67.977  1.00  0.00    -0.038 C  
ENDBRANCH  21  22
ENDBRANCH  18  21
ENDBRANCH  17  18
ENDBRANCH  16  17
ENDBRANCH  13  16
BRANCH  15  28
HETATM   28  C   UNL     1     -11.888  12.637  64.717  1.00  0.00    -0.380 C  
HETATM   29  O   UNL     1     -13.108  12.704  64.879  1.00  0.00    -0.850 OA 
HETATM   30  C   UNL     1     -11.335  11.998  63.471  1.00  0.00    -0.528 C  
ENDBRANCH  15  28
ENDBRANCH   8  10
ENDBRANCH   6   8
ENDBRANCH   3   6
ENDBRANCH   2   3
TORSDOF 11
ENDMDL
MODEL      111
REMARK 921   NORMALIZED FREE ENERGY PREDICTED BY IDOCK:   -4.80 KCAL/MOL
REMARK 922        TOTAL FREE ENERGY PREDICTED BY IDOCK:   -9.02 KCAL/MOL
REMARK 923 INTER-LIGAND FREE ENERGY PREDICTED BY IDOCK:   -7.70 KCAL/MOL
REMARK 924 INTRA-LIGAND FREE ENERGY PREDICTED BY IDOCK:   -1.31 KCAL/MOL
REMARK 927      BINDING AFFINITY PREDICTED BY RF-SCORE:    0.00 PKD
ROOT
HETATM    1  C   UNL     1     -11.964  15.722  68.971  1.00  0.00    -0.294 C  
HETATM    2  C   UNL     1     -10.570  16.208  68.599  1.00  0.00    -0.283 C  
ENDROOT
BRANCH   2   3
HETATM    3  N   UNL     1     -10.562  17.095  67.431  1.00  0.00    -0.326 N  
BRANCH   3   4
HETATM    4  C   UNL     1     -10.653  18.540  67.666  1.00  0.00    -0.414 C  
HETATM    5  C   UNL     1      -9.527  19.108  68.509  1.00  0.00    -0.444 C  
ENDBRANCH   3   4
BRANCH   3   6
HETATM    6  C   UNL     1     -10.260  16.513  66.200  1.00  0.00    -0.346 C  
HETATM    7  O   UNL     1      -9.174  16.687  65.647  1.00  0.00    -0.491 OA 
BRANCH   6   8
HETATM    8  N   UNL     1     -11.255  15.704  65.682  1.00  0.00    -0.178 N  
HETATM    9  H   UNL     1     -12.167  16.111  65.479  1.00  0.00     0.000 HD 
BRANCH   8  10
HETATM   10  C   UNL     1     -11.046  14.336  65.428  1.00  0.00    -0.327 A  
HETATM   11  C   UNL     1     -11.644  13.685  64.352  1.00  0.00    -0.421 A  
HETATM   12  C   UNL     1     -11.359  12.341  64.095  1.00  0.00    -0.442 A  
HETATM   13  C   UNL     1     -10.455  11.629  64.894  1.00  0.00    -0.288 A  
HETATM   14  C   UNL     1     -10.201  13.619  66.275  1.00  0.00    -0.296 A  
HETATM   15  C   UNL     1      -9.879  12.278  66.001  1.00  0.00    -0.263 A  
BRANCH  13  16
HETATM   16  O   UNL     1     -10.065  10.344  64.626  1.00  0.00    -0.345 OA 
BRANCH  16  17
HETATM   17  C   UNL     1      -9.153  10.143  63.533  1.00  0.00    -0.275 C  
BRANCH  17  18
HETATM   18  C   UNL     1      -8.267   8.928  63.837  1.00  0.00    -0.171 C  
HETATM   19  H   UNL     1      -6.357   8.491  63.691  1.00  0.00     0.000 HD 
HETATM   20  O   UNL     1      -6.907   9.244  63.503  1.00  0.00    -0.090 OA 
BRANCH  18  21
HETATM   21  C   UNL     1      -8.316   8.482  65.311  1.00  0.00    -0.159 C  
BRANCH  21  22
HETATM   22  N   UNL     1      -9.155   7.300  65.538  1.00  0.00    -0.378 NA 
HETATM   23  C   UNL     1      -9.650   7.138  66.922  1.00  0.00    -0.168 C  
HETATM   24  H   UNL     1      -8.663   6.457  65.240  1.00  0.00     0.000 HD 
HETATM   25  C   UNL     1     -10.425   5.807  66.968  1.00  0.00    -0.342 C  
HETATM   26  C   UNL     1     -10.622   8.265  67.313  1.00  0.00    -0.335 C  
HETATM   27  C   UNL     1      -8.496   7.060  67.935  1.00  0.00    -0.124 C  
ENDBRANCH  21  22
ENDBRANCH  18  21
ENDBRANCH  17  18
ENDBRANCH  16  17
ENDBRANCH  13  16
BRANCH  15  28
HETATM   28  C   UNL     1      -8.846  11.691  66.909  1.00  0.00    -0.190 C  
HETATM   29  O   UNL     1      -7.686  11.585  66.507  1.00  0.00    -0.134 OA 
HETATM   30  C   UNL     1      -9.189  11.283  68.317  1.00  0.00    -0.176 C  
ENDBRANCH  15  28
ENDBRANCH   8  10
ENDBRANCH   6   8
ENDBRANCH   3   6
ENDBRANCH   2   3
TORSDOF 11
ENDMDL
MODEL      112
REMARK 921   NORMALIZED FREE ENERGY PREDICTED BY IDOCK:   -4.79 KCAL/MOL
REMARK 922        TOTAL FREE ENERGY PREDICTED BY IDOCK:   -9.00 KCAL/MOL
REMARK 923 INTER-LIGAND FREE ENERGY PREDICTED BY IDOCK:   -8.06 KCAL/MOL
REMARK 924 INTRA-LIGAND FREE ENERGY PREDICTED BY IDOCK:   -0.94 KCAL/MOL
REMARK 927      BINDING AFFINITY PREDICTED BY RF-SCORE:    0.00 PKD
ROOT
HETATM    1  C   UNL     1      -9.818  18.603  66.795  1.00  0.00    -0.365 C  
HETATM    2  C   UNL     1     -10.464  17.234  66.629  1.00  0.00    -0.257 C  
ENDROOT
BRANCH   2   3
HETATM    3  N   UNL     1     -10.105  16.294  67.696  1.00  0.00    -0.255 N  
BRANCH   3   4
HETATM    4  C   UNL     1      -8.826  15.583  67.582  1.00  0.00    -0.179 C  
HETATM    5  C   UNL     1      -7.967  15.640  68.832  1.00  0.00    -0.193 C  
ENDBRANCH   3   4
BRANCH   3   6
HETATM    6  C   UNL     1     -10.906  16.299  68.837  1.00  0.00    -0.317 C  
HETATM    7  O   UNL     1     -10.663  17.027  69.798  1.00  0.00    -0.243 OA 
BRANCH   6   8
HETATM    8  N   UNL     1     -12.003  15.459  68.778  1.00  0.00    -0.554 N  
HETATM    9  H   UNL     1     -12.829  15.760  68.262  1.00  0.00     0.000 HD 
BRANCH   8  10
HETATM   10  C   UNL     1     -12.013  14.202  69.410  1.00  0.00    -0.337 A  
HETATM   11  C   UNL     1     -12.777  13.954  70.549  1.00  0.00    -0.318 A  
HETATM   12  C   UNL     1     -12.812  12.674  71.108  1.00  0.00    -0.311 A  
HETATM   13  C   UNL     1     -12.103  11.613  70.529  1.00  0.00    -0.366 A  
HETATM   14  C   UNL     1     -11.246  13.172  68.866  1.00  0.00    -0.324 A  
HETATM   15  C   UNL     1     -11.306  11.872  69.399  1.00  0.00    -0.327 A  
BRANCH  13  16
HETATM   16  O   UNL     1     -12.184  10.321  70.976  1.00  0.00    -0.320 OA 
BRANCH  16  17
HETATM   17  C   UNL     1     -13.304   9.977  71.808  1.00  0.00    -0.393 C  
BRANCH  17  18
HETATM   18  C   UNL     1     -13.216   8.491  72.178  1.00  0.00    -0.352 C  
HETATM   19  H   UNL     1     -14.153   6.842  71.666  1.00  0.00     0.000 HD 
HETATM   20  O   UNL     1     -14.207   7.763  71.437  1.00  0.00    -0.405 OA 
BRANCH  18  21
HETATM   21  C   UNL     1     -11.837   7.865  71.893  1.00  0.00    -0.301 C  
BRANCH  21  22
HETATM   22  N   UNL     1     -11.750   6.447  72.260  1.00  0.00    -0.375 NA 
HETATM   23  C   UNL     1     -10.488   6.046  72.919  1.00  0.00    -0.219 C  
HETATM   24  H   UNL     1     -11.921   5.860  71.443  1.00  0.00     0.000 HD 
HETATM   25  C   UNL     1     -10.562   4.523  73.138  1.00  0.00    -0.284 C  
HETATM   26  C   UNL     1     -10.328   6.715  74.295  1.00  0.00    -0.282 C  
HETATM   27  C   UNL     1      -9.264   6.349  72.039  1.00  0.00    -0.148 C  
ENDBRANCH  21  22
ENDBRANCH  18  21
ENDBRANCH  17  18
ENDBRANCH  16  17
ENDBRANCH  13  16
BRANCH  15  28
HETATM   28  C   UNL     1     -10.548  10.847  68.619  1.00  0.00    -0.195 C  
HETATM   29  O   UNL     1      -9.458  10.457  69.040  1.00  0.00    -0.178 OA 
HETATM   30  C   UNL     1     -11.120  10.247  67.362  1.00  0.00    -0.261 C  
ENDBRANCH  15  28
ENDBRANCH   8  10
ENDBRANCH   6   8
ENDBRANCH   3   6
ENDBRANCH   2   3
TORSDOF 11
ENDMDL
MODEL      113
REMARK 921   NORMALIZED FREE ENERGY PREDICTED BY IDOCK:   -4.79 KCAL/MOL
REMARK 922        TOTAL FREE ENERGY PREDICTED BY IDOCK:   -9.00 KCAL/MOL
REMARK 923 INTER-LIGAND FREE ENERGY PREDICTED BY IDOCK:   -7.63 KCAL/MOL
REMARK 924 INTRA-LIGAND FREE ENERGY PREDICTED BY IDOCK:   -1.37 KCAL/MOL
REMARK 927      BINDING AFFINITY PREDICTED BY RF-SCORE:    0.00 PKD
ROOT
HETATM    1  C   UNL     1      -8.999  15.490  69.354  1.00  0.00    -0.275 C  
HETATM    2  C   UNL     1     -10.242  15.908  68.580  1.00  0.00    -0.223 C  
ENDROOT
BRANCH   2   3
HETATM    3  N   UNL     1     -10.109  15.722  67.132  1.00  0.00    -0.247 N  
BRANCH   3   4
HETATM    4  C   UNL     1      -8.818  16.043  66.514  1.00  0.00    -0.305 C  
HETATM    5  C   UNL     1      -8.563  17.528  66.334  1.00  0.00    -0.273 C  
ENDBRANCH   3   4
BRANCH   3   6
HETATM    6  C   UNL     1     -11.152  15.061  66.483  1.00  0.00    -0.329 C  
HETATM    7  O   UNL     1     -11.379  15.223  65.285  1.00  0.00    -0.338 OA 
BRANCH   6   8
HETATM    8  N   UNL     1     -11.870  14.189  67.281  1.00  0.00    -0.401 N  
HETATM    9  H   UNL     1     -12.687  14.538  67.782  1.00  0.00     0.000 HD 
BRANCH   8  10
HETATM   10  C   UNL     1     -11.509  12.837  67.422  1.00  0.00    -0.340 A  
HETATM   11  C   UNL     1     -11.902  12.078  68.521  1.00  0.00    -0.369 A  
HETATM   12  C   UNL     1     -11.578  10.720  68.593  1.00  0.00    -0.342 A  
HETATM   13  C   UNL     1     -10.876  10.090  67.556  1.00  0.00    -0.265 A  
HETATM   14  C   UNL     1     -10.747  12.240  66.419  1.00  0.00    -0.284 A  
HETATM   15  C   UNL     1     -10.450  10.865  66.463  1.00  0.00    -0.308 A  
BRANCH  13  16
HETATM   16  O   UNL     1     -10.623   8.745  67.529  1.00  0.00    -0.267 OA 
BRANCH  16  17
HETATM   17  C   UNL     1      -9.629   8.239  68.434  1.00  0.00    -0.144 C  
BRANCH  17  18
HETATM   18  C   UNL     1      -9.741   6.710  68.498  1.00  0.00    -0.131 C  
HETATM   19  H   UNL     1      -8.577   5.222  69.035  1.00  0.00     0.000 HD 
HETATM   20  O   UNL     1      -8.507   6.169  68.995  1.00  0.00    -0.117 OA 
BRANCH  18  21
HETATM   21  C   UNL     1     -10.888   6.214  69.399  1.00  0.00    -0.353 C  
BRANCH  21  22
HETATM   22  N   UNL     1     -11.807   7.279  69.817  1.00  0.00    -0.422 NA 
HETATM   23  C   UNL     1     -11.824   7.558  71.269  1.00  0.00    -0.294 C  
HETATM   24  H   UNL     1     -12.752   7.078  69.487  1.00  0.00     0.000 HD 
HETATM   25  C   UNL     1     -12.904   8.631  71.506  1.00  0.00    -0.351 C  
HETATM   26  C   UNL     1     -10.479   8.126  71.754  1.00  0.00    -0.304 C  
HETATM   27  C   UNL     1     -12.196   6.310  72.086  1.00  0.00    -0.255 C  
ENDBRANCH  21  22
ENDBRANCH  18  21
ENDBRANCH  17  18
ENDBRANCH  16  17
ENDBRANCH  13  16
BRANCH  15  28
HETATM   28  C   UNL     1      -9.758  10.341  65.246  1.00  0.00    -0.291 C  
HETATM   29  O   UNL     1     -10.353  10.353  64.166  1.00  0.00    -0.248 OA 
HETATM   30  C   UNL     1      -8.335   9.855  65.308  1.00  0.00    -0.153 C  
ENDBRANCH  15  28
ENDBRANCH   8  10
ENDBRANCH   6   8
ENDBRANCH   3   6
ENDBRANCH   2   3
TORSDOF 11
ENDMDL
MODEL      114
REMARK 921   NORMALIZED FREE ENERGY PREDICTED BY IDOCK:   -4.78 KCAL/MOL
REMARK 922        TOTAL FREE ENERGY PREDICTED BY IDOCK:   -8.98 KCAL/MOL
REMARK 923 INTER-LIGAND FREE ENERGY PREDICTED BY IDOCK:   -8.06 KCAL/MOL
REMARK 924 INTRA-LIGAND FREE ENERGY PREDICTED BY IDOCK:   -0.92 KCAL/MOL
REMARK 927      BINDING AFFINITY PREDICTED BY RF-SCORE:    0.00 PKD
ROOT
HETATM    1  C   UNL     1     -10.206  20.294  65.971  1.00  0.00    -0.392 C  
HETATM    2  C   UNL     1      -8.794  19.986  66.450  1.00  0.00    -0.316 C  
ENDROOT
BRANCH   2   3
HETATM    3  N   UNL     1      -8.749  18.938  67.476  1.00  0.00    -0.273 N  
BRANCH   3   4
HETATM    4  C   UNL     1      -7.990  19.210  68.701  1.00  0.00    -0.363 C  
HETATM    5  C   UNL     1      -6.829  18.262  68.939  1.00  0.00    -0.270 C  
ENDBRANCH   3   4
BRANCH   3   6
HETATM    6  C   UNL     1      -9.599  17.846  67.299  1.00  0.00    -0.273 C  
HETATM    7  O   UNL     1     -10.626  17.709  67.962  1.00  0.00    -0.379 OA 
BRANCH   6   8
HETATM    8  N   UNL     1      -9.215  16.968  66.302  1.00  0.00    -0.262 N  
HETATM    9  H   UNL     1      -8.929  17.342  65.398  1.00  0.00     0.000 HD 
BRANCH   8  10
HETATM   10  C   UNL     1      -9.207  15.576  66.498  1.00  0.00    -0.293 A  
HETATM   11  C   UNL     1      -8.490  14.979  67.533  1.00  0.00    -0.188 A  
HETATM   12  C   UNL     1      -8.561  13.598  67.735  1.00  0.00    -0.182 A  
HETATM   13  C   UNL     1      -9.367  12.790  66.922  1.00  0.00    -0.234 A  
HETATM   14  C   UNL     1      -9.956  14.774  65.637  1.00  0.00    -0.390 A  
HETATM   15  C   UNL     1     -10.064  13.389  65.857  1.00  0.00    -0.300 A  
BRANCH  13  16
HETATM   16  O   UNL     1      -9.551  11.451  67.140  1.00  0.00    -0.177 OA 
BRANCH  16  17
HETATM   17  C   UNL     1      -9.396  10.971  68.485  1.00  0.00    -0.188 C  
BRANCH  17  18
HETATM   18  C   UNL     1     -10.417   9.854  68.740  1.00  0.00    -0.213 C  
HETATM   19  H   UNL     1     -10.359   7.907  68.995  1.00  0.00     0.000 HD 
HETATM   20  O   UNL     1      -9.726   8.599  68.837  1.00  0.00    -0.164 OA 
BRANCH  18  21
HETATM   21  C   UNL     1     -11.243  10.056  70.025  1.00  0.00    -0.288 C  
BRANCH  21  22
HETATM   22  N   UNL     1     -10.767   9.256  71.159  1.00  0.00    -0.306 NA 
HETATM   23  C   UNL     1     -11.783   8.377  71.777  1.00  0.00    -0.310 C  
HETATM   24  H   UNL     1     -10.350   9.861  71.867  1.00  0.00     0.000 HD 
HETATM   25  C   UNL     1     -11.113   7.700  72.988  1.00  0.00    -0.437 C  
HETATM   26  C   UNL     1     -12.241   7.271  70.810  1.00  0.00    -0.256 C  
HETATM   27  C   UNL     1     -12.998   9.174  72.280  1.00  0.00    -0.492 C  
ENDBRANCH  21  22
ENDBRANCH  18  21
ENDBRANCH  17  18
ENDBRANCH  16  17
ENDBRANCH  13  16
BRANCH  15  28
HETATM   28  C   UNL     1     -11.019  12.689  64.944  1.00  0.00    -0.293 C  
HETATM   29  O   UNL     1     -10.587  12.145  63.926  1.00  0.00    -0.339 OA 
HETATM   30  C   UNL     1     -12.484  12.593  65.277  1.00  0.00    -0.483 C  
ENDBRANCH  15  28
ENDBRANCH   8  10
ENDBRANCH   6   8
ENDBRANCH   3   6
ENDBRANCH   2   3
TORSDOF 11
ENDMDL
MODEL      115
REMARK 921   NORMALIZED FREE ENERGY PREDICTED BY IDOCK:   -4.77 KCAL/MOL
REMARK 922        TOTAL FREE ENERGY PREDICTED BY IDOCK:   -8.97 KCAL/MOL
REMARK 923 INTER-LIGAND FREE ENERGY PREDICTED BY IDOCK:   -7.26 KCAL/MOL
REMARK 924 INTRA-LIGAND FREE ENERGY PREDICTED BY IDOCK:   -1.71 KCAL/MOL
REMARK 927      BINDING AFFINITY PREDICTED BY RF-SCORE:    0.00 PKD
ROOT
HETATM    1  C   UNL     1     -10.412  17.423  68.212  1.00  0.00    -0.385 C  
HETATM    2  C   UNL     1     -10.164  16.125  68.969  1.00  0.00    -0.250 C  
ENDROOT
BRANCH   2   3
HETATM    3  N   UNL     1     -11.282  15.181  68.877  1.00  0.00    -0.267 N  
BRANCH   3   4
HETATM    4  C   UNL     1     -12.352  15.284  69.875  1.00  0.00    -0.288 C  
HETATM    5  C   UNL     1     -12.392  14.139  70.869  1.00  0.00    -0.438 C  
ENDBRANCH   3   4
BRANCH   3   6
HETATM    6  C   UNL     1     -11.347  14.391  67.729  1.00  0.00    -0.312 C  
HETATM    7  O   UNL     1     -12.275  14.487  66.926  1.00  0.00    -0.375 OA 
BRANCH   6   8
HETATM    8  N   UNL     1     -10.275  13.535  67.553  1.00  0.00    -0.232 N  
HETATM    9  H   UNL     1      -9.367  13.926  67.306  1.00  0.00     0.000 HD 
BRANCH   8  10
HETATM   10  C   UNL     1     -10.401  12.143  67.703  1.00  0.00    -0.203 A  
HETATM   11  C   UNL     1     -10.134  11.259  66.660  1.00  0.00    -0.251 A  
HETATM   12  C   UNL     1     -10.207   9.879  66.869  1.00  0.00    -0.302 A  
HETATM   13  C   UNL     1     -10.526   9.355  68.129  1.00  0.00    -0.220 A  
HETATM   14  C   UNL     1     -10.791  11.635  68.942  1.00  0.00    -0.264 A  
HETATM   15  C   UNL     1     -10.829  10.248  69.172  1.00  0.00    -0.270 A  
BRANCH  13  16
HETATM   16  O   UNL     1     -10.511   8.016  68.411  1.00  0.00    -0.206 OA 
BRANCH  16  17
HETATM   17  C   UNL     1     -10.850   7.110  67.349  1.00  0.00    -0.276 C  
BRANCH  17  18
HETATM   18  C   UNL     1      -9.830   5.964  67.323  1.00  0.00    -0.138 C  
HETATM   19  H   UNL     1      -7.873   5.802  67.374  1.00  0.00     0.000 HD 
HETATM   20  O   UNL     1      -8.505   6.512  67.390  1.00  0.00    -0.119 OA 
BRANCH  18  21
HETATM   21  C   UNL     1     -10.002   4.960  68.479  1.00  0.00    -0.115 C  
BRANCH  21  22
HETATM   22  N   UNL     1     -10.785   5.489  69.602  1.00  0.00    -0.321 NA 
HETATM   23  C   UNL     1     -10.132   5.388  70.925  1.00  0.00    -0.219 C  
HETATM   24  H   UNL     1     -11.704   5.046  69.630  1.00  0.00     0.000 HD 
HETATM   25  C   UNL     1     -11.143   5.909  71.965  1.00  0.00    -0.329 C  
HETATM   26  C   UNL     1      -8.873   6.270  71.006  1.00  0.00    -0.136 C  
HETATM   27  C   UNL     1      -9.781   3.934  71.279  1.00  0.00    -0.247 C  
ENDBRANCH  21  22
ENDBRANCH  18  21
ENDBRANCH  17  18
ENDBRANCH  16  17
ENDBRANCH  13  16
BRANCH  15  28
HETATM   28  C   UNL     1     -11.117   9.862  70.587  1.00  0.00    -0.340 C  
HETATM   29  O   UNL     1     -10.188   9.497  71.310  1.00  0.00    -0.296 OA 
HETATM   30  C   UNL     1     -12.507   9.966  71.155  1.00  0.00    -0.464 C  
ENDBRANCH  15  28
ENDBRANCH   8  10
ENDBRANCH   6   8
ENDBRANCH   3   6
ENDBRANCH   2   3
TORSDOF 11
ENDMDL
MODEL      116
REMARK 921   NORMALIZED FREE ENERGY PREDICTED BY IDOCK:   -4.77 KCAL/MOL
REMARK 922        TOTAL FREE ENERGY PREDICTED BY IDOCK:   -8.96 KCAL/MOL
REMARK 923 INTER-LIGAND FREE ENERGY PREDICTED BY IDOCK:   -8.19 KCAL/MOL
REMARK 924 INTRA-LIGAND FREE ENERGY PREDICTED BY IDOCK:   -0.77 KCAL/MOL
REMARK 927      BINDING AFFINITY PREDICTED BY RF-SCORE:    0.00 PKD
ROOT
HETATM    1  C   UNL     1     -10.615   5.218  66.403  1.00  0.00    -0.338 C  
HETATM    2  C   UNL     1     -11.018   6.566  66.985  1.00  0.00    -0.396 C  
ENDROOT
BRANCH   2   3
HETATM    3  N   UNL     1     -10.491   6.792  68.334  1.00  0.00    -0.190 N  
BRANCH   3   4
HETATM    4  C   UNL     1     -11.111   6.062  69.445  1.00  0.00    -0.375 C  
HETATM    5  C   UNL     1     -10.155   5.175  70.221  1.00  0.00    -0.338 C  
ENDBRANCH   3   4
BRANCH   3   6
HETATM    6  C   UNL     1      -9.309   7.526  68.435  1.00  0.00    -0.141 C  
HETATM    7  O   UNL     1      -8.286   7.195  67.837  1.00  0.00    -0.117 OA 
BRANCH   6   8
HETATM    8  N   UNL     1      -9.397   8.661  69.219  1.00  0.00    -0.153 N  
HETATM    9  H   UNL     1      -8.958   8.661  70.139  1.00  0.00     0.000 HD 
BRANCH   8  10
HETATM   10  C   UNL     1     -10.072   9.816  68.784  1.00  0.00    -0.174 A  
HETATM   11  C   UNL     1     -10.160  10.158  67.437  1.00  0.00    -0.251 A  
HETATM   12  C   UNL     1     -10.896  11.278  67.040  1.00  0.00    -0.332 A  
HETATM   13  C   UNL     1     -11.577  12.063  67.979  1.00  0.00    -0.342 A  
HETATM   14  C   UNL     1     -10.685  10.631  69.735  1.00  0.00    -0.283 A  
HETATM   15  C   UNL     1     -11.461  11.737  69.342  1.00  0.00    -0.371 A  
BRANCH  13  16
HETATM   16  O   UNL     1     -12.394  13.107  67.635  1.00  0.00    -0.183 OA 
BRANCH  16  17
HETATM   17  C   UNL     1     -12.049  13.858  66.459  1.00  0.00    -0.449 C  
BRANCH  17  18
HETATM   18  C   UNL     1     -10.661  14.483  66.653  1.00  0.00    -0.305 C  
HETATM   19  H   UNL     1      -9.223  15.137  65.486  1.00  0.00     0.000 HD 
HETATM   20  O   UNL     1     -10.082  14.750  65.366  1.00  0.00    -0.350 OA 
BRANCH  18  21
HETATM   21  C   UNL     1     -10.683  15.796  67.459  1.00  0.00    -0.317 C  
BRANCH  21  22
HETATM   22  N   UNL     1     -10.781  16.997  66.620  1.00  0.00    -0.167 NA 
HETATM   23  C   UNL     1      -9.890  18.110  67.012  1.00  0.00    -0.322 C  
HETATM   24  H   UNL     1     -11.748  17.319  66.579  1.00  0.00     0.000 HD 
HETATM   25  C   UNL     1     -10.208  19.290  66.073  1.00  0.00    -0.512 C  
HETATM   26  C   UNL     1      -8.407  17.743  66.825  1.00  0.00    -0.271 C  
HETATM   27  C   UNL     1     -10.144  18.562  68.459  1.00  0.00    -0.414 C  
ENDBRANCH  21  22
ENDBRANCH  18  21
ENDBRANCH  17  18
ENDBRANCH  16  17
ENDBRANCH  13  16
BRANCH  15  28
HETATM   28  C   UNL     1     -12.176  12.421  70.462  1.00  0.00    -0.295 C  
HETATM   29  O   UNL     1     -12.783  11.741  71.291  1.00  0.00    -0.387 OA 
HETATM   30  C   UNL     1     -12.120  13.917  70.622  1.00  0.00    -0.417 C  
ENDBRANCH  15  28
ENDBRANCH   8  10
ENDBRANCH   6   8
ENDBRANCH   3   6
ENDBRANCH   2   3
TORSDOF 11
ENDMDL
MODEL      117
REMARK 921   NORMALIZED FREE ENERGY PREDICTED BY IDOCK:   -4.76 KCAL/MOL
REMARK 922        TOTAL FREE ENERGY PREDICTED BY IDOCK:   -8.96 KCAL/MOL
REMARK 923 INTER-LIGAND FREE ENERGY PREDICTED BY IDOCK:   -8.34 KCAL/MOL
REMARK 924 INTRA-LIGAND FREE ENERGY PREDICTED BY IDOCK:   -0.62 KCAL/MOL
REMARK 927      BINDING AFFINITY PREDICTED BY RF-SCORE:    0.00 PKD
ROOT
HETATM    1  C   UNL     1     -12.342   7.117  71.804  1.00  0.00    -0.385 C  
HETATM    2  C   UNL     1     -11.715   6.540  70.542  1.00  0.00    -0.375 C  
ENDROOT
BRANCH   2   3
HETATM    3  N   UNL     1     -10.302   6.898  70.384  1.00  0.00    -0.199 N  
BRANCH   3   4
HETATM    4  C   UNL     1      -9.295   5.935  70.845  1.00  0.00    -0.161 C  
HETATM    5  C   UNL     1      -9.152   5.855  72.353  1.00  0.00    -0.140 C  
ENDBRANCH   3   4
BRANCH   3   6
HETATM    6  C   UNL     1     -10.020   8.032  69.623  1.00  0.00    -0.188 C  
HETATM    7  O   UNL     1      -8.902   8.545  69.612  1.00  0.00    -0.134 OA 
BRANCH   6   8
HETATM    8  N   UNL     1     -11.077   8.496  68.862  1.00  0.00    -0.415 N  
HETATM    9  H   UNL     1     -11.996   8.071  68.982  1.00  0.00     0.000 HD 
BRANCH   8  10
HETATM   10  C   UNL     1     -10.922   9.537  67.929  1.00  0.00    -0.110 A  
HETATM   11  C   UNL     1     -11.400  10.823  68.171  1.00  0.00    -0.377 A  
HETATM   12  C   UNL     1     -11.169  11.846  67.247  1.00  0.00    -0.376 A  
HETATM   13  C   UNL     1     -10.436  11.610  66.076  1.00  0.00    -0.251 A  
HETATM   14  C   UNL     1     -10.255   9.272  66.734  1.00  0.00    -0.325 A  
HETATM   15  C   UNL     1      -9.984  10.304  65.817  1.00  0.00    -0.337 A  
BRANCH  13  16
HETATM   16  O   UNL     1     -10.095  12.597  65.191  1.00  0.00    -0.281 OA 
BRANCH  16  17
HETATM   17  C   UNL     1     -11.054  12.940  64.178  1.00  0.00    -0.399 C  
BRANCH  17  18
HETATM   18  C   UNL     1     -11.669  14.305  64.512  1.00  0.00    -0.418 C  
HETATM   19  H   UNL     1     -13.417  14.967  65.118  1.00  0.00     0.000 HD 
HETATM   20  O   UNL     1     -13.036  14.121  64.911  1.00  0.00    -0.705 OA 
BRANCH  18  21
HETATM   21  C   UNL     1     -10.930  15.056  65.637  1.00  0.00    -0.354 C  
BRANCH  21  22
HETATM   22  N   UNL     1     -10.885  16.509  65.440  1.00  0.00    -0.391 NA 
HETATM   23  C   UNL     1     -10.033  17.246  66.398  1.00  0.00    -0.311 C  
HETATM   24  H   UNL     1     -11.830  16.894  65.443  1.00  0.00     0.000 HD 
HETATM   25  C   UNL     1     -10.193  18.745  66.079  1.00  0.00    -0.413 C  
HETATM   26  C   UNL     1      -8.547  16.883  66.233  1.00  0.00    -0.319 C  
HETATM   27  C   UNL     1     -10.475  17.012  67.852  1.00  0.00    -0.354 C  
ENDBRANCH  21  22
ENDBRANCH  18  21
ENDBRANCH  17  18
ENDBRANCH  16  17
ENDBRANCH  13  16
BRANCH  15  28
HETATM   28  C   UNL     1      -9.131   9.895  64.659  1.00  0.00    -0.242 C  
HETATM   29  O   UNL     1      -9.583   9.995  63.517  1.00  0.00    -0.267 OA 
HETATM   30  C   UNL     1      -7.718   9.419  64.863  1.00  0.00    -0.111 C  
ENDBRANCH  15  28
ENDBRANCH   8  10
ENDBRANCH   6   8
ENDBRANCH   3   6
ENDBRANCH   2   3
TORSDOF 11
ENDMDL
MODEL      118
REMARK 921   NORMALIZED FREE ENERGY PREDICTED BY IDOCK:   -4.75 KCAL/MOL
REMARK 922        TOTAL FREE ENERGY PREDICTED BY IDOCK:   -8.94 KCAL/MOL
REMARK 923 INTER-LIGAND FREE ENERGY PREDICTED BY IDOCK:   -7.42 KCAL/MOL
REMARK 924 INTRA-LIGAND FREE ENERGY PREDICTED BY IDOCK:   -1.52 KCAL/MOL
REMARK 927      BINDING AFFINITY PREDICTED BY RF-SCORE:    0.00 PKD
ROOT
HETATM    1  C   UNL     1     -10.371   5.275  74.097  1.00  0.00    -0.308 C  
HETATM    2  C   UNL     1     -10.758   5.107  72.634  1.00  0.00    -0.237 C  
ENDROOT
BRANCH   2   3
HETATM    3  N   UNL     1      -9.631   5.294  71.714  1.00  0.00    -0.147 N  
BRANCH   3   4
HETATM    4  C   UNL     1      -8.954   4.097  71.205  1.00  0.00    -0.114 C  
HETATM    5  C   UNL     1      -9.438   3.638  69.842  1.00  0.00    -0.262 C  
ENDBRANCH   3   4
BRANCH   3   6
HETATM    6  C   UNL     1      -9.419   6.586  71.232  1.00  0.00    -0.166 C  
HETATM    7  O   UNL     1      -8.471   7.273  71.610  1.00  0.00    -0.112 OA 
BRANCH   6   8
HETATM    8  N   UNL     1     -10.327   7.004  70.277  1.00  0.00    -0.200 N  
HETATM    9  H   UNL     1     -10.578   6.368  69.522  1.00  0.00     0.000 HD 
BRANCH   8  10
HETATM   10  C   UNL     1     -10.915   8.282  70.318  1.00  0.00    -0.232 A  
HETATM   11  C   UNL     1     -11.774   8.668  71.344  1.00  0.00    -0.355 A  
HETATM   12  C   UNL     1     -12.286   9.967  71.383  1.00  0.00    -0.512 A  
HETATM   13  C   UNL     1     -11.931  10.913  70.412  1.00  0.00    -0.362 A  
HETATM   14  C   UNL     1     -10.611   9.191  69.305  1.00  0.00    -0.229 A  
HETATM   15  C   UNL     1     -11.090  10.512  69.358  1.00  0.00    -0.310 A  
BRANCH  13  16
HETATM   16  O   UNL     1     -12.321  12.225  70.461  1.00  0.00    -0.329 OA 
BRANCH  16  17
HETATM   17  C   UNL     1     -12.930  12.689  71.676  1.00  0.00    -0.299 C  
BRANCH  17  18
HETATM   18  C   UNL     1     -13.008  14.222  71.644  1.00  0.00    -0.346 C  
HETATM   19  H   UNL     1     -12.339  15.702  72.748  1.00  0.00     0.000 HD 
HETATM   20  O   UNL     1     -12.291  14.753  72.768  1.00  0.00    -0.319 OA 
BRANCH  18  21
HETATM   21  C   UNL     1     -12.428  14.841  70.358  1.00  0.00    -0.349 C  
BRANCH  21  22
HETATM   22  N   UNL     1     -10.964  14.766  70.280  1.00  0.00    -0.460 NA 
HETATM   23  C   UNL     1     -10.353  15.546  69.183  1.00  0.00    -0.237 C  
HETATM   24  H   UNL     1     -10.664  13.792  70.229  1.00  0.00     0.000 HD 
HETATM   25  C   UNL     1      -8.838  15.265  69.223  1.00  0.00    -0.242 C  
HETATM   26  C   UNL     1     -10.558  17.059  69.378  1.00  0.00    -0.236 C  
HETATM   27  C   UNL     1     -10.889  15.114  67.809  1.00  0.00    -0.292 C  
ENDBRANCH  21  22
ENDBRANCH  18  21
ENDBRANCH  17  18
ENDBRANCH  16  17
ENDBRANCH  13  16
BRANCH  15  28
HETATM   28  C   UNL     1     -10.558  11.407  68.285  1.00  0.00    -0.195 C  
HETATM   29  O   UNL     1      -9.442  11.911  68.424  1.00  0.00    -0.200 OA 
HETATM   30  C   UNL     1     -11.336  11.656  67.021  1.00  0.00    -0.373 C  
ENDBRANCH  15  28
ENDBRANCH   8  10
ENDBRANCH   6   8
ENDBRANCH   3   6
ENDBRANCH   2   3
TORSDOF 11
ENDMDL
MODEL      119
REMARK 921   NORMALIZED FREE ENERGY PREDICTED BY IDOCK:   -4.75 KCAL/MOL
REMARK 922        TOTAL FREE ENERGY PREDICTED BY IDOCK:   -8.94 KCAL/MOL
REMARK 923 INTER-LIGAND FREE ENERGY PREDICTED BY IDOCK:   -7.65 KCAL/MOL
REMARK 924 INTRA-LIGAND FREE ENERGY PREDICTED BY IDOCK:   -1.29 KCAL/MOL
REMARK 927      BINDING AFFINITY PREDICTED BY RF-SCORE:    0.00 PKD
ROOT
HETATM    1  C   UNL     1      -9.910  15.481  69.957  1.00  0.00    -0.121 C  
HETATM    2  C   UNL     1     -11.266  16.096  70.276  1.00  0.00    -0.381 C  
ENDROOT
BRANCH   2   3
HETATM    3  N   UNL     1     -11.946  15.442  71.399  1.00  0.00    -0.338 N  
BRANCH   3   4
HETATM    4  C   UNL     1     -11.544  15.819  72.758  1.00  0.00    -0.299 C  
HETATM    5  C   UNL     1     -12.599  15.558  73.817  1.00  0.00    -0.750 C  
ENDBRANCH   3   4
BRANCH   3   6
HETATM    6  C   UNL     1     -13.063  14.664  71.093  1.00  0.00    -0.366 C  
HETATM    7  O   UNL     1     -14.115  15.165  70.699  1.00  0.00    -0.069 OA 
BRANCH   6   8
HETATM    8  N   UNL     1     -12.874  13.301  71.230  1.00  0.00    -0.345 N  
HETATM    9  H   UNL     1     -13.177  12.844  72.089  1.00  0.00     0.000 HD 
BRANCH   8  10
HETATM   10  C   UNL     1     -12.278  12.527  70.218  1.00  0.00    -0.267 A  
HETATM   11  C   UNL     1     -11.883  11.208  70.433  1.00  0.00    -0.462 A  
HETATM   12  C   UNL     1     -11.354  10.451  69.385  1.00  0.00    -0.310 A  
HETATM   13  C   UNL     1     -11.231  10.988  68.096  1.00  0.00    -0.302 A  
HETATM   14  C   UNL     1     -12.093  13.096  68.959  1.00  0.00    -0.240 A  
HETATM   15  C   UNL     1     -11.598  12.330  67.889  1.00  0.00    -0.416 A  
BRANCH  13  16
HETATM   16  O   UNL     1     -10.816  10.259  67.014  1.00  0.00    -0.248 OA 
BRANCH  16  17
HETATM   17  C   UNL     1      -9.429   9.890  66.957  1.00  0.00    -0.160 C  
BRANCH  17  18
HETATM   18  C   UNL     1      -9.275   8.661  66.050  1.00  0.00    -0.216 C  
HETATM   19  H   UNL     1      -7.884   7.931  64.871  1.00  0.00     0.000 HD 
HETATM   20  O   UNL     1      -7.979   8.693  65.432  1.00  0.00    -0.099 OA 
BRANCH  18  21
HETATM   21  C   UNL     1      -9.426   7.322  66.797  1.00  0.00    -0.171 C  
BRANCH  21  22
HETATM   22  N   UNL     1     -10.562   7.294  67.727  1.00  0.00    -0.308 NA 
HETATM   23  C   UNL     1     -10.313   6.583  68.999  1.00  0.00    -0.195 C  
HETATM   24  H   UNL     1     -11.385   6.909  67.264  1.00  0.00     0.000 HD 
HETATM   25  C   UNL     1     -11.640   6.591  69.783  1.00  0.00    -0.392 C  
HETATM   26  C   UNL     1      -9.254   7.300  69.854  1.00  0.00    -0.141 C  
HETATM   27  C   UNL     1      -9.901   5.120  68.764  1.00  0.00    -0.235 C  
ENDBRANCH  21  22
ENDBRANCH  18  21
ENDBRANCH  17  18
ENDBRANCH  16  17
ENDBRANCH  13  16
BRANCH  15  28
HETATM   28  C   UNL     1     -11.599  13.034  66.570  1.00  0.00    -0.356 C  
HETATM   29  O   UNL     1     -10.724  13.869  66.335  1.00  0.00    -0.279 OA 
HETATM   30  C   UNL     1     -12.615  12.700  65.510  1.00  0.00    -0.182 C  
ENDBRANCH  15  28
ENDBRANCH   8  10
ENDBRANCH   6   8
ENDBRANCH   3   6
ENDBRANCH   2   3
TORSDOF 11
ENDMDL
MODEL      120
REMARK 921   NORMALIZED FREE ENERGY PREDICTED BY IDOCK:   -4.75 KCAL/MOL
REMARK 922        TOTAL FREE ENERGY PREDICTED BY IDOCK:   -8.93 KCAL/MOL
REMARK 923 INTER-LIGAND FREE ENERGY PREDICTED BY IDOCK:   -7.18 KCAL/MOL
REMARK 924 INTRA-LIGAND FREE ENERGY PREDICTED BY IDOCK:   -1.75 KCAL/MOL
REMARK 927      BINDING AFFINITY PREDICTED BY RF-SCORE:    0.00 PKD
ROOT
HETATM    1  C   UNL     1     -10.375  17.912  65.842  1.00  0.00    -0.259 C  
HETATM    2  C   UNL     1      -9.796  16.522  66.066  1.00  0.00    -0.322 C  
ENDROOT
BRANCH   2   3
HETATM    3  N   UNL     1     -10.822  15.479  66.168  1.00  0.00    -0.317 N  
BRANCH   3   4
HETATM    4  C   UNL     1     -11.546  15.350  67.438  1.00  0.00    -0.130 C  
HETATM    5  C   UNL     1     -10.653  15.318  68.665  1.00  0.00    -0.236 C  
ENDBRANCH   3   4
BRANCH   3   6
HETATM    6  C   UNL     1     -11.175  14.824  64.989  1.00  0.00    -0.395 C  
HETATM    7  O   UNL     1     -12.235  15.057  64.408  1.00  0.00    -0.469 OA 
BRANCH   6   8
HETATM    8  N   UNL     1     -10.229  13.935  64.513  1.00  0.00    -0.678 N  
HETATM    9  H   UNL     1      -9.532  14.265  63.846  1.00  0.00     0.000 HD 
BRANCH   8  10
HETATM   10  C   UNL     1     -10.198  12.590  64.923  1.00  0.00    -0.278 A  
HETATM   11  C   UNL     1     -10.001  11.547  64.020  1.00  0.00    -0.341 A  
HETATM   12  C   UNL     1      -9.911  10.229  64.474  1.00  0.00    -0.359 A  
HETATM   13  C   UNL     1      -9.993   9.929  65.841  1.00  0.00    -0.277 A  
HETATM   14  C   UNL     1     -10.354  12.298  66.277  1.00  0.00    -0.257 A  
HETATM   15  C   UNL     1     -10.225  10.979  66.748  1.00  0.00    -0.272 A  
BRANCH  13  16
HETATM   16  O   UNL     1      -9.809   8.670  66.347  1.00  0.00    -0.250 OA 
BRANCH  16  17
HETATM   17  C   UNL     1      -8.632   7.956  65.936  1.00  0.00    -0.153 C  
BRANCH  17  18
HETATM   18  C   UNL     1      -7.841   7.535  67.182  1.00  0.00    -0.117 C  
HETATM   19  H   UNL     1      -6.587   8.393  68.427  1.00  0.00     0.000 HD 
HETATM   20  O   UNL     1      -7.077   8.654  67.655  1.00  0.00    -0.077 OA 
BRANCH  18  21
HETATM   21  C   UNL     1      -8.731   7.030  68.335  1.00  0.00    -0.125 C  
BRANCH  21  22
HETATM   22  N   UNL     1      -8.898   8.008  69.417  1.00  0.00    -0.144 NA 
HETATM   23  C   UNL     1      -9.735   7.554  70.548  1.00  0.00    -0.179 C  
HETATM   24  H   UNL     1      -9.257   8.887  69.044  1.00  0.00     0.000 HD 
HETATM   25  C   UNL     1      -9.855   8.744  71.521  1.00  0.00    -0.371 C  
HETATM   26  C   UNL     1      -9.080   6.387  71.307  1.00  0.00    -0.148 C  
HETATM   27  C   UNL     1     -11.148   7.160  70.090  1.00  0.00    -0.301 C  
ENDBRANCH  21  22
ENDBRANCH  18  21
ENDBRANCH  17  18
ENDBRANCH  16  17
ENDBRANCH  13  16
BRANCH  15  28
HETATM   28  C   UNL     1     -10.266  10.846  68.236  1.00  0.00    -0.173 C  
HETATM   29  O   UNL     1      -9.211  10.879  68.871  1.00  0.00    -0.184 OA 
HETATM   30  C   UNL     1     -11.575  10.728  68.971  1.00  0.00    -0.370 C  
ENDBRANCH  15  28
ENDBRANCH   8  10
ENDBRANCH   6   8
ENDBRANCH   3   6
ENDBRANCH   2   3
TORSDOF 11
ENDMDL
MODEL      121
REMARK 921   NORMALIZED FREE ENERGY PREDICTED BY IDOCK:   -4.74 KCAL/MOL
REMARK 922        TOTAL FREE ENERGY PREDICTED BY IDOCK:   -8.92 KCAL/MOL
REMARK 923 INTER-LIGAND FREE ENERGY PREDICTED BY IDOCK:   -7.81 KCAL/MOL
REMARK 924 INTRA-LIGAND FREE ENERGY PREDICTED BY IDOCK:   -1.11 KCAL/MOL
REMARK 927      BINDING AFFINITY PREDICTED BY RF-SCORE:    0.00 PKD
ROOT
HETATM    1  C   UNL     1     -10.225  17.803  66.469  1.00  0.00    -0.358 C  
HETATM    2  C   UNL     1     -10.370  16.297  66.301  1.00  0.00    -0.326 C  
ENDROOT
BRANCH   2   3
HETATM    3  N   UNL     1     -10.323  15.568  67.573  1.00  0.00    -0.265 N  
BRANCH   3   4
HETATM    4  C   UNL     1      -9.017  15.396  68.218  1.00  0.00    -0.185 C  
HETATM    5  C   UNL     1      -8.424  14.008  68.068  1.00  0.00    -0.171 C  
ENDBRANCH   3   4
BRANCH   3   6
HETATM    6  C   UNL     1     -11.546  15.272  68.175  1.00  0.00    -0.330 C  
HETATM    7  O   UNL     1     -11.958  15.897  69.151  1.00  0.00    -0.380 OA 
BRANCH   6   8
HETATM    8  N   UNL     1     -12.262  14.259  67.564  1.00  0.00    -0.598 N  
HETATM    9  H   UNL     1     -13.115  14.493  67.057  1.00  0.00     0.000 HD 
BRANCH   8  10
HETATM   10  C   UNL     1     -11.850  12.915  67.623  1.00  0.00    -0.346 A  
HETATM   11  C   UNL     1     -11.358  12.244  66.506  1.00  0.00    -0.403 A  
HETATM   12  C   UNL     1     -10.897  10.930  66.620  1.00  0.00    -0.258 A  
HETATM   13  C   UNL     1     -10.898  10.269  67.856  1.00  0.00    -0.284 A  
HETATM   14  C   UNL     1     -11.925  12.244  68.843  1.00  0.00    -0.300 A  
HETATM   15  C   UNL     1     -11.427  10.935  68.976  1.00  0.00    -0.371 A  
BRANCH  13  16
HETATM   16  O   UNL     1     -10.365   9.021  68.042  1.00  0.00    -0.206 OA 
BRANCH  16  17
HETATM   17  C   UNL     1     -10.650   8.024  67.047  1.00  0.00    -0.294 C  
BRANCH  17  18
HETATM   18  C   UNL     1     -10.736   6.650  67.726  1.00  0.00    -0.283 C  
HETATM   19  H   UNL     1     -10.751   4.775  67.140  1.00  0.00     0.000 HD 
HETATM   20  O   UNL     1     -10.699   5.626  66.720  1.00  0.00    -0.291 OA 
BRANCH  18  21
HETATM   21  C   UNL     1      -9.598   6.387  68.731  1.00  0.00    -0.125 C  
BRANCH  21  22
HETATM   22  N   UNL     1      -9.744   5.124  69.464  1.00  0.00    -0.173 NA 
HETATM   23  C   UNL     1      -9.778   5.253  70.936  1.00  0.00    -0.184 C  
HETATM   24  H   UNL     1      -9.013   4.469  69.185  1.00  0.00     0.000 HD 
HETATM   25  C   UNL     1      -9.845   3.824  71.510  1.00  0.00    -0.235 C  
HETATM   26  C   UNL     1     -11.028   6.013  71.412  1.00  0.00    -0.336 C  
HETATM   27  C   UNL     1      -8.509   5.932  71.478  1.00  0.00    -0.128 C  
ENDBRANCH  21  22
ENDBRANCH  18  21
ENDBRANCH  17  18
ENDBRANCH  16  17
ENDBRANCH  13  16
BRANCH  15  28
HETATM   28  C   UNL     1     -11.438  10.407  70.374  1.00  0.00    -0.337 C  
HETATM   29  O   UNL     1     -12.432  10.593  71.078  1.00  0.00    -0.340 OA 
HETATM   30  C   UNL     1     -10.281   9.608  70.913  1.00  0.00    -0.303 C  
ENDBRANCH  15  28
ENDBRANCH   8  10
ENDBRANCH   6   8
ENDBRANCH   3   6
ENDBRANCH   2   3
TORSDOF 11
ENDMDL
MODEL      122
REMARK 921   NORMALIZED FREE ENERGY PREDICTED BY IDOCK:   -4.72 KCAL/MOL
REMARK 922        TOTAL FREE ENERGY PREDICTED BY IDOCK:   -8.89 KCAL/MOL
REMARK 923 INTER-LIGAND FREE ENERGY PREDICTED BY IDOCK:   -7.62 KCAL/MOL
REMARK 924 INTRA-LIGAND FREE ENERGY PREDICTED BY IDOCK:   -1.26 KCAL/MOL
REMARK 927      BINDING AFFINITY PREDICTED BY RF-SCORE:    0.00 PKD
ROOT
HETATM    1  C   UNL     1      -7.731  17.294  67.654  1.00  0.00    -0.194 C  
HETATM    2  C   UNL     1      -8.625  18.338  68.307  1.00  0.00    -0.285 C  
ENDROOT
BRANCH   2   3
HETATM    3  N   UNL     1     -10.054  18.104  68.071  1.00  0.00    -0.347 N  
BRANCH   3   4
HETATM    4  C   UNL     1     -10.771  19.050  67.209  1.00  0.00    -0.470 C  
HETATM    5  C   UNL     1      -9.881  20.076  66.532  1.00  0.00    -0.581 C  
ENDBRANCH   3   4
BRANCH   3   6
HETATM    6  C   UNL     1     -10.575  16.889  68.513  1.00  0.00    -0.367 C  
HETATM    7  O   UNL     1     -10.796  16.671  69.704  1.00  0.00    -0.341 OA 
BRANCH   6   8
HETATM    8  N   UNL     1     -10.856  15.979  67.510  1.00  0.00    -0.313 N  
HETATM    9  H   UNL     1     -11.144  16.326  66.596  1.00  0.00     0.000 HD 
BRANCH   8  10
HETATM   10  C   UNL     1     -10.757  14.591  67.714  1.00  0.00    -0.256 A  
HETATM   11  C   UNL     1     -11.879  13.767  67.746  1.00  0.00    -0.404 A  
HETATM   12  C   UNL     1     -11.734  12.384  67.885  1.00  0.00    -0.421 A  
HETATM   13  C   UNL     1     -10.465  11.796  67.972  1.00  0.00    -0.199 A  
HETATM   14  C   UNL     1      -9.492  14.026  67.873  1.00  0.00    -0.210 A  
HETATM   15  C   UNL     1      -9.334  12.632  67.974  1.00  0.00    -0.209 A  
BRANCH  13  16
HETATM   16  O   UNL     1     -10.265  10.442  68.006  1.00  0.00    -0.158 OA 
BRANCH  16  17
HETATM   17  C   UNL     1     -10.660   9.684  66.851  1.00  0.00    -0.171 C  
BRANCH  17  18
HETATM   18  C   UNL     1     -10.311   8.207  67.077  1.00  0.00    -0.333 C  
HETATM   19  H   UNL     1      -8.913   6.968  66.468  1.00  0.00     0.000 HD 
HETATM   20  O   UNL     1      -9.129   7.883  66.328  1.00  0.00    -0.169 OA 
BRANCH  18  21
HETATM   21  C   UNL     1     -10.063   7.851  68.555  1.00  0.00    -0.197 C  
BRANCH  21  22
HETATM   22  N   UNL     1     -11.289   7.806  69.360  1.00  0.00    -0.404 NA 
HETATM   23  C   UNL     1     -11.159   7.118  70.663  1.00  0.00    -0.267 C  
HETATM   24  H   UNL     1     -12.050   7.393  68.819  1.00  0.00     0.000 HD 
HETATM   25  C   UNL     1     -12.561   7.102  71.302  1.00  0.00    -0.421 C  
HETATM   26  C   UNL     1     -10.214   7.873  71.613  1.00  0.00    -0.239 C  
HETATM   27  C   UNL     1     -10.688   5.664  70.495  1.00  0.00    -0.344 C  
ENDBRANCH  21  22
ENDBRANCH  18  21
ENDBRANCH  17  18
ENDBRANCH  16  17
ENDBRANCH  13  16
BRANCH  15  28
HETATM   28  C   UNL     1      -7.913  12.168  67.985  1.00  0.00    -0.152 C  
HETATM   29  O   UNL     1      -7.307  12.119  69.057  1.00  0.00    -0.088 OA 
HETATM   30  C   UNL     1      -7.234  11.710  66.723  1.00  0.00    -0.082 C  
ENDBRANCH  15  28
ENDBRANCH   8  10
ENDBRANCH   6   8
ENDBRANCH   3   6
ENDBRANCH   2   3
TORSDOF 11
ENDMDL
MODEL      123
REMARK 921   NORMALIZED FREE ENERGY PREDICTED BY IDOCK:   -4.72 KCAL/MOL
REMARK 922        TOTAL FREE ENERGY PREDICTED BY IDOCK:   -8.88 KCAL/MOL
REMARK 923 INTER-LIGAND FREE ENERGY PREDICTED BY IDOCK:   -8.11 KCAL/MOL
REMARK 924 INTRA-LIGAND FREE ENERGY PREDICTED BY IDOCK:   -0.78 KCAL/MOL
REMARK 927      BINDING AFFINITY PREDICTED BY RF-SCORE:    0.00 PKD
ROOT
HETATM    1  C   UNL     1     -11.417  12.600  63.501  1.00  0.00    -0.557 C  
HETATM    2  C   UNL     1     -12.385  13.030  64.594  1.00  0.00    -0.422 C  
ENDROOT
BRANCH   2   3
HETATM    3  N   UNL     1     -11.738  13.782  65.675  1.00  0.00    -0.335 N  
BRANCH   3   4
HETATM    4  C   UNL     1     -11.238  15.127  65.371  1.00  0.00    -0.338 C  
HETATM    5  C   UNL     1      -9.770  15.335  65.693  1.00  0.00    -0.360 C  
ENDBRANCH   3   4
BRANCH   3   6
HETATM    6  C   UNL     1     -11.830  13.245  66.959  1.00  0.00    -0.390 C  
HETATM    7  O   UNL     1     -11.877  13.959  67.960  1.00  0.00    -0.341 OA 
BRANCH   6   8
HETATM    8  N   UNL     1     -11.906  11.865  67.006  1.00  0.00    -0.214 N  
HETATM    9  H   UNL     1     -12.275  11.363  66.199  1.00  0.00     0.000 HD 
BRANCH   8  10
HETATM   10  C   UNL     1     -11.489  11.134  68.133  1.00  0.00    -0.303 A  
HETATM   11  C   UNL     1     -10.232  10.539  68.204  1.00  0.00    -0.187 A  
HETATM   12  C   UNL     1      -9.830   9.877  69.367  1.00  0.00    -0.231 A  
HETATM   13  C   UNL     1     -10.667   9.817  70.490  1.00  0.00    -0.317 A  
HETATM   14  C   UNL     1     -12.359  11.019  69.217  1.00  0.00    -0.160 A  
HETATM   15  C   UNL     1     -11.949  10.389  70.405  1.00  0.00    -0.409 A  
BRANCH  13  16
HETATM   16  O   UNL     1     -10.283   9.272  71.686  1.00  0.00    -0.332 OA 
BRANCH  16  17
HETATM   17  C   UNL     1      -9.083   8.481  71.698  1.00  0.00    -0.229 C  
BRANCH  17  18
HETATM   18  C   UNL     1      -9.208   7.399  72.779  1.00  0.00    -0.149 C  
HETATM   19  H   UNL     1     -10.443   6.999  74.253  1.00  0.00     0.000 HD 
HETATM   20  O   UNL     1     -10.365   7.669  73.584  1.00  0.00    -0.324 OA 
BRANCH  18  21
HETATM   21  C   UNL     1      -9.332   5.972  72.211  1.00  0.00    -0.143 C  
BRANCH  21  22
HETATM   22  N   UNL     1      -8.875   4.930  73.138  1.00  0.00    -0.112 NA 
HETATM   23  C   UNL     1      -9.705   3.707  73.166  1.00  0.00    -0.117 C  
HETATM   24  H   UNL     1      -8.782   5.313  74.080  1.00  0.00     0.000 HD 
HETATM   25  C   UNL     1      -9.113   2.789  74.253  1.00  0.00    -0.091 C  
HETATM   26  C   UNL     1      -9.648   2.951  71.827  1.00  0.00    -0.217 C  
HETATM   27  C   UNL     1     -11.164   4.016  73.537  1.00  0.00    -0.325 C  
ENDBRANCH  21  22
ENDBRANCH  18  21
ENDBRANCH  17  18
ENDBRANCH  16  17
ENDBRANCH  13  16
BRANCH  15  28
HETATM   28  C   UNL     1     -12.934  10.478  71.526  1.00  0.00    -0.460 C  
HETATM   29  O   UNL     1     -13.245  11.587  71.965  1.00  0.00    -0.509 OA 
HETATM   30  C   UNL     1     -13.591   9.244  72.085  1.00  0.00    -0.536 C  
ENDBRANCH  15  28
ENDBRANCH   8  10
ENDBRANCH   6   8
ENDBRANCH   3   6
ENDBRANCH   2   3
TORSDOF 11
ENDMDL
MODEL      124
REMARK 921   NORMALIZED FREE ENERGY PREDICTED BY IDOCK:   -4.71 KCAL/MOL
REMARK 922        TOTAL FREE ENERGY PREDICTED BY IDOCK:   -8.88 KCAL/MOL
REMARK 923 INTER-LIGAND FREE ENERGY PREDICTED BY IDOCK:   -8.01 KCAL/MOL
REMARK 924 INTRA-LIGAND FREE ENERGY PREDICTED BY IDOCK:   -0.87 KCAL/MOL
REMARK 927      BINDING AFFINITY PREDICTED BY RF-SCORE:    0.00 PKD
ROOT
HETATM    1  C   UNL     1     -10.067   6.877  66.574  1.00  0.00    -0.140 C  
HETATM    2  C   UNL     1     -11.122   6.393  67.559  1.00  0.00    -0.306 C  
ENDROOT
BRANCH   2   3
HETATM    3  N   UNL     1     -10.621   6.284  68.933  1.00  0.00    -0.237 N  
BRANCH   3   4
HETATM    4  C   UNL     1      -9.450   5.432  69.171  1.00  0.00    -0.133 C  
HETATM    5  C   UNL     1      -9.757   4.140  69.906  1.00  0.00    -0.280 C  
ENDBRANCH   3   4
BRANCH   3   6
HETATM    6  C   UNL     1     -11.166   7.157  69.874  1.00  0.00    -0.208 C  
HETATM    7  O   UNL     1     -12.188   6.882  70.501  1.00  0.00    -0.340 OA 
BRANCH   6   8
HETATM    8  N   UNL     1     -10.446   8.322  70.068  1.00  0.00    -0.226 N  
HETATM    9  H   UNL     1      -9.535   8.271  70.522  1.00  0.00     0.000 HD 
BRANCH   8  10
HETATM   10  C   UNL     1     -10.935   9.576  69.658  1.00  0.00    -0.212 A  
HETATM   11  C   UNL     1     -11.668  10.398  70.511  1.00  0.00    -0.434 A  
HETATM   12  C   UNL     1     -12.080  11.665  70.088  1.00  0.00    -0.414 A  
HETATM   13  C   UNL     1     -11.746  12.144  68.814  1.00  0.00    -0.321 A  
HETATM   14  C   UNL     1     -10.658  10.012  68.363  1.00  0.00    -0.253 A  
HETATM   15  C   UNL     1     -11.034  11.301  67.942  1.00  0.00    -0.302 A  
BRANCH  13  16
HETATM   16  O   UNL     1     -12.035  13.413  68.389  1.00  0.00    -0.348 OA 
BRANCH  16  17
HETATM   17  C   UNL     1     -11.009  14.409  68.531  1.00  0.00    -0.251 C  
BRANCH  17  18
HETATM   18  C   UNL     1     -11.639  15.705  69.059  1.00  0.00    -0.386 C  
HETATM   19  H   UNL     1     -12.561  16.271  70.699  1.00  0.00     0.000 HD 
HETATM   20  O   UNL     1     -12.171  15.469  70.372  1.00  0.00    -0.362 OA 
BRANCH  18  21
HETATM   21  C   UNL     1     -10.649  16.883  69.139  1.00  0.00    -0.330 C  
BRANCH  21  22
HETATM   22  N   UNL     1      -9.971  17.167  67.869  1.00  0.00    -0.281 NA 
HETATM   23  C   UNL     1      -9.403  18.526  67.751  1.00  0.00    -0.291 C  
HETATM   24  H   UNL     1     -10.598  16.978  67.086  1.00  0.00     0.000 HD 
HETATM   25  C   UNL     1      -8.822  18.647  66.328  1.00  0.00    -0.227 C  
HETATM   26  C   UNL     1      -8.255  18.752  68.751  1.00  0.00    -0.329 C  
HETATM   27  C   UNL     1     -10.478  19.611  67.927  1.00  0.00    -0.556 C  
ENDBRANCH  21  22
ENDBRANCH  18  21
ENDBRANCH  17  18
ENDBRANCH  16  17
ENDBRANCH  13  16
BRANCH  15  28
HETATM   28  C   UNL     1     -10.537  11.678  66.584  1.00  0.00    -0.243 C  
HETATM   29  O   UNL     1      -9.342  11.533  66.321  1.00  0.00    -0.201 OA 
HETATM   30  C   UNL     1     -11.479  12.177  65.521  1.00  0.00    -0.394 C  
ENDBRANCH  15  28
ENDBRANCH   8  10
ENDBRANCH   6   8
ENDBRANCH   3   6
ENDBRANCH   2   3
TORSDOF 11
ENDMDL
MODEL      125
REMARK 921   NORMALIZED FREE ENERGY PREDICTED BY IDOCK:   -4.71 KCAL/MOL
REMARK 922        TOTAL FREE ENERGY PREDICTED BY IDOCK:   -8.87 KCAL/MOL
REMARK 923 INTER-LIGAND FREE ENERGY PREDICTED BY IDOCK:   -7.75 KCAL/MOL
REMARK 924 INTRA-LIGAND FREE ENERGY PREDICTED BY IDOCK:   -1.12 KCAL/MOL
REMARK 927      BINDING AFFINITY PREDICTED BY RF-SCORE:    0.00 PKD
ROOT
HETATM    1  C   UNL     1      -8.967   3.367  65.237  1.00  0.00    -0.140 C  
HETATM    2  C   UNL     1      -8.796   4.868  65.050  1.00  0.00    -0.154 C  
ENDROOT
BRANCH   2   3
HETATM    3  N   UNL     1      -9.122   5.639  66.254  1.00  0.00    -0.145 N  
BRANCH   3   4
HETATM    4  C   UNL     1     -10.192   5.136  67.123  1.00  0.00    -0.208 C  
HETATM    5  C   UNL     1     -10.955   6.218  67.865  1.00  0.00    -0.421 C  
ENDBRANCH   3   4
BRANCH   3   6
HETATM    6  C   UNL     1      -8.255   6.679  66.591  1.00  0.00    -0.112 C  
HETATM    7  O   UNL     1      -7.584   6.658  67.622  1.00  0.00    -0.101 OA 
BRANCH   6   8
HETATM    8  N   UNL     1      -8.186   7.699  65.660  1.00  0.00    -0.130 N  
HETATM    9  H   UNL     1      -7.517   7.624  64.894  1.00  0.00     0.000 HD 
BRANCH   8  10
HETATM   10  C   UNL     1      -9.009   8.837  65.739  1.00  0.00    -0.206 A  
HETATM   11  C   UNL     1      -9.317   9.605  64.618  1.00  0.00    -0.271 A  
HETATM   12  C   UNL     1     -10.192  10.690  64.726  1.00  0.00    -0.401 A  
HETATM   13  C   UNL     1     -10.793  11.014  65.950  1.00  0.00    -0.115 A  
HETATM   14  C   UNL     1      -9.543   9.193  66.977  1.00  0.00    -0.223 A  
HETATM   15  C   UNL     1     -10.455  10.259  67.087  1.00  0.00    -0.311 A  
BRANCH  13  16
HETATM   16  O   UNL     1     -11.733  12.000  66.088  1.00  0.00    -0.483 OA 
BRANCH  16  17
HETATM   17  C   UNL     1     -12.325  12.524  64.888  1.00  0.00    -0.470 C  
BRANCH  17  18
HETATM   18  C   UNL     1     -11.766  13.928  64.625  1.00  0.00    -0.397 C  
HETATM   19  H   UNL     1     -12.230  15.449  63.471  1.00  0.00     0.000 HD 
HETATM   20  O   UNL     1     -12.576  14.579  63.634  1.00  0.00    -0.798 OA 
BRANCH  18  21
HETATM   21  C   UNL     1     -11.724  14.820  65.881  1.00  0.00    -0.248 C  
BRANCH  21  22
HETATM   22  N   UNL     1     -10.501  14.654  66.676  1.00  0.00    -0.274 NA 
HETATM   23  C   UNL     1     -10.614  15.063  68.093  1.00  0.00    -0.248 C  
HETATM   24  H   UNL     1      -9.723  15.142  66.231  1.00  0.00     0.000 HD 
HETATM   25  C   UNL     1      -9.216  14.896  68.720  1.00  0.00    -0.193 C  
HETATM   26  C   UNL     1     -11.591  14.162  68.868  1.00  0.00    -0.345 C  
HETATM   27  C   UNL     1     -11.032  16.536  68.230  1.00  0.00    -0.346 C  
ENDBRANCH  21  22
ENDBRANCH  18  21
ENDBRANCH  17  18
ENDBRANCH  16  17
ENDBRANCH  13  16
BRANCH  15  28
HETATM   28  C   UNL     1     -11.055  10.422  68.446  1.00  0.00    -0.268 C  
HETATM   29  O   UNL     1     -12.231  10.778  68.544  1.00  0.00    -0.470 OA 
HETATM   30  C   UNL     1     -10.266  10.105  69.688  1.00  0.00    -0.272 C  
ENDBRANCH  15  28
ENDBRANCH   8  10
ENDBRANCH   6   8
ENDBRANCH   3   6
ENDBRANCH   2   3
TORSDOF 11
ENDMDL
MODEL      126
REMARK 921   NORMALIZED FREE ENERGY PREDICTED BY IDOCK:   -4.70 KCAL/MOL
REMARK 922        TOTAL FREE ENERGY PREDICTED BY IDOCK:   -8.86 KCAL/MOL
REMARK 923 INTER-LIGAND FREE ENERGY PREDICTED BY IDOCK:   -6.94 KCAL/MOL
REMARK 924 INTRA-LIGAND FREE ENERGY PREDICTED BY IDOCK:   -1.92 KCAL/MOL
REMARK 927      BINDING AFFINITY PREDICTED BY RF-SCORE:    0.00 PKD
ROOT
HETATM    1  C   UNL     1     -10.728   7.252  66.923  1.00  0.00    -0.346 C  
HETATM    2  C   UNL     1      -9.541   6.408  67.366  1.00  0.00    -0.120 C  
ENDROOT
BRANCH   2   3
HETATM    3  N   UNL     1      -8.758   7.032  68.438  1.00  0.00    -0.125 N  
BRANCH   3   4
HETATM    4  C   UNL     1      -9.020   6.604  69.817  1.00  0.00    -0.143 C  
HETATM    5  C   UNL     1      -7.799   6.083  70.552  1.00  0.00    -0.102 C  
ENDBRANCH   3   4
BRANCH   3   6
HETATM    6  C   UNL     1      -7.684   7.832  68.051  1.00  0.00    -0.126 C  
HETATM    7  O   UNL     1      -6.780   7.404  67.333  1.00  0.00    -0.064 OA 
BRANCH   6   8
HETATM    8  N   UNL     1      -7.742   9.138  68.501  1.00  0.00    -0.092 N  
HETATM    9  H   UNL     1      -7.126   9.427  69.261  1.00  0.00     0.000 HD 
BRANCH   8  10
HETATM   10  C   UNL     1      -8.625  10.080  67.942  1.00  0.00    -0.121 A  
HETATM   11  C   UNL     1      -8.489  10.534  66.632  1.00  0.00    -0.129 A  
HETATM   12  C   UNL     1      -9.425  11.420  66.092  1.00  0.00    -0.237 A  
HETATM   13  C   UNL     1     -10.527  11.852  66.843  1.00  0.00    -0.222 A  
HETATM   14  C   UNL     1      -9.676  10.559  68.723  1.00  0.00    -0.187 A  
HETATM   15  C   UNL     1     -10.644  11.420  68.176  1.00  0.00    -0.220 A  
BRANCH  13  16
HETATM   16  O   UNL     1     -11.525  12.636  66.330  1.00  0.00    -0.315 OA 
BRANCH  16  17
HETATM   17  C   UNL     1     -12.014  12.313  65.018  1.00  0.00    -0.354 C  
BRANCH  17  18
HETATM   18  C   UNL     1     -11.591  13.416  64.040  1.00  0.00    -0.385 C  
HETATM   19  H   UNL     1     -12.324  14.223  62.405  1.00  0.00     0.000 HD 
HETATM   20  O   UNL     1     -12.586  13.540  63.012  1.00  0.00    -0.716 OA 
BRANCH  18  21
HETATM   21  C   UNL     1     -11.406  14.794  64.706  1.00  0.00    -0.397 C  
BRANCH  21  22
HETATM   22  N   UNL     1     -10.021  15.069  65.108  1.00  0.00    -0.350 NA 
HETATM   23  C   UNL     1      -9.859  16.153  66.099  1.00  0.00    -0.333 C  
HETATM   24  H   UNL     1      -9.446  15.255  64.285  1.00  0.00     0.000 HD 
HETATM   25  C   UNL     1      -8.345  16.340  66.315  1.00  0.00    -0.343 C  
HETATM   26  C   UNL     1     -10.488  15.784  67.454  1.00  0.00    -0.297 C  
HETATM   27  C   UNL     1     -10.442  17.482  65.591  1.00  0.00    -0.156 C  
ENDBRANCH  21  22
ENDBRANCH  18  21
ENDBRANCH  17  18
ENDBRANCH  16  17
ENDBRANCH  13  16
BRANCH  15  28
HETATM   28  C   UNL     1     -11.789  11.724  69.089  1.00  0.00    -0.326 C  
HETATM   29  O   UNL     1     -12.656  10.867  69.269  1.00  0.00    -0.356 OA 
HETATM   30  C   UNL     1     -11.867  13.033  69.828  1.00  0.00    -0.381 C  
ENDBRANCH  15  28
ENDBRANCH   8  10
ENDBRANCH   6   8
ENDBRANCH   3   6
ENDBRANCH   2   3
TORSDOF 11
ENDMDL
MODEL      127
REMARK 921   NORMALIZED FREE ENERGY PREDICTED BY IDOCK:   -4.70 KCAL/MOL
REMARK 922        TOTAL FREE ENERGY PREDICTED BY IDOCK:   -8.85 KCAL/MOL
REMARK 923 INTER-LIGAND FREE ENERGY PREDICTED BY IDOCK:   -7.10 KCAL/MOL
REMARK 924 INTRA-LIGAND FREE ENERGY PREDICTED BY IDOCK:   -1.75 KCAL/MOL
REMARK 927      BINDING AFFINITY PREDICTED BY RF-SCORE:    0.00 PKD
ROOT
HETATM    1  C   UNL     1      -9.995  17.384  67.721  1.00  0.00    -0.301 C  
HETATM    2  C   UNL     1     -11.139  16.506  68.210  1.00  0.00    -0.321 C  
ENDROOT
BRANCH   2   3
HETATM    3  N   UNL     1     -10.700  15.434  69.109  1.00  0.00    -0.233 N  
BRANCH   3   4
HETATM    4  C   UNL     1      -9.299  15.434  69.544  1.00  0.00    -0.252 C  
HETATM    5  C   UNL     1      -8.483  14.266  69.021  1.00  0.00     0.049 C  
ENDBRANCH   3   4
BRANCH   3   6
HETATM    6  C   UNL     1     -11.693  14.615  69.646  1.00  0.00    -0.313 C  
HETATM    7  O   UNL     1     -11.977  14.637  70.842  1.00  0.00    -0.294 OA 
BRANCH   6   8
HETATM    8  N   UNL     1     -12.349  13.820  68.724  1.00  0.00    -0.394 N  
HETATM    9  H   UNL     1     -13.342  13.978  68.553  1.00  0.00     0.000 HD 
BRANCH   8  10
HETATM   10  C   UNL     1     -11.689  12.800  68.015  1.00  0.00    -0.356 A  
HETATM   11  C   UNL     1     -11.133  11.695  68.657  1.00  0.00    -0.287 A  
HETATM   12  C   UNL     1     -10.543  10.671  67.912  1.00  0.00    -0.266 A  
HETATM   13  C   UNL     1     -10.517  10.720  66.511  1.00  0.00    -0.240 A  
HETATM   14  C   UNL     1     -11.604  12.896  66.627  1.00  0.00    -0.428 A  
HETATM   15  C   UNL     1     -11.047  11.851  65.867  1.00  0.00    -0.365 A  
BRANCH  13  16
HETATM   16  O   UNL     1     -10.044   9.698  65.732  1.00  0.00    -0.290 OA 
BRANCH  16  17
HETATM   17  C   UNL     1      -8.653   9.358  65.858  1.00  0.00    -0.141 C  
BRANCH  17  18
HETATM   18  C   UNL     1      -8.409   7.994  65.198  1.00  0.00    -0.130 C  
HETATM   19  H   UNL     1      -7.069   7.220  63.989  1.00  0.00     0.000 HD 
HETATM   20  O   UNL     1      -7.220   8.065  64.397  1.00  0.00    -0.077 OA 
BRANCH  18  21
HETATM   21  C   UNL     1      -8.247   6.842  66.208  1.00  0.00    -0.120 C  
BRANCH  21  22
HETATM   22  N   UNL     1      -8.808   7.139  67.532  1.00  0.00    -0.120 NA 
HETATM   23  C   UNL     1      -9.905   6.246  67.964  1.00  0.00    -0.125 C  
HETATM   24  H   UNL     1      -9.110   8.113  67.575  1.00  0.00     0.000 HD 
HETATM   25  C   UNL     1     -10.406   6.777  69.321  1.00  0.00    -0.221 C  
HETATM   26  C   UNL     1      -9.414   4.803  68.172  1.00  0.00    -0.186 C  
HETATM   27  C   UNL     1     -11.080   6.266  66.973  1.00  0.00    -0.379 C  
ENDBRANCH  21  22
ENDBRANCH  18  21
ENDBRANCH  17  18
ENDBRANCH  16  17
ENDBRANCH  13  16
BRANCH  15  28
HETATM   28  C   UNL     1     -11.165  12.031  64.387  1.00  0.00    -0.344 C  
HETATM   29  O   UNL     1     -10.149  12.254  63.727  1.00  0.00    -0.385 OA 
HETATM   30  C   UNL     1     -12.491  11.888  63.689  1.00  0.00    -0.583 C  
ENDBRANCH  15  28
ENDBRANCH   8  10
ENDBRANCH   6   8
ENDBRANCH   3   6
ENDBRANCH   2   3
TORSDOF 11
ENDMDL
MODEL      128
REMARK 921   NORMALIZED FREE ENERGY PREDICTED BY IDOCK:   -4.69 KCAL/MOL
REMARK 922        TOTAL FREE ENERGY PREDICTED BY IDOCK:   -8.84 KCAL/MOL
REMARK 923 INTER-LIGAND FREE ENERGY PREDICTED BY IDOCK:   -7.62 KCAL/MOL
REMARK 924 INTRA-LIGAND FREE ENERGY PREDICTED BY IDOCK:   -1.22 KCAL/MOL
REMARK 927      BINDING AFFINITY PREDICTED BY RF-SCORE:    0.00 PKD
ROOT
HETATM    1  C   UNL     1      -6.396  19.871  69.698  1.00  0.00    -0.387 C  
HETATM    2  C   UNL     1      -7.320  18.872  69.016  1.00  0.00    -0.283 C  
ENDROOT
BRANCH   2   3
HETATM    3  N   UNL     1      -8.344  19.510  68.182  1.00  0.00    -0.317 N  
BRANCH   3   4
HETATM    4  C   UNL     1      -7.918  20.105  66.910  1.00  0.00    -0.317 C  
HETATM    5  C   UNL     1      -7.191  19.148  65.984  1.00  0.00    -0.298 C  
ENDBRANCH   3   4
BRANCH   3   6
HETATM    6  C   UNL     1      -9.673  19.322  68.560  1.00  0.00    -0.414 C  
HETATM    7  O   UNL     1     -10.139  19.839  69.574  1.00  0.00    -0.338 OA 
BRANCH   6   8
HETATM    8  N   UNL     1     -10.420  18.552  67.688  1.00  0.00    -0.405 N  
HETATM    9  H   UNL     1     -10.894  19.007  66.909  1.00  0.00     0.000 HD 
BRANCH   8  10
HETATM   10  C   UNL     1     -10.545  17.159  67.844  1.00  0.00    -0.376 A  
HETATM   11  C   UNL     1      -9.946  16.260  66.964  1.00  0.00    -0.255 A  
HETATM   12  C   UNL     1     -10.038  14.885  67.191  1.00  0.00    -0.240 A  
HETATM   13  C   UNL     1     -10.712  14.381  68.312  1.00  0.00    -0.242 A  
HETATM   14  C   UNL     1     -11.280  16.669  68.923  1.00  0.00    -0.200 A  
HETATM   15  C   UNL     1     -11.346  15.288  69.180  1.00  0.00    -0.307 A  
BRANCH  13  16
HETATM   16  O   UNL     1     -10.745  13.051  68.635  1.00  0.00    -0.247 OA 
BRANCH  16  17
HETATM   17  C   UNL     1     -11.393  12.161  67.711  1.00  0.00    -0.307 C  
BRANCH  17  18
HETATM   18  C   UNL     1     -10.388  11.097  67.251  1.00  0.00    -0.208 C  
HETATM   19  H   UNL     1     -10.360   9.139  67.101  1.00  0.00     0.000 HD 
HETATM   20  O   UNL     1     -10.982   9.798  67.387  1.00  0.00    -0.259 OA 
BRANCH  18  21
HETATM   21  C   UNL     1      -9.931  11.273  65.789  1.00  0.00    -0.237 C  
BRANCH  21  22
HETATM   22  N   UNL     1      -8.479  11.151  65.611  1.00  0.00    -0.347 NA 
HETATM   23  C   UNL     1      -8.053  10.148  64.612  1.00  0.00    -0.153 C  
HETATM   24  H   UNL     1      -8.028  10.967  66.508  1.00  0.00     0.000 HD 
HETATM   25  C   UNL     1      -6.512  10.114  64.641  1.00  0.00    -0.125 C  
HETATM   26  C   UNL     1      -8.490  10.540  63.190  1.00  0.00    -0.167 C  
HETATM   27  C   UNL     1      -8.573   8.743  64.956  1.00  0.00    -0.196 C  
ENDBRANCH  21  22
ENDBRANCH  18  21
ENDBRANCH  17  18
ENDBRANCH  16  17
ENDBRANCH  13  16
BRANCH  15  28
HETATM   28  C   UNL     1     -12.040  14.928  70.454  1.00  0.00    -0.330 C  
HETATM   29  O   UNL     1     -13.129  14.352  70.401  1.00  0.00    -0.275 OA 
HETATM   30  C   UNL     1     -11.408  15.206  71.791  1.00  0.00    -0.391 C  
ENDBRANCH  15  28
ENDBRANCH   8  10
ENDBRANCH   6   8
ENDBRANCH   3   6
ENDBRANCH   2   3
TORSDOF 11
ENDMDL
MODEL      129
REMARK 921   NORMALIZED FREE ENERGY PREDICTED BY IDOCK:   -4.68 KCAL/MOL
REMARK 922        TOTAL FREE ENERGY PREDICTED BY IDOCK:   -8.81 KCAL/MOL
REMARK 923 INTER-LIGAND FREE ENERGY PREDICTED BY IDOCK:   -7.98 KCAL/MOL
REMARK 924 INTRA-LIGAND FREE ENERGY PREDICTED BY IDOCK:   -0.83 KCAL/MOL
REMARK 927      BINDING AFFINITY PREDICTED BY RF-SCORE:    0.00 PKD
ROOT
HETATM    1  C   UNL     1      -6.640  15.528  67.747  1.00  0.00    -0.181 C  
HETATM    2  C   UNL     1      -7.197  16.624  68.645  1.00  0.00    -0.192 C  
ENDROOT
BRANCH   2   3
HETATM    3  N   UNL     1      -7.162  17.952  68.023  1.00  0.00    -0.214 N  
BRANCH   3   4
HETATM    4  C   UNL     1      -6.131  18.893  68.475  1.00  0.00    -0.215 C  
HETATM    5  C   UNL     1      -5.411  18.470  69.742  1.00  0.00    -0.212 C  
ENDBRANCH   3   4
BRANCH   3   6
HETATM    6  C   UNL     1      -7.975  18.148  66.908  1.00  0.00    -0.232 C  
HETATM    7  O   UNL     1      -7.507  18.316  65.783  1.00  0.00    -0.497 OA 
BRANCH   6   8
HETATM    8  N   UNL     1      -9.333  18.096  67.165  1.00  0.00    -0.259 N  
HETATM    9  H   UNL     1      -9.832  18.963  67.364  1.00  0.00     0.000 HD 
BRANCH   8  10
HETATM   10  C   UNL     1     -10.047  16.884  67.160  1.00  0.00    -0.287 A  
HETATM   11  C   UNL     1      -9.978  15.990  66.094  1.00  0.00    -0.347 A  
HETATM   12  C   UNL     1     -10.650  14.767  66.155  1.00  0.00    -0.314 A  
HETATM   13  C   UNL     1     -11.384  14.402  67.292  1.00  0.00    -0.342 A  
HETATM   14  C   UNL     1     -10.833  16.565  68.267  1.00  0.00    -0.352 A  
HETATM   15  C   UNL     1     -11.480  15.319  68.354  1.00  0.00    -0.358 A  
BRANCH  13  16
HETATM   16  O   UNL     1     -11.974  13.176  67.445  1.00  0.00    -0.365 OA 
BRANCH  16  17
HETATM   17  C   UNL     1     -11.693  12.177  66.451  1.00  0.00    -0.324 C  
BRANCH  17  18
HETATM   18  C   UNL     1     -10.794  11.097  67.066  1.00  0.00    -0.284 C  
HETATM   19  H   UNL     1      -8.868  10.853  67.366  1.00  0.00     0.000 HD 
HETATM   20  O   UNL     1      -9.425  11.522  66.985  1.00  0.00    -0.179 OA 
BRANCH  18  21
HETATM   21  C   UNL     1     -11.121  10.788  68.540  1.00  0.00    -0.262 C  
BRANCH  21  22
HETATM   22  N   UNL     1     -11.333   9.360  68.806  1.00  0.00    -0.415 NA 
HETATM   23  C   UNL     1     -10.759   8.867  70.076  1.00  0.00    -0.228 C  
HETATM   24  H   UNL     1     -10.989   8.801  68.025  1.00  0.00     0.000 HD 
HETATM   25  C   UNL     1     -11.011   7.347  70.122  1.00  0.00    -0.272 C  
HETATM   26  C   UNL     1     -11.453   9.498  71.296  1.00  0.00    -0.447 C  
HETATM   27  C   UNL     1      -9.243   9.108  70.149  1.00  0.00    -0.231 C  
ENDBRANCH  21  22
ENDBRANCH  18  21
ENDBRANCH  17  18
ENDBRANCH  16  17
ENDBRANCH  13  16
BRANCH  15  28
HETATM   28  C   UNL     1     -12.158  15.063  69.662  1.00  0.00    -0.300 C  
HETATM   29  O   UNL     1     -12.892  15.931  70.137  1.00  0.00    -0.285 OA 
HETATM   30  C   UNL     1     -12.001  13.747  70.375  1.00  0.00    -0.385 C  
ENDBRANCH  15  28
ENDBRANCH   8  10
ENDBRANCH   6   8
ENDBRANCH   3   6
ENDBRANCH   2   3
TORSDOF 11
ENDMDL
MODEL      130
REMARK 921   NORMALIZED FREE ENERGY PREDICTED BY IDOCK:   -4.67 KCAL/MOL
REMARK 922        TOTAL FREE ENERGY PREDICTED BY IDOCK:   -8.81 KCAL/MOL
REMARK 923 INTER-LIGAND FREE ENERGY PREDICTED BY IDOCK:   -7.50 KCAL/MOL
REMARK 924 INTRA-LIGAND FREE ENERGY PREDICTED BY IDOCK:   -1.31 KCAL/MOL
REMARK 927      BINDING AFFINITY PREDICTED BY RF-SCORE:    0.00 PKD
ROOT
HETATM    1  C   UNL     1     -11.906   6.952  71.342  1.00  0.00    -0.373 C  
HETATM    2  C   UNL     1     -10.958   6.643  70.191  1.00  0.00    -0.305 C  
ENDROOT
BRANCH   2   3
HETATM    3  N   UNL     1      -9.994   7.717  69.933  1.00  0.00    -0.188 N  
BRANCH   3   4
HETATM    4  C   UNL     1      -9.981   8.862  70.850  1.00  0.00    -0.242 C  
HETATM    5  C   UNL     1      -8.908   8.792  71.921  1.00  0.00    -0.224 C  
ENDBRANCH   3   4
BRANCH   3   6
HETATM    6  C   UNL     1      -9.025   7.475  68.959  1.00  0.00    -0.131 C  
HETATM    7  O   UNL     1      -7.842   7.300  69.249  1.00  0.00    -0.112 OA 
BRANCH   6   8
HETATM    8  N   UNL     1      -9.508   7.407  67.665  1.00  0.00    -0.135 N  
HETATM    9  H   UNL     1      -9.710   6.493  67.260  1.00  0.00     0.000 HD 
BRANCH   8  10
HETATM   10  C   UNL     1      -9.730   8.561  66.892  1.00  0.00    -0.221 A  
HETATM   11  C   UNL     1     -10.633   9.548  67.279  1.00  0.00    -0.317 A  
HETATM   12  C   UNL     1     -10.776  10.710  66.516  1.00  0.00    -0.218 A  
HETATM   13  C   UNL     1     -10.004  10.919  65.366  1.00  0.00    -0.263 A  
HETATM   14  C   UNL     1      -9.008   8.723  65.710  1.00  0.00    -0.253 A  
HETATM   15  C   UNL     1      -9.117   9.907  64.958  1.00  0.00    -0.264 A  
BRANCH  13  16
HETATM   16  O   UNL     1     -10.031  12.081  64.643  1.00  0.00    -0.257 OA 
BRANCH  16  17
HETATM   17  C   UNL     1     -11.034  12.202  63.621  1.00  0.00    -0.461 C  
BRANCH  17  18
HETATM   18  C   UNL     1     -12.059  13.261  64.048  1.00  0.00    -0.447 C  
HETATM   19  H   UNL     1     -13.882  13.259  64.781  1.00  0.00     0.000 HD 
HETATM   20  O   UNL     1     -13.247  12.603  64.516  1.00  0.00    -0.783 OA 
BRANCH  18  21
HETATM   21  C   UNL     1     -11.551  14.198  65.161  1.00  0.00    -0.344 C  
BRANCH  21  22
HETATM   22  N   UNL     1     -11.903  13.747  66.513  1.00  0.00    -0.383 NA 
HETATM   23  C   UNL     1     -11.096  14.339  67.601  1.00  0.00    -0.292 C  
HETATM   24  H   UNL     1     -11.868  12.728  66.564  1.00  0.00     0.000 HD 
HETATM   25  C   UNL     1     -11.559  13.676  68.913  1.00  0.00    -0.362 C  
HETATM   26  C   UNL     1     -11.337  15.854  67.727  1.00  0.00    -0.199 C  
HETATM   27  C   UNL     1      -9.596  14.056  67.419  1.00  0.00    -0.227 C  
ENDBRANCH  21  22
ENDBRANCH  18  21
ENDBRANCH  17  18
ENDBRANCH  16  17
ENDBRANCH  13  16
BRANCH  15  28
HETATM   28  C   UNL     1      -8.171   9.996  63.803  1.00  0.00    -0.161 C  
HETATM   29  O   UNL     1      -6.975  10.200  64.022  1.00  0.00    -0.130 OA 
HETATM   30  C   UNL     1      -8.646   9.787  62.390  1.00  0.00    -0.204 C  
ENDBRANCH  15  28
ENDBRANCH   8  10
ENDBRANCH   6   8
ENDBRANCH   3   6
ENDBRANCH   2   3
TORSDOF 11
ENDMDL
MODEL      131
REMARK 921   NORMALIZED FREE ENERGY PREDICTED BY IDOCK:   -4.65 KCAL/MOL
REMARK 922        TOTAL FREE ENERGY PREDICTED BY IDOCK:   -8.78 KCAL/MOL
REMARK 923 INTER-LIGAND FREE ENERGY PREDICTED BY IDOCK:   -7.78 KCAL/MOL
REMARK 924 INTRA-LIGAND FREE ENERGY PREDICTED BY IDOCK:   -1.00 KCAL/MOL
REMARK 927      BINDING AFFINITY PREDICTED BY RF-SCORE:    0.00 PKD
ROOT
HETATM    1  C   UNL     1      -7.376  16.954  68.048  1.00  0.00    -0.175 C  
HETATM    2  C   UNL     1      -8.293  18.120  68.391  1.00  0.00    -0.299 C  
ENDROOT
BRANCH   2   3
HETATM    3  N   UNL     1      -9.674  17.920  67.938  1.00  0.00    -0.279 N  
BRANCH   3   4
HETATM    4  C   UNL     1     -10.041  18.423  66.610  1.00  0.00    -0.380 C  
HETATM    5  C   UNL     1      -9.716  19.889  66.386  1.00  0.00    -0.558 C  
ENDBRANCH   3   4
BRANCH   3   6
HETATM    6  C   UNL     1     -10.478  17.087  68.717  1.00  0.00    -0.347 C  
HETATM    7  O   UNL     1     -10.382  17.052  69.943  1.00  0.00    -0.063 OA 
BRANCH   6   8
HETATM    8  N   UNL     1     -11.405  16.348  68.006  1.00  0.00    -0.235 N  
HETATM    9  H   UNL     1     -12.234  16.815  67.640  1.00  0.00     0.000 HD 
BRANCH   8  10
HETATM   10  C   UNL     1     -11.239  14.971  67.772  1.00  0.00    -0.321 A  
HETATM   11  C   UNL     1     -10.830  14.095  68.776  1.00  0.00    -0.271 A  
HETATM   12  C   UNL     1     -10.740  12.724  68.522  1.00  0.00    -0.275 A  
HETATM   13  C   UNL     1     -11.080  12.199  67.268  1.00  0.00    -0.287 A  
HETATM   14  C   UNL     1     -11.510  14.469  66.500  1.00  0.00    -0.366 A  
HETATM   15  C   UNL     1     -11.460  13.087  66.246  1.00  0.00    -0.379 A  
BRANCH  13  16
HETATM   16  O   UNL     1     -11.108  10.856  66.998  1.00  0.00    -0.272 OA 
BRANCH  16  17
HETATM   17  C   UNL     1      -9.920  10.267  66.443  1.00  0.00    -0.229 C  
BRANCH  17  18
HETATM   18  C   UNL     1      -9.462   9.117  67.349  1.00  0.00    -0.143 C  
HETATM   19  H   UNL     1     -10.267   8.010  68.757  1.00  0.00     0.000 HD 
HETATM   20  O   UNL     1     -10.551   8.722  68.196  1.00  0.00    -0.212 OA 
BRANCH  18  21
HETATM   21  C   UNL     1      -8.975   7.878  66.573  1.00  0.00    -0.161 C  
BRANCH  21  22
HETATM   22  N   UNL     1      -9.070   8.025  65.116  1.00  0.00    -0.361 NA 
HETATM   23  C   UNL     1      -7.857   7.635  64.366  1.00  0.00    -0.137 C  
HETATM   24  H   UNL     1      -9.341   8.979  64.875  1.00  0.00     0.000 HD 
HETATM   25  C   UNL     1      -8.129   7.946  62.881  1.00  0.00    -0.119 C  
HETATM   26  C   UNL     1      -7.571   6.129  64.489  1.00  0.00    -0.094 C  
HETATM   27  C   UNL     1      -6.627   8.444  64.810  1.00  0.00    -0.068 C  
ENDBRANCH  21  22
ENDBRANCH  18  21
ENDBRANCH  17  18
ENDBRANCH  16  17
ENDBRANCH  13  16
BRANCH  15  28
HETATM   28  C   UNL     1     -11.922  12.691  64.880  1.00  0.00    -0.406 C  
HETATM   29  O   UNL     1     -13.131  12.591  64.662  1.00  0.00    -0.845 OA 
HETATM   30  C   UNL     1     -10.940  12.468  63.761  1.00  0.00    -0.496 C  
ENDBRANCH  15  28
ENDBRANCH   8  10
ENDBRANCH   6   8
ENDBRANCH   3   6
ENDBRANCH   2   3
TORSDOF 11
ENDMDL
MODEL      132
REMARK 921   NORMALIZED FREE ENERGY PREDICTED BY IDOCK:   -4.64 KCAL/MOL
REMARK 922        TOTAL FREE ENERGY PREDICTED BY IDOCK:   -8.76 KCAL/MOL
REMARK 923 INTER-LIGAND FREE ENERGY PREDICTED BY IDOCK:   -7.64 KCAL/MOL
REMARK 924 INTRA-LIGAND FREE ENERGY PREDICTED BY IDOCK:   -1.12 KCAL/MOL
REMARK 927      BINDING AFFINITY PREDICTED BY RF-SCORE:    0.00 PKD
ROOT
HETATM    1  C   UNL     1      -7.285   4.494  65.809  1.00  0.00    -0.075 C  
HETATM    2  C   UNL     1      -7.928   5.837  65.494  1.00  0.00    -0.115 C  
ENDROOT
BRANCH   2   3
HETATM    3  N   UNL     1      -7.663   6.857  66.514  1.00  0.00    -0.099 N  
BRANCH   3   4
HETATM    4  C   UNL     1      -6.429   7.641  66.395  1.00  0.00    -0.049 C  
HETATM    5  C   UNL     1      -6.146   8.152  64.995  1.00  0.00    -0.045 C  
ENDBRANCH   3   4
BRANCH   3   6
HETATM    6  C   UNL     1      -8.699   7.146  67.402  1.00  0.00    -0.120 C  
HETATM    7  O   UNL     1      -8.569   7.012  68.618  1.00  0.00    -0.121 OA 
BRANCH   6   8
HETATM    8  N   UNL     1      -9.852   7.627  66.810  1.00  0.00    -0.225 N  
HETATM    9  H   UNL     1     -10.596   6.972  66.572  1.00  0.00     0.000 HD 
BRANCH   8  10
HETATM   10  C   UNL     1     -10.029   8.993  66.525  1.00  0.00    -0.285 A  
HETATM   11  C   UNL     1      -9.635   9.552  65.311  1.00  0.00    -0.314 A  
HETATM   12  C   UNL     1      -9.888  10.900  65.041  1.00  0.00    -0.336 A  
HETATM   13  C   UNL     1     -10.558  11.709  65.968  1.00  0.00    -0.258 A  
HETATM   14  C   UNL     1     -10.631   9.806  67.486  1.00  0.00    -0.335 A  
HETATM   15  C   UNL     1     -10.924  11.153  67.207  1.00  0.00    -0.354 A  
BRANCH  13  16
HETATM   16  O   UNL     1     -10.920  13.004  65.712  1.00  0.00    -0.275 OA 
BRANCH  16  17
HETATM   17  C   UNL     1     -11.039  13.400  64.336  1.00  0.00    -0.388 C  
BRANCH  17  18
HETATM   18  C   UNL     1     -12.138  14.463  64.212  1.00  0.00    -0.436 C  
HETATM   19  H   UNL     1     -13.856  14.839  65.088  1.00  0.00     0.000 HD 
HETATM   20  O   UNL     1     -13.175  14.180  65.164  1.00  0.00    -0.743 OA 
BRANCH  18  21
HETATM   21  C   UNL     1     -11.635  15.900  64.454  1.00  0.00    -0.234 C  
BRANCH  21  22
HETATM   22  N   UNL     1     -10.231  15.966  64.877  1.00  0.00    -0.498 NA 
HETATM   23  C   UNL     1      -9.985  16.739  66.113  1.00  0.00    -0.327 C  
HETATM   24  H   UNL     1      -9.651  16.324  64.117  1.00  0.00     0.000 HD 
HETATM   25  C   UNL     1      -8.459  16.760  66.331  1.00  0.00    -0.338 C  
HETATM   26  C   UNL     1     -10.628  16.069  67.340  1.00  0.00    -0.316 C  
HETATM   27  C   UNL     1     -10.475  18.190  65.986  1.00  0.00    -0.346 C  
ENDBRANCH  21  22
ENDBRANCH  18  21
ENDBRANCH  17  18
ENDBRANCH  16  17
ENDBRANCH  13  16
BRANCH  15  28
HETATM   28  C   UNL     1     -11.705  11.850  68.274  1.00  0.00    -0.321 C  
HETATM   29  O   UNL     1     -11.946  13.053  68.152  1.00  0.00    -0.343 OA 
HETATM   30  C   UNL     1     -12.245  11.098  69.461  1.00  0.00    -0.347 C  
ENDBRANCH  15  28
ENDBRANCH   8  10
ENDBRANCH   6   8
ENDBRANCH   3   6
ENDBRANCH   2   3
TORSDOF 11
ENDMDL
MODEL      133
REMARK 921   NORMALIZED FREE ENERGY PREDICTED BY IDOCK:   -4.64 KCAL/MOL
REMARK 922        TOTAL FREE ENERGY PREDICTED BY IDOCK:   -8.75 KCAL/MOL
REMARK 923 INTER-LIGAND FREE ENERGY PREDICTED BY IDOCK:   -7.97 KCAL/MOL
REMARK 924 INTRA-LIGAND FREE ENERGY PREDICTED BY IDOCK:   -0.78 KCAL/MOL
REMARK 927      BINDING AFFINITY PREDICTED BY RF-SCORE:    0.00 PKD
ROOT
HETATM    1  C   UNL     1     -10.071  20.044  66.566  1.00  0.00    -0.606 C  
HETATM    2  C   UNL     1      -8.856  19.134  66.451  1.00  0.00    -0.338 C  
ENDROOT
BRANCH   2   3
HETATM    3  N   UNL     1      -8.818  18.090  67.480  1.00  0.00    -0.250 N  
BRANCH   3   4
HETATM    4  C   UNL     1      -7.566  17.902  68.222  1.00  0.00    -0.266 C  
HETATM    5  C   UNL     1      -7.156  19.095  69.065  1.00  0.00    -0.377 C  
ENDBRANCH   3   4
BRANCH   3   6
HETATM    6  C   UNL     1     -10.032  17.493  67.817  1.00  0.00    -0.312 C  
HETATM    7  O   UNL     1     -10.554  17.659  68.919  1.00  0.00    -0.301 OA 
BRANCH   6   8
HETATM    8  N   UNL     1     -10.611  16.746  66.808  1.00  0.00    -0.253 N  
HETATM    9  H   UNL     1     -11.094  17.228  66.051  1.00  0.00     0.000 HD 
BRANCH   8  10
HETATM   10  C   UNL     1     -10.554  15.340  66.795  1.00  0.00    -0.304 A  
HETATM   11  C   UNL     1      -9.855  14.621  67.762  1.00  0.00    -0.216 A  
HETATM   12  C   UNL     1      -9.876  13.223  67.753  1.00  0.00    -0.224 A  
HETATM   13  C   UNL     1     -10.614  12.519  66.793  1.00  0.00    -0.233 A  
HETATM   14  C   UNL     1     -11.232  14.651  65.791  1.00  0.00    -0.336 A  
HETATM   15  C   UNL     1     -11.291  13.246  65.797  1.00  0.00    -0.328 A  
BRANCH  13  16
HETATM   16  O   UNL     1     -10.751  11.156  66.801  1.00  0.00    -0.256 OA 
BRANCH  16  17
HETATM   17  C   UNL     1     -10.367  10.459  67.997  1.00  0.00    -0.179 C  
BRANCH  17  18
HETATM   18  C   UNL     1      -9.948   9.029  67.630  1.00  0.00    -0.201 C  
HETATM   19  H   UNL     1      -8.924   8.174  66.189  1.00  0.00     0.000 HD 
HETATM   20  O   UNL     1      -9.183   9.059  66.416  1.00  0.00    -0.162 OA 
BRANCH  18  21
HETATM   21  C   UNL     1      -9.107   8.335  68.719  1.00  0.00    -0.144 C  
BRANCH  21  22
HETATM   22  N   UNL     1      -9.531   8.663  70.085  1.00  0.00    -0.161 NA 
HETATM   23  C   UNL     1      -9.068   7.723  71.128  1.00  0.00    -0.142 C  
HETATM   24  H   UNL     1     -10.546   8.760  70.125  1.00  0.00     0.000 HD 
HETATM   25  C   UNL     1      -9.687   8.190  72.459  1.00  0.00    -0.357 C  
HETATM   26  C   UNL     1      -7.537   7.753  71.282  1.00  0.00    -0.080 C  
HETATM   27  C   UNL     1      -9.542   6.287  70.853  1.00  0.00    -0.192 C  
ENDBRANCH  21  22
ENDBRANCH  18  21
ENDBRANCH  17  18
ENDBRANCH  16  17
ENDBRANCH  13  16
BRANCH  15  28
HETATM   28  C   UNL     1     -12.179  12.658  64.747  1.00  0.00    -0.465 C  
HETATM   29  O   UNL     1     -13.400  12.772  64.862  1.00  0.00    -0.736 OA 
HETATM   30  C   UNL     1     -11.604  11.983  63.531  1.00  0.00    -0.553 C  
ENDBRANCH  15  28
ENDBRANCH   8  10
ENDBRANCH   6   8
ENDBRANCH   3   6
ENDBRANCH   2   3
TORSDOF 11
ENDMDL
MODEL      134
REMARK 921   NORMALIZED FREE ENERGY PREDICTED BY IDOCK:   -4.64 KCAL/MOL
REMARK 922        TOTAL FREE ENERGY PREDICTED BY IDOCK:   -8.75 KCAL/MOL
REMARK 923 INTER-LIGAND FREE ENERGY PREDICTED BY IDOCK:   -7.57 KCAL/MOL
REMARK 924 INTRA-LIGAND FREE ENERGY PREDICTED BY IDOCK:   -1.18 KCAL/MOL
REMARK 927      BINDING AFFINITY PREDICTED BY RF-SCORE:    0.00 PKD
ROOT
HETATM    1  C   UNL     1     -10.744   6.942  68.466  1.00  0.00    -0.252 C  
HETATM    2  C   UNL     1     -11.097   6.125  69.702  1.00  0.00    -0.419 C  
ENDROOT
BRANCH   2   3
HETATM    3  N   UNL     1     -10.905   6.863  70.955  1.00  0.00    -0.237 N  
BRANCH   3   4
HETATM    4  C   UNL     1      -9.682   6.605  71.722  1.00  0.00    -0.161 C  
HETATM    5  C   UNL     1      -9.008   5.285  71.398  1.00  0.00    -0.156 C  
ENDBRANCH   3   4
BRANCH   3   6
HETATM    6  C   UNL     1     -11.798   7.902  71.218  1.00  0.00    -0.296 C  
HETATM    7  O   UNL     1     -13.012   7.714  71.284  1.00  0.00    -0.313 OA 
BRANCH   6   8
HETATM    8  N   UNL     1     -11.206   9.132  71.436  1.00  0.00    -0.320 N  
HETATM    9  H   UNL     1     -10.909   9.377  72.380  1.00  0.00     0.000 HD 
BRANCH   8  10
HETATM   10  C   UNL     1     -11.003  10.056  70.395  1.00  0.00    -0.320 A  
HETATM   11  C   UNL     1     -12.009  10.919  69.966  1.00  0.00    -0.429 A  
HETATM   12  C   UNL     1     -11.748  11.868  68.974  1.00  0.00    -0.391 A  
HETATM   13  C   UNL     1     -10.472  11.988  68.408  1.00  0.00    -0.219 A  
HETATM   14  C   UNL     1      -9.749  10.117  69.789  1.00  0.00    -0.232 A  
HETATM   15  C   UNL     1      -9.466  11.094  68.817  1.00  0.00    -0.173 A  
BRANCH  13  16
HETATM   16  O   UNL     1     -10.137  12.965  67.509  1.00  0.00    -0.210 OA 
BRANCH  16  17
HETATM   17  C   UNL     1     -10.797  14.236  67.635  1.00  0.00    -0.268 C  
BRANCH  17  18
HETATM   18  C   UNL     1      -9.888  15.331  67.062  1.00  0.00    -0.229 C  
HETATM   19  H   UNL     1      -9.502  16.070  65.283  1.00  0.00     0.000 HD 
HETATM   20  O   UNL     1     -10.065  15.392  65.638  1.00  0.00    -0.324 OA 
BRANCH  18  21
HETATM   21  C   UNL     1     -10.165  16.730  67.647  1.00  0.00    -0.289 C  
BRANCH  21  22
HETATM   22  N   UNL     1      -9.131  17.718  67.316  1.00  0.00    -0.243 NA 
HETATM   23  C   UNL     1      -9.631  19.084  67.049  1.00  0.00    -0.318 C  
HETATM   24  H   UNL     1      -8.569  17.390  66.530  1.00  0.00     0.000 HD 
HETATM   25  C   UNL     1      -8.414  19.935  66.640  1.00  0.00    -0.381 C  
HETATM   26  C   UNL     1     -10.250  19.718  68.307  1.00  0.00    -0.569 C  
HETATM   27  C   UNL     1     -10.646  19.104  65.894  1.00  0.00    -0.495 C  
ENDBRANCH  21  22
ENDBRANCH  18  21
ENDBRANCH  17  18
ENDBRANCH  16  17
ENDBRANCH  13  16
BRANCH  15  28
HETATM   28  C   UNL     1      -8.040  11.130  68.372  1.00  0.00    -0.141 C  
HETATM   29  O   UNL     1      -7.753  10.723  67.245  1.00  0.00    -0.104 OA 
HETATM   30  C   UNL     1      -6.964  11.706  69.253  1.00  0.00    -0.083 C  
ENDBRANCH  15  28
ENDBRANCH   8  10
ENDBRANCH   6   8
ENDBRANCH   3   6
ENDBRANCH   2   3
TORSDOF 11
ENDMDL
MODEL      135
REMARK 921   NORMALIZED FREE ENERGY PREDICTED BY IDOCK:   -4.61 KCAL/MOL
REMARK 922        TOTAL FREE ENERGY PREDICTED BY IDOCK:   -8.71 KCAL/MOL
REMARK 923 INTER-LIGAND FREE ENERGY PREDICTED BY IDOCK:   -7.60 KCAL/MOL
REMARK 924 INTRA-LIGAND FREE ENERGY PREDICTED BY IDOCK:   -1.10 KCAL/MOL
REMARK 927      BINDING AFFINITY PREDICTED BY RF-SCORE:    0.00 PKD
ROOT
HETATM    1  C   UNL     1     -10.594  18.373  67.074  1.00  0.00    -0.400 C  
HETATM    2  C   UNL     1     -10.112  16.967  66.746  1.00  0.00    -0.300 C  
ENDROOT
BRANCH   2   3
HETATM    3  N   UNL     1     -10.639  15.949  67.660  1.00  0.00    -0.300 N  
BRANCH   3   4
HETATM    4  C   UNL     1     -10.346  16.093  69.090  1.00  0.00    -0.259 C  
HETATM    5  C   UNL     1      -9.037  15.460  69.526  1.00  0.00    -0.231 C  
ENDBRANCH   3   4
BRANCH   3   6
HETATM    6  C   UNL     1     -11.550  15.036  67.129  1.00  0.00    -0.261 C  
HETATM    7  O   UNL     1     -11.703  14.901  65.916  1.00  0.00    -0.296 OA 
BRANCH   6   8
HETATM    8  N   UNL     1     -12.226  14.279  68.068  1.00  0.00    -0.584 N  
HETATM    9  H   UNL     1     -13.117  14.618  68.429  1.00  0.00     0.000 HD 
BRANCH   8  10
HETATM   10  C   UNL     1     -11.720  13.054  68.542  1.00  0.00    -0.342 A  
HETATM   11  C   UNL     1     -10.551  12.492  68.035  1.00  0.00    -0.237 A  
HETATM   12  C   UNL     1     -10.045  11.308  68.577  1.00  0.00    -0.210 A  
HETATM   13  C   UNL     1     -10.685  10.674  69.651  1.00  0.00    -0.244 A  
HETATM   14  C   UNL     1     -12.406  12.395  69.562  1.00  0.00     0.001 A  
HETATM   15  C   UNL     1     -11.884  11.224  70.139  1.00  0.00    -0.449 A  
BRANCH  13  16
HETATM   16  O   UNL     1     -10.178   9.571  70.284  1.00  0.00    -0.224 OA 
BRANCH  16  17
HETATM   17  C   UNL     1      -9.307   8.715  69.527  1.00  0.00    -0.153 C  
BRANCH  17  18
HETATM   18  C   UNL     1      -8.124   8.296  70.410  1.00  0.00    -0.108 C  
HETATM   19  H   UNL     1      -7.167   9.047  71.953  1.00  0.00     0.000 HD 
HETATM   20  O   UNL     1      -7.900   9.306  71.405  1.00  0.00    -0.335 OA 
BRANCH  18  21
HETATM   21  C   UNL     1      -8.336   6.947  71.124  1.00  0.00    -0.119 C  
BRANCH  21  22
HETATM   22  N   UNL     1      -9.627   6.846  71.814  1.00  0.00    -0.160 NA 
HETATM   23  C   UNL     1     -10.401   5.621  71.521  1.00  0.00    -0.222 C  
HETATM   24  H   UNL     1     -10.193   7.673  71.625  1.00  0.00     0.000 HD 
HETATM   25  C   UNL     1     -11.744   5.750  72.265  1.00  0.00    -0.265 C  
HETATM   26  C   UNL     1      -9.690   4.360  72.044  1.00  0.00    -0.227 C  
HETATM   27  C   UNL     1     -10.693   5.477  70.018  1.00  0.00    -0.356 C  
ENDBRANCH  21  22
ENDBRANCH  18  21
ENDBRANCH  17  18
ENDBRANCH  16  17
ENDBRANCH  13  16
BRANCH  15  28
HETATM   28  C   UNL     1     -12.651  10.720  71.319  1.00  0.00    -0.426 C  
HETATM   29  O   UNL     1     -13.052  11.525  72.162  1.00  0.00    -0.466 OA 
HETATM   30  C   UNL     1     -12.987   9.260  71.462  1.00  0.00    -0.429 C  
ENDBRANCH  15  28
ENDBRANCH   8  10
ENDBRANCH   6   8
ENDBRANCH   3   6
ENDBRANCH   2   3
TORSDOF 11
ENDMDL
MODEL      136
REMARK 921   NORMALIZED FREE ENERGY PREDICTED BY IDOCK:   -4.59 KCAL/MOL
REMARK 922        TOTAL FREE ENERGY PREDICTED BY IDOCK:   -8.68 KCAL/MOL
REMARK 923 INTER-LIGAND FREE ENERGY PREDICTED BY IDOCK:   -7.00 KCAL/MOL
REMARK 924 INTRA-LIGAND FREE ENERGY PREDICTED BY IDOCK:   -1.67 KCAL/MOL
REMARK 927      BINDING AFFINITY PREDICTED BY RF-SCORE:    0.00 PKD
ROOT
HETATM    1  C   UNL     1     -11.099  16.207  64.710  1.00  0.00    -0.345 C  
HETATM    2  C   UNL     1     -10.489  14.817  64.831  1.00  0.00    -0.369 C  
ENDROOT
BRANCH   2   3
HETATM    3  N   UNL     1     -11.494  13.751  64.907  1.00  0.00    -0.330 N  
BRANCH   3   4
HETATM    4  C   UNL     1     -12.447  13.785  66.022  1.00  0.00    -0.445 C  
HETATM    5  C   UNL     1     -11.812  13.626  67.391  1.00  0.00    -0.429 C  
ENDBRANCH   3   4
BRANCH   3   6
HETATM    6  C   UNL     1     -11.598  12.904  63.805  1.00  0.00    -0.475 C  
HETATM    7  O   UNL     1     -12.678  12.673  63.262  1.00  0.00    -0.669 OA 
BRANCH   6   8
HETATM    8  N   UNL     1     -10.397  12.387  63.355  1.00  0.00    -0.398 N  
HETATM    9  H   UNL     1      -9.879  12.893  62.638  1.00  0.00     0.000 HD 
BRANCH   8  10
HETATM   10  C   UNL     1      -9.869  11.184  63.858  1.00  0.00    -0.308 A  
HETATM   11  C   UNL     1      -8.837  10.504  63.214  1.00  0.00    -0.212 A  
HETATM   12  C   UNL     1      -8.296   9.347  63.780  1.00  0.00    -0.183 A  
HETATM   13  C   UNL     1      -8.758   8.860  65.010  1.00  0.00    -0.166 A  
HETATM   14  C   UNL     1     -10.388  10.669  65.045  1.00  0.00    -0.341 A  
HETATM   15  C   UNL     1      -9.823   9.527  65.641  1.00  0.00    -0.343 A  
BRANCH  13  16
HETATM   16  O   UNL     1      -8.194   7.792  65.656  1.00  0.00    -0.120 OA 
BRANCH  16  17
HETATM   17  C   UNL     1      -6.776   7.828  65.882  1.00  0.00    -0.046 C  
BRANCH  17  18
HETATM   18  C   UNL     1      -6.471   7.211  67.254  1.00  0.00    -0.057 C  
HETATM   19  H   UNL     1      -4.971   7.236  68.521  1.00  0.00     0.000 HD 
HETATM   20  O   UNL     1      -5.160   7.618  67.672  1.00  0.00    -0.027 OA 
BRANCH  18  21
HETATM   21  C   UNL     1      -7.479   7.613  68.348  1.00  0.00    -0.104 C  
BRANCH  21  22
HETATM   22  N   UNL     1      -8.650   6.731  68.419  1.00  0.00    -0.125 NA 
HETATM   23  C   UNL     1      -8.996   6.254  69.775  1.00  0.00    -0.140 C  
HETATM   24  H   UNL     1      -8.533   5.939  67.786  1.00  0.00     0.000 HD 
HETATM   25  C   UNL     1     -10.184   5.285  69.619  1.00  0.00    -0.348 C  
HETATM   26  C   UNL     1      -9.444   7.409  70.687  1.00  0.00    -0.164 C  
HETATM   27  C   UNL     1      -7.831   5.490  70.424  1.00  0.00    -0.101 C  
ENDBRANCH  21  22
ENDBRANCH  18  21
ENDBRANCH  17  18
ENDBRANCH  16  17
ENDBRANCH  13  16
BRANCH  15  28
HETATM   28  C   UNL     1     -10.386   9.186  66.984  1.00  0.00    -0.263 C  
HETATM   29  O   UNL     1     -10.876   8.070  67.163  1.00  0.00    -0.278 OA 
HETATM   30  C   UNL     1     -10.312  10.161  68.129  1.00  0.00    -0.217 C  
ENDBRANCH  15  28
ENDBRANCH   8  10
ENDBRANCH   6   8
ENDBRANCH   3   6
ENDBRANCH   2   3
TORSDOF 11
ENDMDL
MODEL      137
REMARK 921   NORMALIZED FREE ENERGY PREDICTED BY IDOCK:   -4.58 KCAL/MOL
REMARK 922        TOTAL FREE ENERGY PREDICTED BY IDOCK:   -8.65 KCAL/MOL
REMARK 923 INTER-LIGAND FREE ENERGY PREDICTED BY IDOCK:   -7.02 KCAL/MOL
REMARK 924 INTRA-LIGAND FREE ENERGY PREDICTED BY IDOCK:   -1.64 KCAL/MOL
REMARK 927      BINDING AFFINITY PREDICTED BY RF-SCORE:    0.00 PKD
ROOT
HETATM    1  C   UNL     1      -9.252  10.820  63.556  1.00  0.00    -0.275 C  
HETATM    2  C   UNL     1     -10.275  10.942  64.676  1.00  0.00    -0.345 C  
ENDROOT
BRANCH   2   3
HETATM    3  N   UNL     1     -10.710  12.323  64.913  1.00  0.00    -0.285 N  
BRANCH   3   4
HETATM    4  C   UNL     1     -11.620  12.932  63.936  1.00  0.00    -0.453 C  
HETATM    5  C   UNL     1     -12.631  11.971  63.340  1.00  0.00    -0.592 C  
ENDBRANCH   3   4
BRANCH   3   6
HETATM    6  C   UNL     1     -10.393  12.881  66.151  1.00  0.00    -0.276 C  
HETATM    7  O   UNL     1      -9.547  13.767  66.267  1.00  0.00    -0.281 OA 
BRANCH   6   8
HETATM    8  N   UNL     1     -11.128  12.389  67.214  1.00  0.00    -0.266 N  
HETATM    9  H   UNL     1     -12.097  12.687  67.324  1.00  0.00     0.000 HD 
BRANCH   8  10
HETATM   10  C   UNL     1     -10.581  11.490  68.147  1.00  0.00    -0.196 A  
HETATM   11  C   UNL     1      -9.207  11.285  68.256  1.00  0.00    -0.176 A  
HETATM   12  C   UNL     1      -8.698  10.433  69.239  1.00  0.00    -0.160 A  
HETATM   13  C   UNL     1      -9.549   9.789  70.148  1.00  0.00    -0.237 A  
HETATM   14  C   UNL     1     -11.443  10.799  68.997  1.00  0.00    -0.368 A  
HETATM   15  C   UNL     1     -10.937   9.971  70.015  1.00  0.00    -0.352 A  
BRANCH  13  16
HETATM   16  O   UNL     1      -9.096   9.027  71.192  1.00  0.00    -0.226 OA 
BRANCH  16  17
HETATM   17  C   UNL     1      -7.813   8.397  71.045  1.00  0.00    -0.100 C  
BRANCH  17  18
HETATM   18  C   UNL     1      -7.992   6.875  71.111  1.00  0.00    -0.101 C  
HETATM   19  H   UNL     1      -9.298   5.630  71.887  1.00  0.00     0.000 HD 
HETATM   20  O   UNL     1      -9.187   6.573  71.846  1.00  0.00    -0.149 OA 
BRANCH  18  21
HETATM   21  C   UNL     1      -8.090   6.205  69.726  1.00  0.00    -0.119 C  
BRANCH  21  22
HETATM   22  N   UNL     1      -8.339   7.153  68.633  1.00  0.00    -0.125 NA 
HETATM   23  C   UNL     1      -9.353   6.721  67.648  1.00  0.00    -0.120 C  
HETATM   24  H   UNL     1      -7.464   7.382  68.160  1.00  0.00     0.000 HD 
HETATM   25  C   UNL     1      -9.399   7.802  66.550  1.00  0.00    -0.243 C  
HETATM   26  C   UNL     1     -10.754   6.627  68.278  1.00  0.00    -0.317 C  
HETATM   27  C   UNL     1      -8.978   5.382  66.992  1.00  0.00    -0.112 C  
ENDBRANCH  21  22
ENDBRANCH  18  21
ENDBRANCH  17  18
ENDBRANCH  16  17
ENDBRANCH  13  16
BRANCH  15  28
HETATM   28  C   UNL     1     -11.976   9.420  70.938  1.00  0.00    -0.280 C  
HETATM   29  O   UNL     1     -12.009   8.206  71.148  1.00  0.00    -0.292 OA 
HETATM   30  C   UNL     1     -12.940  10.327  71.655  1.00  0.00    -0.570 C  
ENDBRANCH  15  28
ENDBRANCH   8  10
ENDBRANCH   6   8
ENDBRANCH   3   6
ENDBRANCH   2   3
TORSDOF 11
ENDMDL
MODEL      138
REMARK 921   NORMALIZED FREE ENERGY PREDICTED BY IDOCK:   -4.57 KCAL/MOL
REMARK 922        TOTAL FREE ENERGY PREDICTED BY IDOCK:   -8.64 KCAL/MOL
REMARK 923 INTER-LIGAND FREE ENERGY PREDICTED BY IDOCK:   -7.41 KCAL/MOL
REMARK 924 INTRA-LIGAND FREE ENERGY PREDICTED BY IDOCK:   -1.23 KCAL/MOL
REMARK 927      BINDING AFFINITY PREDICTED BY RF-SCORE:    0.00 PKD
ROOT
HETATM    1  C   UNL     1      -6.816   4.707  67.459  1.00  0.00    -0.059 C  
HETATM    2  C   UNL     1      -8.306   4.528  67.205  1.00  0.00    -0.105 C  
ENDROOT
BRANCH   2   3
HETATM    3  N   UNL     1      -9.131   5.537  67.877  1.00  0.00    -0.108 N  
BRANCH   3   4
HETATM    4  C   UNL     1      -8.936   5.734  69.318  1.00  0.00    -0.119 C  
HETATM    5  C   UNL     1     -10.178   5.492  70.155  1.00  0.00    -0.333 C  
ENDBRANCH   3   4
BRANCH   3   6
HETATM    6  C   UNL     1      -9.891   6.375  67.062  1.00  0.00    -0.154 C  
HETATM    7  O   UNL     1     -10.997   6.041  66.638  1.00  0.00    -0.293 OA 
BRANCH   6   8
HETATM    8  N   UNL     1      -9.322   7.610  66.809  1.00  0.00    -0.163 N  
HETATM    9  H   UNL     1      -8.448   7.653  66.285  1.00  0.00     0.000 HD 
BRANCH   8  10
HETATM   10  C   UNL     1      -9.911   8.807  67.253  1.00  0.00    -0.220 A  
HETATM   11  C   UNL     1     -10.133   9.883  66.397  1.00  0.00    -0.308 A  
HETATM   12  C   UNL     1     -10.781  11.031  66.861  1.00  0.00    -0.325 A  
HETATM   13  C   UNL     1     -11.240  11.117  68.182  1.00  0.00    -0.292 A  
HETATM   14  C   UNL     1     -10.298   8.908  68.589  1.00  0.00    -0.228 A  
HETATM   15  C   UNL     1     -10.985  10.043  69.055  1.00  0.00    -0.249 A  
BRANCH  13  16
HETATM   16  O   UNL     1     -11.969  12.174  68.658  1.00  0.00    -0.318 OA 
BRANCH  16  17
HETATM   17  C   UNL     1     -11.243  13.293  69.191  1.00  0.00    -0.251 C  
BRANCH  17  18
HETATM   18  C   UNL     1     -12.016  14.583  68.888  1.00  0.00    -0.290 C  
HETATM   19  H   UNL     1     -12.495  16.216  69.869  1.00  0.00     0.000 HD 
HETATM   20  O   UNL     1     -12.016  15.417  70.057  1.00  0.00    -0.311 OA 
BRANCH  18  21
HETATM   21  C   UNL     1     -11.432  15.390  67.713  1.00  0.00    -0.278 C  
BRANCH  21  22
HETATM   22  N   UNL     1     -10.663  14.574  66.766  1.00  0.00    -0.287 NA 
HETATM   23  C   UNL     1     -11.219  14.512  65.397  1.00  0.00    -0.342 C  
HETATM   24  H   UNL     1     -10.535  13.632  67.136  1.00  0.00     0.000 HD 
HETATM   25  C   UNL     1     -10.326  13.546  64.595  1.00  0.00    -0.406 C  
HETATM   26  C   UNL     1     -11.175  15.884  64.703  1.00  0.00    -0.361 C  
HETATM   27  C   UNL     1     -12.655  13.961  65.389  1.00  0.00    -0.538 C  
ENDBRANCH  21  22
ENDBRANCH  18  21
ENDBRANCH  17  18
ENDBRANCH  16  17
ENDBRANCH  13  16
BRANCH  15  28
HETATM   28  C   UNL     1     -11.466   9.941  70.467  1.00  0.00    -0.318 C  
HETATM   29  O   UNL     1     -12.561  10.420  70.764  1.00  0.00    -0.327 OA 
HETATM   30  C   UNL     1     -10.661   9.215  71.512  1.00  0.00    -0.428 C  
ENDBRANCH  15  28
ENDBRANCH   8  10
ENDBRANCH   6   8
ENDBRANCH   3   6
ENDBRANCH   2   3
TORSDOF 11
ENDMDL
MODEL      139
REMARK 921   NORMALIZED FREE ENERGY PREDICTED BY IDOCK:   -4.56 KCAL/MOL
REMARK 922        TOTAL FREE ENERGY PREDICTED BY IDOCK:   -8.63 KCAL/MOL
REMARK 923 INTER-LIGAND FREE ENERGY PREDICTED BY IDOCK:   -7.20 KCAL/MOL
REMARK 924 INTRA-LIGAND FREE ENERGY PREDICTED BY IDOCK:   -1.43 KCAL/MOL
REMARK 927      BINDING AFFINITY PREDICTED BY RF-SCORE:    0.00 PKD
ROOT
HETATM    1  C   UNL     1     -10.153  20.050  66.274  1.00  0.00    -0.603 C  
HETATM    2  C   UNL     1      -8.905  19.181  66.213  1.00  0.00    -0.299 C  
ENDROOT
BRANCH   2   3
HETATM    3  N   UNL     1      -8.914  18.089  67.193  1.00  0.00    -0.251 N  
BRANCH   3   4
HETATM    4  C   UNL     1      -7.753  17.954  68.079  1.00  0.00    -0.245 C  
HETATM    5  C   UNL     1      -7.289  19.257  68.704  1.00  0.00    -0.373 C  
ENDBRANCH   3   4
BRANCH   3   6
HETATM    6  C   UNL     1     -10.111  17.390  67.347  1.00  0.00    -0.321 C  
HETATM    7  O   UNL     1     -10.814  17.519  68.348  1.00  0.00    -0.314 OA 
BRANCH   6   8
HETATM    8  N   UNL     1     -10.453  16.585  66.276  1.00  0.00    -0.303 N  
HETATM    9  H   UNL     1     -10.826  17.017  65.432  1.00  0.00     0.000 HD 
BRANCH   8  10
HETATM   10  C   UNL     1     -10.303  15.187  66.318  1.00  0.00    -0.294 A  
HETATM   11  C   UNL     1     -10.000  14.511  67.498  1.00  0.00    -0.224 A  
HETATM   12  C   UNL     1      -9.923  13.116  67.511  1.00  0.00    -0.223 A  
HETATM   13  C   UNL     1     -10.170  12.368  66.352  1.00  0.00    -0.234 A  
HETATM   14  C   UNL     1     -10.479  14.459  65.141  1.00  0.00    -0.437 A  
HETATM   15  C   UNL     1     -10.442  13.053  65.154  1.00  0.00    -0.335 A  
BRANCH  13  16
HETATM   16  O   UNL     1     -10.209  10.999  66.334  1.00  0.00    -0.221 OA 
BRANCH  16  17
HETATM   17  C   UNL     1      -9.541  10.304  67.399  1.00  0.00    -0.158 C  
BRANCH  17  18
HETATM   18  C   UNL     1      -9.205   8.880  66.935  1.00  0.00    -0.147 C  
HETATM   19  H   UNL     1      -9.920   7.078  67.251  1.00  0.00     0.000 HD 
HETATM   20  O   UNL     1     -10.127   7.960  67.538  1.00  0.00    -0.178 OA 
BRANCH  18  21
HETATM   21  C   UNL     1      -9.267   8.700  65.406  1.00  0.00    -0.035 C  
BRANCH  21  22
HETATM   22  N   UNL     1      -8.365   9.596  64.673  1.00  0.00    -0.147 NA 
HETATM   23  C   UNL     1      -7.803   9.036  63.425  1.00  0.00    -0.139 C  
HETATM   24  H   UNL     1      -7.614   9.916  65.284  1.00  0.00     0.000 HD 
HETATM   25  C   UNL     1      -6.826  10.088  62.863  1.00  0.00    -0.129 C  
HETATM   26  C   UNL     1      -8.894   8.793  62.368  1.00  0.00    -0.084 C  
HETATM   27  C   UNL     1      -7.020   7.739  63.684  1.00  0.00    -0.068 C  
ENDBRANCH  21  22
ENDBRANCH  18  21
ENDBRANCH  17  18
ENDBRANCH  16  17
ENDBRANCH  13  16
BRANCH  15  28
HETATM   28  C   UNL     1     -10.798  12.413  63.851  1.00  0.00    -0.420 C  
HETATM   29  O   UNL     1      -9.896  12.010  63.114  1.00  0.00    -0.381 OA 
HETATM   30  C   UNL     1     -12.235  12.204  63.453  1.00  0.00    -0.635 C  
ENDBRANCH  15  28
ENDBRANCH   8  10
ENDBRANCH   6   8
ENDBRANCH   3   6
ENDBRANCH   2   3
TORSDOF 11
ENDMDL
MODEL      140
REMARK 921   NORMALIZED FREE ENERGY PREDICTED BY IDOCK:   -4.56 KCAL/MOL
REMARK 922        TOTAL FREE ENERGY PREDICTED BY IDOCK:   -8.63 KCAL/MOL
REMARK 923 INTER-LIGAND FREE ENERGY PREDICTED BY IDOCK:   -7.61 KCAL/MOL
REMARK 924 INTRA-LIGAND FREE ENERGY PREDICTED BY IDOCK:   -1.01 KCAL/MOL
REMARK 927      BINDING AFFINITY PREDICTED BY RF-SCORE:    0.00 PKD
ROOT
HETATM    1  C   UNL     1      -7.552  10.231  68.031  1.00  0.00    -0.088 C  
HETATM    2  C   UNL     1      -7.735   9.029  68.948  1.00  0.00    -0.094 C  
ENDROOT
BRANCH   2   3
HETATM    3  N   UNL     1      -9.027   8.359  68.769  1.00  0.00    -0.140 N  
BRANCH   3   4
HETATM    4  C   UNL     1      -9.150   7.386  67.678  1.00  0.00    -0.125 C  
HETATM    5  C   UNL     1      -9.551   7.990  66.345  1.00  0.00    -0.267 C  
ENDBRANCH   3   4
BRANCH   3   6
HETATM    6  C   UNL     1      -9.976   8.543  69.774  1.00  0.00    -0.191 C  
HETATM    7  O   UNL     1      -9.739   8.273  70.950  1.00  0.00    -0.166 OA 
BRANCH   6   8
HETATM    8  N   UNL     1     -11.175   9.085  69.346  1.00  0.00    -0.439 N  
HETATM    9  H   UNL     1     -11.978   8.470  69.219  1.00  0.00     0.000 HD 
BRANCH   8  10
HETATM   10  C   UNL     1     -11.318  10.459  69.081  1.00  0.00    -0.226 A  
HETATM   11  C   UNL     1     -11.174  10.984  67.799  1.00  0.00    -0.374 A  
HETATM   12  C   UNL     1     -11.389  12.345  67.566  1.00  0.00    -0.375 A  
HETATM   13  C   UNL     1     -11.774  13.203  68.604  1.00  0.00    -0.326 A  
HETATM   14  C   UNL     1     -11.629  11.316  70.137  1.00  0.00    -0.393 A  
HETATM   15  C   UNL     1     -11.886  12.679  69.905  1.00  0.00    -0.364 A  
BRANCH  13  16
HETATM   16  O   UNL     1     -12.096  14.520  68.411  1.00  0.00    -0.302 OA 
BRANCH  16  17
HETATM   17  C   UNL     1     -11.467  15.202  67.314  1.00  0.00    -0.279 C  
BRANCH  17  18
HETATM   18  C   UNL     1     -10.527  16.281  67.868  1.00  0.00    -0.295 C  
HETATM   19  H   UNL     1      -8.637  16.385  68.394  1.00  0.00     0.000 HD 
HETATM   20  O   UNL     1      -9.219  15.717  68.052  1.00  0.00    -0.183 OA 
BRANCH  18  21
HETATM   21  C   UNL     1     -10.401  17.516  66.955  1.00  0.00    -0.315 C  
BRANCH  21  22
HETATM   22  N   UNL     1      -9.115  17.596  66.252  1.00  0.00    -0.442 NA 
HETATM   23  C   UNL     1      -8.340  18.831  66.499  1.00  0.00    -0.297 C  
HETATM   24  H   UNL     1      -9.253  17.462  65.249  1.00  0.00     0.000 HD 
HETATM   25  C   UNL     1      -7.084  18.756  65.610  1.00  0.00    -0.219 C  
HETATM   26  C   UNL     1      -7.879  18.929  67.963  1.00  0.00    -0.305 C  
HETATM   27  C   UNL     1      -9.134  20.089  66.109  1.00  0.00    -0.357 C  
ENDBRANCH  21  22
ENDBRANCH  18  21
ENDBRANCH  17  18
ENDBRANCH  16  17
ENDBRANCH  13  16
BRANCH  15  28
HETATM   28  C   UNL     1     -12.354  13.435  71.107  1.00  0.00    -0.259 C  
HETATM   29  O   UNL     1     -13.112  12.882  71.905  1.00  0.00    -0.399 OA 
HETATM   30  C   UNL     1     -11.871  14.834  71.383  1.00  0.00    -0.394 C  
ENDBRANCH  15  28
ENDBRANCH   8  10
ENDBRANCH   6   8
ENDBRANCH   3   6
ENDBRANCH   2   3
TORSDOF 11
ENDMDL
MODEL      141
REMARK 921   NORMALIZED FREE ENERGY PREDICTED BY IDOCK:   -4.55 KCAL/MOL
REMARK 922        TOTAL FREE ENERGY PREDICTED BY IDOCK:   -8.61 KCAL/MOL
REMARK 923 INTER-LIGAND FREE ENERGY PREDICTED BY IDOCK:   -7.78 KCAL/MOL
REMARK 924 INTRA-LIGAND FREE ENERGY PREDICTED BY IDOCK:   -0.83 KCAL/MOL
REMARK 927      BINDING AFFINITY PREDICTED BY RF-SCORE:    0.00 PKD
ROOT
HETATM    1  C   UNL     1     -10.513  11.314  63.332  1.00  0.00    -0.424 C  
HETATM    2  C   UNL     1     -10.821  11.335  64.822  1.00  0.00    -0.244 C  
ENDROOT
BRANCH   2   3
HETATM    3  N   UNL     1     -11.138  12.675  65.327  1.00  0.00    -0.288 N  
BRANCH   3   4
HETATM    4  C   UNL     1     -12.342  13.335  64.813  1.00  0.00    -0.402 C  
HETATM    5  C   UNL     1     -12.143  14.791  64.435  1.00  0.00    -0.457 C  
ENDBRANCH   3   4
BRANCH   3   6
HETATM    6  C   UNL     1     -10.386  13.135  66.408  1.00  0.00    -0.287 C  
HETATM    7  O   UNL     1      -9.219  13.505  66.278  1.00  0.00    -0.180 OA 
BRANCH   6   8
HETATM    8  N   UNL     1     -11.066  13.179  67.611  1.00  0.00    -0.261 N  
HETATM    9  H   UNL     1     -11.613  14.008  67.839  1.00  0.00     0.000 HD 
BRANCH   8  10
HETATM   10  C   UNL     1     -11.027  12.113  68.528  1.00  0.00    -0.238 A  
HETATM   11  C   UNL     1     -10.023  11.148  68.497  1.00  0.00    -0.204 A  
HETATM   12  C   UNL     1      -9.981  10.142  69.466  1.00  0.00    -0.257 A  
HETATM   13  C   UNL     1     -10.929  10.095  70.498  1.00  0.00    -0.310 A  
HETATM   14  C   UNL     1     -12.018  12.034  69.506  1.00  0.00    -0.346 A  
HETATM   15  C   UNL     1     -11.962  11.049  70.509  1.00  0.00    -0.474 A  
BRANCH  13  16
HETATM   16  O   UNL     1     -10.874   9.194  71.528  1.00  0.00    -0.316 OA 
BRANCH  16  17
HETATM   17  C   UNL     1     -10.200   7.949  71.284  1.00  0.00    -0.187 C  
BRANCH  17  18
HETATM   18  C   UNL     1     -11.234   6.815  71.259  1.00  0.00    -0.276 C  
HETATM   19  H   UNL     1     -12.012   5.632  69.898  1.00  0.00     0.000 HD 
HETATM   20  O   UNL     1     -11.372   6.334  69.914  1.00  0.00    -0.397 OA 
BRANCH  18  21
HETATM   21  C   UNL     1     -10.866   5.626  72.167  1.00  0.00    -0.245 C  
BRANCH  21  22
HETATM   22  N   UNL     1     -10.156   4.550  71.464  1.00  0.00    -0.188 NA 
HETATM   23  C   UNL     1      -9.168   3.813  72.280  1.00  0.00    -0.117 C  
HETATM   24  H   UNL     1      -9.714   4.914  70.619  1.00  0.00     0.000 HD 
HETATM   25  C   UNL     1      -8.480   2.801  71.343  1.00  0.00    -0.092 C  
HETATM   26  C   UNL     1      -9.843   3.024  73.415  1.00  0.00    -0.160 C  
HETATM   27  C   UNL     1      -8.091   4.749  72.854  1.00  0.00    -0.101 C  
ENDBRANCH  21  22
ENDBRANCH  18  21
ENDBRANCH  17  18
ENDBRANCH  16  17
ENDBRANCH  13  16
BRANCH  15  28
HETATM   28  C   UNL     1     -13.005  11.186  71.570  1.00  0.00    -0.437 C  
HETATM   29  O   UNL     1     -13.549  10.171  72.011  1.00  0.00    -0.358 OA 
HETATM   30  C   UNL     1     -13.359  12.531  72.145  1.00  0.00    -0.540 C  
ENDBRANCH  15  28
ENDBRANCH   8  10
ENDBRANCH   6   8
ENDBRANCH   3   6
ENDBRANCH   2   3
TORSDOF 11
ENDMDL
MODEL      142
REMARK 921   NORMALIZED FREE ENERGY PREDICTED BY IDOCK:   -4.55 KCAL/MOL
REMARK 922        TOTAL FREE ENERGY PREDICTED BY IDOCK:   -8.61 KCAL/MOL
REMARK 923 INTER-LIGAND FREE ENERGY PREDICTED BY IDOCK:   -7.22 KCAL/MOL
REMARK 924 INTRA-LIGAND FREE ENERGY PREDICTED BY IDOCK:   -1.40 KCAL/MOL
REMARK 927      BINDING AFFINITY PREDICTED BY RF-SCORE:    0.00 PKD
ROOT
HETATM    1  C   UNL     1      -6.853   5.615  67.620  1.00  0.00    -0.060 C  
HETATM    2  C   UNL     1      -7.094   4.186  67.153  1.00  0.00    -0.067 C  
ENDROOT
BRANCH   2   3
HETATM    3  N   UNL     1      -8.321   4.036  66.364  1.00  0.00    -0.104 N  
BRANCH   3   4
HETATM    4  C   UNL     1      -8.195   3.991  64.903  1.00  0.00    -0.097 C  
HETATM    5  C   UNL     1      -8.302   5.344  64.225  1.00  0.00    -0.124 C  
ENDBRANCH   3   4
BRANCH   3   6
HETATM    6  C   UNL     1      -9.489   3.740  67.065  1.00  0.00    -0.200 C  
HETATM    7  O   UNL     1      -9.569   2.769  67.815  1.00  0.00    -0.184 OA 
BRANCH   6   8
HETATM    8  N   UNL     1     -10.520   4.643  66.879  1.00  0.00    -0.168 N  
HETATM    9  H   UNL     1     -11.303   4.383  66.280  1.00  0.00     0.000 HD 
BRANCH   8  10
HETATM   10  C   UNL     1     -10.521   5.909  67.492  1.00  0.00    -0.243 A  
HETATM   11  C   UNL     1     -10.392   7.086  66.757  1.00  0.00    -0.291 A  
HETATM   12  C   UNL     1     -10.464   8.327  67.395  1.00  0.00    -0.353 A  
HETATM   13  C   UNL     1     -10.689   8.417  68.775  1.00  0.00    -0.051 A  
HETATM   14  C   UNL     1     -10.672   5.984  68.876  1.00  0.00    -0.384 A  
HETATM   15  C   UNL     1     -10.785   7.229  69.521  1.00  0.00    -0.244 A  
BRANCH  13  16
HETATM   16  O   UNL     1     -10.869   9.605  69.431  1.00  0.00    -0.224 OA 
BRANCH  16  17
HETATM   17  C   UNL     1     -10.529  10.810  68.726  1.00  0.00    -0.199 C  
BRANCH  17  18
HETATM   18  C   UNL     1     -11.756  11.730  68.684  1.00  0.00    -0.330 C  
HETATM   19  H   UNL     1     -12.582  13.052  69.880  1.00  0.00     0.000 HD 
HETATM   20  O   UNL     1     -11.822  12.482  69.906  1.00  0.00    -0.325 OA 
BRANCH  18  21
HETATM   21  C   UNL     1     -11.745  12.720  67.503  1.00  0.00    -0.364 C  
BRANCH  21  22
HETATM   22  N   UNL     1     -12.042  12.092  66.210  1.00  0.00    -0.589 NA 
HETATM   23  C   UNL     1     -11.805  12.948  65.028  1.00  0.00    -0.372 C  
HETATM   24  H   UNL     1     -13.000  11.739  66.202  1.00  0.00     0.000 HD 
HETATM   25  C   UNL     1     -12.258  12.143  63.794  1.00  0.00    -0.630 C  
HETATM   26  C   UNL     1     -10.312  13.278  64.856  1.00  0.00    -0.368 C  
HETATM   27  C   UNL     1     -12.629  14.244  65.088  1.00  0.00    -0.384 C  
ENDBRANCH  21  22
ENDBRANCH  18  21
ENDBRANCH  17  18
ENDBRANCH  16  17
ENDBRANCH  13  16
BRANCH  15  28
HETATM   28  C   UNL     1     -11.094   7.144  70.981  1.00  0.00    -0.260 C  
HETATM   29  O   UNL     1     -10.172   6.981  71.781  1.00  0.00    -0.193 OA 
HETATM   30  C   UNL     1     -12.502   7.310  71.489  1.00  0.00    -0.408 C  
ENDBRANCH  15  28
ENDBRANCH   8  10
ENDBRANCH   6   8
ENDBRANCH   3   6
ENDBRANCH   2   3
TORSDOF 11
ENDMDL
MODEL      143
REMARK 921   NORMALIZED FREE ENERGY PREDICTED BY IDOCK:   -4.54 KCAL/MOL
REMARK 922        TOTAL FREE ENERGY PREDICTED BY IDOCK:   -8.59 KCAL/MOL
REMARK 923 INTER-LIGAND FREE ENERGY PREDICTED BY IDOCK:   -6.86 KCAL/MOL
REMARK 924 INTRA-LIGAND FREE ENERGY PREDICTED BY IDOCK:   -1.73 KCAL/MOL
REMARK 927      BINDING AFFINITY PREDICTED BY RF-SCORE:    0.00 PKD
ROOT
HETATM    1  C   UNL     1     -10.611  10.894  64.450  1.00  0.00    -0.343 C  
HETATM    2  C   UNL     1      -9.805   9.911  65.288  1.00  0.00    -0.303 C  
ENDROOT
BRANCH   2   3
HETATM    3  N   UNL     1      -9.504  10.411  66.634  1.00  0.00    -0.161 N  
BRANCH   3   4
HETATM    4  C   UNL     1     -10.427  10.058  67.718  1.00  0.00    -0.234 C  
HETATM    5  C   UNL     1     -11.623  10.983  67.846  1.00  0.00    -0.306 C  
ENDBRANCH   3   4
BRANCH   3   6
HETATM    6  C   UNL     1      -8.259  11.009  66.820  1.00  0.00    -0.149 C  
HETATM    7  O   UNL     1      -7.307  10.775  66.077  1.00  0.00    -0.142 OA 
BRANCH   6   8
HETATM    8  N   UNL     1      -8.198  11.905  67.872  1.00  0.00    -0.141 N  
HETATM    9  H   UNL     1      -7.802  11.598  68.760  1.00  0.00     0.000 HD 
BRANCH   8  10
HETATM   10  C   UNL     1      -8.665  13.226  67.753  1.00  0.00    -0.194 A  
HETATM   11  C   UNL     1      -8.272  14.057  66.707  1.00  0.00     0.169 A  
HETATM   12  C   UNL     1      -8.810  15.342  66.588  1.00  0.00    -0.328 A  
HETATM   13  C   UNL     1      -9.767  15.811  67.497  1.00  0.00    -0.226 A  
HETATM   14  C   UNL     1      -9.562  13.707  68.706  1.00  0.00    -0.017 A  
HETATM   15  C   UNL     1     -10.138  14.984  68.572  1.00  0.00    -0.225 A  
BRANCH  13  16
HETATM   16  O   UNL     1     -10.399  17.019  67.366  1.00  0.00    -0.304 OA 
BRANCH  16  17
HETATM   17  C   UNL     1     -10.450  17.601  66.054  1.00  0.00    -0.278 C  
BRANCH  17  18
HETATM   18  C   UNL     1     -10.412  19.130  66.182  1.00  0.00    -0.477 C  
HETATM   19  H   UNL     1     -10.995  20.459  67.506  1.00  0.00     0.000 HD 
HETATM   20  O   UNL     1     -11.019  19.513  67.426  1.00  0.00    -0.477 OA 
BRANCH  18  21
HETATM   21  C   UNL     1      -8.988  19.717  66.134  1.00  0.00    -0.336 C  
BRANCH  21  22
HETATM   22  N   UNL     1      -7.947  18.710  65.899  1.00  0.00    -0.490 NA 
HETATM   23  C   UNL     1      -6.827  18.728  66.865  1.00  0.00    -0.198 C  
HETATM   24  H   UNL     1      -7.590  18.789  64.946  1.00  0.00     0.000 HD 
HETATM   25  C   UNL     1      -5.813  17.668  66.394  1.00  0.00    -0.243 C  
HETATM   26  C   UNL     1      -7.292  18.343  68.280  1.00  0.00    -0.285 C  
HETATM   27  C   UNL     1      -6.121  20.093  66.894  1.00  0.00    -0.201 C  
ENDBRANCH  21  22
ENDBRANCH  18  21
ENDBRANCH  17  18
ENDBRANCH  16  17
ENDBRANCH  13  16
BRANCH  15  28
HETATM   28  C   UNL     1     -11.192  15.298  69.584  1.00  0.00    -0.278 C  
HETATM   29  O   UNL     1     -11.136  16.366  70.196  1.00  0.00    -0.355 OA 
HETATM   30  C   UNL     1     -12.343  14.359  69.826  1.00  0.00    -0.333 C  
ENDBRANCH  15  28
ENDBRANCH   8  10
ENDBRANCH   6   8
ENDBRANCH   3   6
ENDBRANCH   2   3
TORSDOF 11
ENDMDL
MODEL      144
REMARK 921   NORMALIZED FREE ENERGY PREDICTED BY IDOCK:   -4.54 KCAL/MOL
REMARK 922        TOTAL FREE ENERGY PREDICTED BY IDOCK:   -8.59 KCAL/MOL
REMARK 923 INTER-LIGAND FREE ENERGY PREDICTED BY IDOCK:   -7.13 KCAL/MOL
REMARK 924 INTRA-LIGAND FREE ENERGY PREDICTED BY IDOCK:   -1.46 KCAL/MOL
REMARK 927      BINDING AFFINITY PREDICTED BY RF-SCORE:    0.00 PKD
ROOT
HETATM    1  C   UNL     1     -10.009  10.338  64.824  1.00  0.00    -0.392 C  
HETATM    2  C   UNL     1      -9.992  11.860  64.842  1.00  0.00    -0.241 C  
ENDROOT
BRANCH   2   3
HETATM    3  N   UNL     1     -11.106  12.441  65.599  1.00  0.00    -0.295 N  
BRANCH   3   4
HETATM    4  C   UNL     1     -12.394  12.595  64.914  1.00  0.00    -0.498 C  
HETATM    5  C   UNL     1     -12.280  12.886  63.429  1.00  0.00    -0.574 C  
ENDBRANCH   3   4
BRANCH   3   6
HETATM    6  C   UNL     1     -10.916  12.611  66.970  1.00  0.00    -0.265 C  
HETATM    7  O   UNL     1      -9.960  13.240  67.420  1.00  0.00    -0.227 OA 
BRANCH   6   8
HETATM    8  N   UNL     1     -11.902  12.056  67.765  1.00  0.00    -0.300 N  
HETATM    9  H   UNL     1     -12.862  12.384  67.662  1.00  0.00     0.000 HD 
BRANCH   8  10
HETATM   10  C   UNL     1     -11.621  11.054  68.711  1.00  0.00    -0.318 A  
HETATM   11  C   UNL     1     -12.104  11.113  70.016  1.00  0.00    -0.437 A  
HETATM   12  C   UNL     1     -11.857  10.065  70.907  1.00  0.00    -0.459 A  
HETATM   13  C   UNL     1     -11.143   8.928  70.504  1.00  0.00    -0.251 A  
HETATM   14  C   UNL     1     -10.846   9.962  68.319  1.00  0.00    -0.275 A  
HETATM   15  C   UNL     1     -10.626   8.885  69.197  1.00  0.00    -0.211 A  
BRANCH  13  16
HETATM   16  O   UNL     1     -10.961   7.832  71.305  1.00  0.00    -0.231 OA 
BRANCH  16  17
HETATM   17  C   UNL     1     -11.308   7.960  72.693  1.00  0.00    -0.408 C  
BRANCH  17  18
HETATM   18  C   UNL     1     -10.193   7.341  73.547  1.00  0.00    -0.358 C  
HETATM   19  H   UNL     1      -9.935   5.675  74.555  1.00  0.00     0.000 HD 
HETATM   20  O   UNL     1     -10.625   6.059  74.026  1.00  0.00    -0.269 OA 
BRANCH  18  21
HETATM   21  C   UNL     1      -8.865   7.156  72.787  1.00  0.00    -0.122 C  
BRANCH  21  22
HETATM   22  N   UNL     1      -8.181   5.896  73.103  1.00  0.00    -0.117 NA 
HETATM   23  C   UNL     1      -7.825   5.065  71.934  1.00  0.00    -0.109 C  
HETATM   24  H   UNL     1      -8.733   5.352  73.766  1.00  0.00     0.000 HD 
HETATM   25  C   UNL     1      -7.204   3.765  72.481  1.00  0.00    -0.049 C  
HETATM   26  C   UNL     1      -6.774   5.754  71.045  1.00  0.00    -0.053 C  
HETATM   27  C   UNL     1      -9.062   4.696  71.099  1.00  0.00    -0.180 C  
ENDBRANCH  21  22
ENDBRANCH  18  21
ENDBRANCH  17  18
ENDBRANCH  16  17
ENDBRANCH  13  16
BRANCH  15  28
HETATM   28  C   UNL     1      -9.909   7.725  68.586  1.00  0.00    -0.169 C  
HETATM   29  O   UNL     1     -10.565   6.819  68.067  1.00  0.00    -0.191 OA 
HETATM   30  C   UNL     1      -8.405   7.674  68.546  1.00  0.00    -0.129 C  
ENDBRANCH  15  28
ENDBRANCH   8  10
ENDBRANCH   6   8
ENDBRANCH   3   6
ENDBRANCH   2   3
TORSDOF 11
ENDMDL
MODEL      145
REMARK 921   NORMALIZED FREE ENERGY PREDICTED BY IDOCK:   -4.53 KCAL/MOL
REMARK 922        TOTAL FREE ENERGY PREDICTED BY IDOCK:   -8.58 KCAL/MOL
REMARK 923 INTER-LIGAND FREE ENERGY PREDICTED BY IDOCK:   -7.51 KCAL/MOL
REMARK 924 INTRA-LIGAND FREE ENERGY PREDICTED BY IDOCK:   -1.06 KCAL/MOL
REMARK 927      BINDING AFFINITY PREDICTED BY RF-SCORE:    0.00 PKD
ROOT
HETATM    1  C   UNL     1     -11.477  12.211  63.892  1.00  0.00    -0.519 C  
HETATM    2  C   UNL     1     -11.552  13.627  64.446  1.00  0.00    -0.393 C  
ENDROOT
BRANCH   2   3
HETATM    3  N   UNL     1     -11.214  13.707  65.871  1.00  0.00    -0.303 N  
BRANCH   3   4
HETATM    4  C   UNL     1     -11.243  15.028  66.509  1.00  0.00    -0.312 C  
HETATM    5  C   UNL     1     -10.572  16.125  65.704  1.00  0.00    -0.377 C  
ENDBRANCH   3   4
BRANCH   3   6
HETATM    6  C   UNL     1     -11.092  12.501  66.559  1.00  0.00    -0.287 C  
HETATM    7  O   UNL     1     -12.055  11.960  67.100  1.00  0.00    -0.590 OA 
BRANCH   6   8
HETATM    8  N   UNL     1      -9.822  11.951  66.545  1.00  0.00    -0.201 N  
HETATM    9  H   UNL     1      -9.091  12.412  66.004  1.00  0.00     0.000 HD 
BRANCH   8  10
HETATM   10  C   UNL     1      -9.511  10.777  67.254  1.00  0.00    -0.159 A  
HETATM   11  C   UNL     1      -9.154  10.800  68.600  1.00  0.00    -0.173 A  
HETATM   12  C   UNL     1      -8.916   9.606  69.286  1.00  0.00    -0.173 A  
HETATM   13  C   UNL     1      -9.051   8.366  68.647  1.00  0.00    -0.140 A  
HETATM   14  C   UNL     1      -9.577   9.554  66.587  1.00  0.00    -0.243 A  
HETATM   15  C   UNL     1      -9.378   8.346  67.279  1.00  0.00    -0.181 A  
BRANCH  13  16
HETATM   16  O   UNL     1      -8.930   7.168  69.297  1.00  0.00    -0.139 OA 
BRANCH  16  17
HETATM   17  C   UNL     1      -9.364   7.109  70.666  1.00  0.00    -0.158 C  
BRANCH  17  18
HETATM   18  C   UNL     1     -10.454   6.038  70.800  1.00  0.00    -0.239 C  
HETATM   19  H   UNL     1     -11.088   4.826  72.210  1.00  0.00     0.000 HD 
HETATM   20  O   UNL     1     -10.412   5.489  72.126  1.00  0.00    -0.206 OA 
BRANCH  18  21
HETATM   21  C   UNL     1     -11.876   6.571  70.538  1.00  0.00    -0.328 C  
BRANCH  21  22
HETATM   22  N   UNL     1     -11.940   8.030  70.400  1.00  0.00    -0.468 NA 
HETATM   23  C   UNL     1     -12.772   8.720  71.409  1.00  0.00    -0.283 C  
HETATM   24  H   UNL     1     -12.246   8.282  69.460  1.00  0.00     0.000 HD 
HETATM   25  C   UNL     1     -12.777  10.216  71.038  1.00  0.00    -0.481 C  
HETATM   26  C   UNL     1     -12.179   8.586  72.823  1.00  0.00    -0.141 C  
HETATM   27  C   UNL     1     -14.223   8.214  71.394  1.00  0.00    -0.431 C  
ENDBRANCH  21  22
ENDBRANCH  18  21
ENDBRANCH  17  18
ENDBRANCH  16  17
ENDBRANCH  13  16
BRANCH  15  28
HETATM   28  C   UNL     1      -9.631   7.118  66.466  1.00  0.00    -0.144 C  
HETATM   29  O   UNL     1      -8.912   6.884  65.493  1.00  0.00    -0.031 OA 
HETATM   30  C   UNL     1     -10.709   6.140  66.849  1.00  0.00    -0.413 C  
ENDBRANCH  15  28
ENDBRANCH   8  10
ENDBRANCH   6   8
ENDBRANCH   3   6
ENDBRANCH   2   3
TORSDOF 11
ENDMDL
MODEL      146
REMARK 921   NORMALIZED FREE ENERGY PREDICTED BY IDOCK:   -4.53 KCAL/MOL
REMARK 922        TOTAL FREE ENERGY PREDICTED BY IDOCK:   -8.57 KCAL/MOL
REMARK 923 INTER-LIGAND FREE ENERGY PREDICTED BY IDOCK:   -6.86 KCAL/MOL
REMARK 924 INTRA-LIGAND FREE ENERGY PREDICTED BY IDOCK:   -1.72 KCAL/MOL
REMARK 927      BINDING AFFINITY PREDICTED BY RF-SCORE:    0.00 PKD
ROOT
HETATM    1  C   UNL     1     -10.922   5.768  70.661  1.00  0.00    -0.319 C  
HETATM    2  C   UNL     1     -11.369   7.175  70.292  1.00  0.00    -0.269 C  
ENDROOT
BRANCH   2   3
HETATM    3  N   UNL     1     -10.307   8.176  70.442  1.00  0.00    -0.202 N  
BRANCH   3   4
HETATM    4  C   UNL     1     -10.556   9.312  71.335  1.00  0.00    -0.347 C  
HETATM    5  C   UNL     1     -11.859  10.043  71.068  1.00  0.00    -0.476 C  
ENDBRANCH   3   4
BRANCH   3   6
HETATM    6  C   UNL     1      -9.065   7.865  69.887  1.00  0.00    -0.146 C  
HETATM    7  O   UNL     1      -8.070   7.676  70.586  1.00  0.00    -0.104 OA 
BRANCH   6   8
HETATM    8  N   UNL     1      -9.059   7.750  68.509  1.00  0.00    -0.133 N  
HETATM    9  H   UNL     1      -8.931   6.829  68.091  1.00  0.00     0.000 HD 
BRANCH   8  10
HETATM   10  C   UNL     1      -9.224   8.864  67.667  1.00  0.00    -0.136 A  
HETATM   11  C   UNL     1     -10.336   9.008  66.842  1.00  0.00    -0.324 A  
HETATM   12  C   UNL     1     -10.496  10.161  66.069  1.00  0.00    -0.165 A  
HETATM   13  C   UNL     1      -9.559  11.203  66.123  1.00  0.00    -0.210 A  
HETATM   14  C   UNL     1      -8.248   9.860  67.675  1.00  0.00    -0.114 A  
HETATM   15  C   UNL     1      -8.420  11.041  66.931  1.00  0.00    -0.139 A  
BRANCH  13  16
HETATM   16  O   UNL     1      -9.720  12.393  65.466  1.00  0.00    -0.225 OA 
BRANCH  16  17
HETATM   17  C   UNL     1     -10.821  12.501  64.550  1.00  0.00    -0.328 C  
BRANCH  17  18
HETATM   18  C   UNL     1     -11.432  13.905  64.664  1.00  0.00    -0.377 C  
HETATM   19  H   UNL     1     -12.976  14.848  63.899  1.00  0.00     0.000 HD 
HETATM   20  O   UNL     1     -12.597  13.979  63.829  1.00  0.00    -0.772 OA 
BRANCH  18  21
HETATM   21  C   UNL     1     -11.836  14.287  66.101  1.00  0.00    -0.402 C  
BRANCH  21  22
HETATM   22  N   UNL     1     -10.692  14.549  66.981  1.00  0.00    -0.286 NA 
HETATM   23  C   UNL     1     -10.975  14.438  68.428  1.00  0.00    -0.248 C  
HETATM   24  H   UNL     1     -10.288  15.463  66.771  1.00  0.00     0.000 HD 
HETATM   25  C   UNL     1      -9.683  14.834  69.169  1.00  0.00    -0.149 C  
HETATM   26  C   UNL     1     -11.327  12.995  68.829  1.00  0.00    -0.332 C  
HETATM   27  C   UNL     1     -12.095  15.396  68.865  1.00  0.00    -0.226 C  
ENDBRANCH  21  22
ENDBRANCH  18  21
ENDBRANCH  17  18
ENDBRANCH  16  17
ENDBRANCH  13  16
BRANCH  15  28
HETATM   28  C   UNL     1      -7.365  12.076  67.160  1.00  0.00    -0.134 C  
HETATM   29  O   UNL     1      -7.700  13.199  67.541  1.00  0.00    -0.148 OA 
HETATM   30  C   UNL     1      -5.906  11.752  66.985  1.00  0.00    -0.145 C  
ENDBRANCH  15  28
ENDBRANCH   8  10
ENDBRANCH   6   8
ENDBRANCH   3   6
ENDBRANCH   2   3
TORSDOF 11
ENDMDL
MODEL      147
REMARK 921   NORMALIZED FREE ENERGY PREDICTED BY IDOCK:   -4.53 KCAL/MOL
REMARK 922        TOTAL FREE ENERGY PREDICTED BY IDOCK:   -8.57 KCAL/MOL
REMARK 923 INTER-LIGAND FREE ENERGY PREDICTED BY IDOCK:   -7.99 KCAL/MOL
REMARK 924 INTRA-LIGAND FREE ENERGY PREDICTED BY IDOCK:   -0.58 KCAL/MOL
REMARK 927      BINDING AFFINITY PREDICTED BY RF-SCORE:    0.00 PKD
ROOT
HETATM    1  C   UNL     1     -11.361  16.284  70.739  1.00  0.00    -0.327 C  
HETATM    2  C   UNL     1     -11.426  15.342  71.933  1.00  0.00    -0.424 C  
ENDROOT
BRANCH   2   3
HETATM    3  N   UNL     1     -12.790  15.137  72.432  1.00  0.00    -0.331 N  
BRANCH   3   4
HETATM    4  C   UNL     1     -13.357  16.161  73.316  1.00  0.00    -0.438 C  
HETATM    5  C   UNL     1     -12.534  16.437  74.561  1.00  0.00    -0.490 C  
ENDBRANCH   3   4
BRANCH   3   6
HETATM    6  C   UNL     1     -13.518  14.091  71.867  1.00  0.00    -0.421 C  
HETATM    7  O   UNL     1     -14.307  13.416  72.527  1.00  0.00    -0.692 OA 
BRANCH   6   8
HETATM    8  N   UNL     1     -13.311  13.908  70.512  1.00  0.00    -0.089 N  
HETATM    9  H   UNL     1     -13.789  14.520  69.852  1.00  0.00     0.000 HD 
BRANCH   8  10
HETATM   10  C   UNL     1     -12.462  12.902  70.017  1.00  0.00    -0.015 A  
HETATM   11  C   UNL     1     -12.356  11.656  70.632  1.00  0.00    -0.437 A  
HETATM   12  C   UNL     1     -11.551  10.660  70.073  1.00  0.00    -0.406 A  
HETATM   13  C   UNL     1     -10.855  10.881  68.876  1.00  0.00    -0.219 A  
HETATM   14  C   UNL     1     -11.718  13.159  68.866  1.00  0.00    -0.368 A  
HETATM   15  C   UNL     1     -10.937  12.150  68.274  1.00  0.00    -0.273 A  
BRANCH  13  16
HETATM   16  O   UNL     1     -10.137   9.909  68.234  1.00  0.00    -0.151 OA 
BRANCH  16  17
HETATM   17  C   UNL     1      -8.927   9.455  68.862  1.00  0.00    -0.136 C  
BRANCH  17  18
HETATM   18  C   UNL     1      -9.030   7.945  69.115  1.00  0.00    -0.145 C  
HETATM   19  H   UNL     1      -8.125   6.632  70.262  1.00  0.00     0.000 HD 
HETATM   20  O   UNL     1      -8.061   7.567  70.104  1.00  0.00    -0.115 OA 
BRANCH  18  21
HETATM   21  C   UNL     1     -10.422   7.495  69.600  1.00  0.00    -0.234 C  
BRANCH  21  22
HETATM   22  N   UNL     1     -10.374   6.543  70.716  1.00  0.00    -0.201 NA 
HETATM   23  C   UNL     1     -11.101   6.965  71.933  1.00  0.00    -0.246 C  
HETATM   24  H   UNL     1      -9.405   6.318  70.946  1.00  0.00     0.000 HD 
HETATM   25  C   UNL     1     -10.854   5.882  73.000  1.00  0.00    -0.300 C  
HETATM   26  C   UNL     1     -12.617   7.052  71.688  1.00  0.00    -0.419 C  
HETATM   27  C   UNL     1     -10.576   8.305  72.474  1.00  0.00    -0.407 C  
ENDBRANCH  21  22
ENDBRANCH  18  21
ENDBRANCH  17  18
ENDBRANCH  16  17
ENDBRANCH  13  16
BRANCH  15  28
HETATM   28  C   UNL     1     -10.321  12.530  66.966  1.00  0.00    -0.224 C  
HETATM   29  O   UNL     1     -10.957  12.342  65.927  1.00  0.00    -0.270 OA 
HETATM   30  C   UNL     1      -8.968  13.187  66.905  1.00  0.00    -0.213 C  
ENDBRANCH  15  28
ENDBRANCH   8  10
ENDBRANCH   6   8
ENDBRANCH   3   6
ENDBRANCH   2   3
TORSDOF 11
ENDMDL
MODEL      148
REMARK 921   NORMALIZED FREE ENERGY PREDICTED BY IDOCK:   -4.52 KCAL/MOL
REMARK 922        TOTAL FREE ENERGY PREDICTED BY IDOCK:   -8.56 KCAL/MOL
REMARK 923 INTER-LIGAND FREE ENERGY PREDICTED BY IDOCK:   -7.36 KCAL/MOL
REMARK 924 INTRA-LIGAND FREE ENERGY PREDICTED BY IDOCK:   -1.20 KCAL/MOL
REMARK 927      BINDING AFFINITY PREDICTED BY RF-SCORE:    0.00 PKD
ROOT
HETATM    1  C   UNL     1     -11.353  15.997  68.409  1.00  0.00    -0.355 C  
HETATM    2  C   UNL     1     -10.566  14.693  68.411  1.00  0.00    -0.241 C  
ENDROOT
BRANCH   2   3
HETATM    3  N   UNL     1     -10.784  13.886  67.206  1.00  0.00    -0.282 N  
BRANCH   3   4
HETATM    4  C   UNL     1      -9.959  14.176  66.028  1.00  0.00    -0.322 C  
HETATM    5  C   UNL     1     -10.662  14.991  64.959  1.00  0.00    -0.448 C  
ENDBRANCH   3   4
BRANCH   3   6
HETATM    6  C   UNL     1     -11.612  12.772  67.335  1.00  0.00    -0.356 C  
HETATM    7  O   UNL     1     -11.945  12.093  66.365  1.00  0.00    -0.611 OA 
BRANCH   6   8
HETATM    8  N   UNL     1     -11.987  12.476  68.633  1.00  0.00    -0.284 N  
HETATM    9  H   UNL     1     -12.630  13.101  69.117  1.00  0.00     0.000 HD 
BRANCH   8  10
HETATM   10  C   UNL     1     -11.507  11.338  69.306  1.00  0.00    -0.301 A  
HETATM   11  C   UNL     1     -10.175  10.936  69.222  1.00  0.00    -0.190 A  
HETATM   12  C   UNL     1      -9.722   9.838  69.958  1.00  0.00    -0.292 A  
HETATM   13  C   UNL     1     -10.584   9.134  70.809  1.00  0.00    -0.260 A  
HETATM   14  C   UNL     1     -12.392  10.601  70.093  1.00  0.00    -0.370 A  
HETATM   15  C   UNL     1     -11.936   9.519  70.867  1.00  0.00    -0.372 A  
BRANCH  13  16
HETATM   16  O   UNL     1     -10.169   8.118  71.627  1.00  0.00    -0.187 OA 
BRANCH  16  17
HETATM   17  C   UNL     1      -9.466   7.023  71.019  1.00  0.00    -0.159 C  
BRANCH  17  18
HETATM   18  C   UNL     1     -10.398   5.806  70.949  1.00  0.00    -0.237 C  
HETATM   19  H   UNL     1     -11.665   5.059  69.647  1.00  0.00     0.000 HD 
HETATM   20  O   UNL     1     -11.088   5.813  69.691  1.00  0.00    -0.372 OA 
BRANCH  18  21
HETATM   21  C   UNL     1      -9.665   4.458  71.095  1.00  0.00    -0.186 C  
BRANCH  21  22
HETATM   22  N   UNL     1      -9.894   3.542  69.972  1.00  0.00    -0.059 NA 
HETATM   23  C   UNL     1      -8.674   3.102  69.262  1.00  0.00    -0.081 C  
HETATM   24  H   UNL     1     -10.556   3.953  69.312  1.00  0.00     0.000 HD 
HETATM   25  C   UNL     1      -9.135   2.229  68.078  1.00  0.00    -0.223 C  
HETATM   26  C   UNL     1      -7.772   2.240  70.162  1.00  0.00    -0.045 C  
HETATM   27  C   UNL     1      -7.879   4.293  68.703  1.00  0.00    -0.073 C  
ENDBRANCH  21  22
ENDBRANCH  18  21
ENDBRANCH  17  18
ENDBRANCH  16  17
ENDBRANCH  13  16
BRANCH  15  28
HETATM   28  C   UNL     1     -12.968   8.927  71.772  1.00  0.00    -0.367 C  
HETATM   29  O   UNL     1     -13.325   9.557  72.768  1.00  0.00    -0.263 OA 
HETATM   30  C   UNL     1     -13.613   7.604  71.455  1.00  0.00    -0.422 C  
ENDBRANCH  15  28
ENDBRANCH   8  10
ENDBRANCH   6   8
ENDBRANCH   3   6
ENDBRANCH   2   3
TORSDOF 11
ENDMDL
MODEL      149
REMARK 921   NORMALIZED FREE ENERGY PREDICTED BY IDOCK:   -4.52 KCAL/MOL
REMARK 922        TOTAL FREE ENERGY PREDICTED BY IDOCK:   -8.55 KCAL/MOL
REMARK 923 INTER-LIGAND FREE ENERGY PREDICTED BY IDOCK:   -7.97 KCAL/MOL
REMARK 924 INTRA-LIGAND FREE ENERGY PREDICTED BY IDOCK:   -0.58 KCAL/MOL
REMARK 927      BINDING AFFINITY PREDICTED BY RF-SCORE:    0.00 PKD
ROOT
HETATM    1  C   UNL     1     -10.716   6.384  67.960  1.00  0.00    -0.362 C  
HETATM    2  C   UNL     1     -10.420   7.458  66.922  1.00  0.00    -0.309 C  
ENDROOT
BRANCH   2   3
HETATM    3  N   UNL     1      -9.219   8.241  67.228  1.00  0.00    -0.136 N  
BRANCH   3   4
HETATM    4  C   UNL     1      -8.640   8.113  68.570  1.00  0.00    -0.130 C  
HETATM    5  C   UNL     1      -8.706   9.380  69.402  1.00  0.00    -0.157 C  
ENDBRANCH   3   4
BRANCH   3   6
HETATM    6  C   UNL     1      -8.598   8.888  66.160  1.00  0.00    -0.140 C  
HETATM    7  O   UNL     1      -7.381   9.060  66.122  1.00  0.00    -0.088 OA 
BRANCH   6   8
HETATM    8  N   UNL     1      -9.452   9.276  65.143  1.00  0.00    -0.450 N  
HETATM    9  H   UNL     1      -9.596   8.648  64.352  1.00  0.00     0.000 HD 
BRANCH   8  10
HETATM   10  C   UNL     1     -10.127  10.509  65.167  1.00  0.00    -0.314 A  
HETATM   11  C   UNL     1     -10.631  11.098  64.010  1.00  0.00    -0.436 A  
HETATM   12  C   UNL     1     -11.353  12.292  64.083  1.00  0.00    -0.442 A  
HETATM   13  C   UNL     1     -11.605  12.909  65.317  1.00  0.00    -0.340 A  
HETATM   14  C   UNL     1     -10.307  11.151  66.392  1.00  0.00    -0.300 A  
HETATM   15  C   UNL     1     -11.066  12.332  66.480  1.00  0.00    -0.343 A  
BRANCH  13  16
HETATM   16  O   UNL     1     -12.391  14.021  65.454  1.00  0.00    -0.427 OA 
BRANCH  16  17
HETATM   17  C   UNL     1     -11.781  15.201  66.002  1.00  0.00     0.003 C  
BRANCH  17  18
HETATM   18  C   UNL     1     -10.630  15.640  65.087  1.00  0.00    -0.424 C  
HETATM   19  H   UNL     1     -10.414  16.860  63.562  1.00  0.00     0.000 HD 
HETATM   20  O   UNL     1     -11.127  16.588  64.129  1.00  0.00    -0.903 OA 
BRANCH  18  21
HETATM   21  C   UNL     1      -9.452  16.284  65.844  1.00  0.00    -0.283 C  
BRANCH  21  22
HETATM   22  N   UNL     1      -9.853  17.398  66.712  1.00  0.00    -0.283 NA 
HETATM   23  C   UNL     1      -8.800  17.890  67.627  1.00  0.00    -0.250 C  
HETATM   24  H   UNL     1     -10.689  17.149  67.240  1.00  0.00     0.000 HD 
HETATM   25  C   UNL     1      -9.443  18.984  68.501  1.00  0.00    -0.436 C  
HETATM   26  C   UNL     1      -7.630  18.526  66.857  1.00  0.00    -0.235 C  
HETATM   27  C   UNL     1      -8.282  16.776  68.551  1.00  0.00    -0.242 C  
ENDBRANCH  21  22
ENDBRANCH  18  21
ENDBRANCH  17  18
ENDBRANCH  16  17
ENDBRANCH  13  16
BRANCH  15  28
HETATM   28  C   UNL     1     -11.298  12.816  67.876  1.00  0.00    -0.293 C  
HETATM   29  O   UNL     1     -12.329  12.484  68.462  1.00  0.00    -0.053 OA 
HETATM   30  C   UNL     1     -10.270  13.652  68.590  1.00  0.00    -0.199 C  
ENDBRANCH  15  28
ENDBRANCH   8  10
ENDBRANCH   6   8
ENDBRANCH   3   6
ENDBRANCH   2   3
TORSDOF 11
ENDMDL
MODEL      150
REMARK 921   NORMALIZED FREE ENERGY PREDICTED BY IDOCK:   -4.51 KCAL/MOL
REMARK 922        TOTAL FREE ENERGY PREDICTED BY IDOCK:   -8.55 KCAL/MOL
REMARK 923 INTER-LIGAND FREE ENERGY PREDICTED BY IDOCK:   -7.28 KCAL/MOL
REMARK 924 INTRA-LIGAND FREE ENERGY PREDICTED BY IDOCK:   -1.27 KCAL/MOL
REMARK 927      BINDING AFFINITY PREDICTED BY RF-SCORE:    0.00 PKD
ROOT
HETATM    1  C   UNL     1     -11.031   9.175  68.316  1.00  0.00    -0.010 C  
HETATM    2  C   UNL     1      -9.863   8.221  68.109  1.00  0.00    -0.172 C  
ENDROOT
BRANCH   2   3
HETATM    3  N   UNL     1      -8.725   8.843  67.424  1.00  0.00    -0.125 N  
BRANCH   3   4
HETATM    4  C   UNL     1      -7.520   9.125  68.212  1.00  0.00    -0.083 C  
HETATM    5  C   UNL     1      -7.797   9.620  69.620  1.00  0.00    -0.129 C  
ENDBRANCH   3   4
BRANCH   3   6
HETATM    6  C   UNL     1      -8.796   8.930  66.034  1.00  0.00    -0.172 C  
HETATM    7  O   UNL     1      -9.150   7.977  65.340  1.00  0.00    -0.021 OA 
BRANCH   6   8
HETATM    8  N   UNL     1      -8.481  10.172  65.514  1.00  0.00    -0.146 N  
HETATM    9  H   UNL     1      -7.789  10.234  64.768  1.00  0.00     0.000 HD 
BRANCH   8  10
HETATM   10  C   UNL     1      -9.085  11.352  65.985  1.00  0.00    -0.208 A  
HETATM   11  C   UNL     1      -8.473  12.168  66.934  1.00  0.00    -0.173 A  
HETATM   12  C   UNL     1      -9.076  13.365  67.328  1.00  0.00    -0.222 A  
HETATM   13  C   UNL     1     -10.289  13.783  66.764  1.00  0.00    -0.272 A  
HETATM   14  C   UNL     1     -10.328  11.720  65.470  1.00  0.00    -0.304 A  
HETATM   15  C   UNL     1     -10.923  12.942  65.831  1.00  0.00    -0.300 A  
BRANCH  13  16
HETATM   16  O   UNL     1     -10.869  14.993  67.038  1.00  0.00    -0.299 OA 
BRANCH  16  17
HETATM   17  C   UNL     1     -10.044  16.001  67.643  1.00  0.00    -0.245 C  
BRANCH  17  18
HETATM   18  C   UNL     1     -10.467  16.182  69.107  1.00  0.00    -0.265 C  
HETATM   19  H   UNL     1     -10.377  17.618  70.445  1.00  0.00     0.000 HD 
HETATM   20  O   UNL     1     -10.115  17.505  69.538  1.00  0.00    -0.129 OA 
BRANCH  18  21
HETATM   21  C   UNL     1     -11.976  15.978  69.342  1.00  0.00    -0.178 C  
BRANCH  21  22
HETATM   22  N   UNL     1     -12.313  14.652  69.874  1.00  0.00    -0.452 NA 
HETATM   23  C   UNL     1     -12.840  14.645  71.255  1.00  0.00    -0.335 C  
HETATM   24  H   UNL     1     -11.508  14.029  69.801  1.00  0.00     0.000 HD 
HETATM   25  C   UNL     1     -13.043  13.169  71.649  1.00  0.00    -0.444 C  
HETATM   26  C   UNL     1     -14.203  15.352  71.347  1.00  0.00    -0.519 C  
HETATM   27  C   UNL     1     -11.849  15.278  72.246  1.00  0.00    -0.529 C  
ENDBRANCH  21  22
ENDBRANCH  18  21
ENDBRANCH  17  18
ENDBRANCH  16  17
ENDBRANCH  13  16
BRANCH  15  28
HETATM   28  C   UNL     1     -12.176  13.266  65.083  1.00  0.00    -0.443 C  
HETATM   29  O   UNL     1     -13.154  12.525  65.202  1.00  0.00    -0.659 OA 
HETATM   30  C   UNL     1     -12.279  14.506  64.237  1.00  0.00    -0.441 C  
ENDBRANCH  15  28
ENDBRANCH   8  10
ENDBRANCH   6   8
ENDBRANCH   3   6
ENDBRANCH   2   3
TORSDOF 11
ENDMDL
MODEL      151
REMARK 921   NORMALIZED FREE ENERGY PREDICTED BY IDOCK:   -4.51 KCAL/MOL
REMARK 922        TOTAL FREE ENERGY PREDICTED BY IDOCK:   -8.54 KCAL/MOL
REMARK 923 INTER-LIGAND FREE ENERGY PREDICTED BY IDOCK:   -7.11 KCAL/MOL
REMARK 924 INTRA-LIGAND FREE ENERGY PREDICTED BY IDOCK:   -1.43 KCAL/MOL
REMARK 927      BINDING AFFINITY PREDICTED BY RF-SCORE:    0.00 PKD
ROOT
HETATM    1  C   UNL     1      -7.389   8.409  72.603  1.00  0.00    -0.115 C  
HETATM    2  C   UNL     1      -8.714   7.669  72.484  1.00  0.00    -0.132 C  
ENDROOT
BRANCH   2   3
HETATM    3  N   UNL     1      -8.890   7.005  71.188  1.00  0.00    -0.141 N  
BRANCH   3   4
HETATM    4  C   UNL     1      -8.914   5.538  71.167  1.00  0.00    -0.141 C  
HETATM    5  C   UNL     1      -7.611   4.886  71.589  1.00  0.00    -0.095 C  
ENDBRANCH   3   4
BRANCH   3   6
HETATM    6  C   UNL     1      -9.225   7.816  70.104  1.00  0.00    -0.153 C  
HETATM    7  O   UNL     1      -8.375   8.244  69.325  1.00  0.00    -0.119 OA 
BRANCH   6   8
HETATM    8  N   UNL     1     -10.579   8.058  69.959  1.00  0.00    -0.239 N  
HETATM    9  H   UNL     1     -11.226   7.270  69.970  1.00  0.00     0.000 HD 
BRANCH   8  10
HETATM   10  C   UNL     1     -11.090   9.359  69.797  1.00  0.00    -0.172 A  
HETATM   11  C   UNL     1     -11.611  10.086  70.865  1.00  0.00    -0.463 A  
HETATM   12  C   UNL     1     -12.048  11.400  70.676  1.00  0.00    -0.469 A  
HETATM   13  C   UNL     1     -11.952  12.020  69.423  1.00  0.00    -0.275 A  
HETATM   14  C   UNL     1     -11.056   9.939  68.530  1.00  0.00    -0.181 A  
HETATM   15  C   UNL     1     -11.457  11.274  68.339  1.00  0.00    -0.377 A  
BRANCH  13  16
HETATM   16  O   UNL     1     -12.270  13.334  69.209  1.00  0.00    -0.268 OA 
BRANCH  16  17
HETATM   17  C   UNL     1     -12.515  14.154  70.363  1.00  0.00    -0.357 C  
BRANCH  17  18
HETATM   18  C   UNL     1     -12.173  15.611  70.025  1.00  0.00    -0.327 C  
HETATM   19  H   UNL     1     -10.957  16.985  70.728  1.00  0.00     0.000 HD 
HETATM   20  O   UNL     1     -11.169  16.082  70.937  1.00  0.00    -0.358 OA 
BRANCH  18  21
HETATM   21  C   UNL     1     -11.654  15.805  68.587  1.00  0.00    -0.386 C  
BRANCH  21  22
HETATM   22  N   UNL     1     -10.294  15.292  68.381  1.00  0.00    -0.224 NA 
HETATM   23  C   UNL     1      -9.460  16.083  67.451  1.00  0.00    -0.219 C  
HETATM   24  H   UNL     1     -10.327  14.317  68.082  1.00  0.00     0.000 HD 
HETATM   25  C   UNL     1      -8.119  15.337  67.306  1.00  0.00    -0.229 C  
HETATM   26  C   UNL     1      -9.162  17.487  68.007  1.00  0.00    -0.275 C  
HETATM   27  C   UNL     1     -10.104  16.192  66.059  1.00  0.00    -0.372 C  
ENDBRANCH  21  22
ENDBRANCH  18  21
ENDBRANCH  17  18
ENDBRANCH  16  17
ENDBRANCH  13  16
BRANCH  15  28
HETATM   28  C   UNL     1     -11.221  11.800  66.960  1.00  0.00    -0.322 C  
HETATM   29  O   UNL     1     -12.179  11.931  66.196  1.00  0.00    -0.459 OA 
HETATM   30  C   UNL     1      -9.847  12.223  66.513  1.00  0.00    -0.240 C  
ENDBRANCH  15  28
ENDBRANCH   8  10
ENDBRANCH   6   8
ENDBRANCH   3   6
ENDBRANCH   2   3
TORSDOF 11
ENDMDL
MODEL      152
REMARK 921   NORMALIZED FREE ENERGY PREDICTED BY IDOCK:   -4.51 KCAL/MOL
REMARK 922        TOTAL FREE ENERGY PREDICTED BY IDOCK:   -8.54 KCAL/MOL
REMARK 923 INTER-LIGAND FREE ENERGY PREDICTED BY IDOCK:   -7.53 KCAL/MOL
REMARK 924 INTRA-LIGAND FREE ENERGY PREDICTED BY IDOCK:   -1.01 KCAL/MOL
REMARK 927      BINDING AFFINITY PREDICTED BY RF-SCORE:    0.00 PKD
ROOT
HETATM    1  C   UNL     1     -10.218   5.604  69.087  1.00  0.00    -0.305 C  
HETATM    2  C   UNL     1     -10.051   5.144  67.645  1.00  0.00    -0.157 C  
ENDROOT
BRANCH   2   3
HETATM    3  N   UNL     1      -8.692   5.342  67.130  1.00  0.00    -0.108 N  
BRANCH   3   4
HETATM    4  C   UNL     1      -7.823   4.165  67.020  1.00  0.00    -0.096 C  
HETATM    5  C   UNL     1      -7.022   3.861  68.273  1.00  0.00    -0.051 C  
ENDBRANCH   3   4
BRANCH   3   6
HETATM    6  C   UNL     1      -8.398   6.594  66.592  1.00  0.00    -0.117 C  
HETATM    7  O   UNL     1      -7.268   7.078  66.651  1.00  0.00    -0.078 OA 
BRANCH   6   8
HETATM    8  N   UNL     1      -9.458   7.217  65.960  1.00  0.00    -0.397 N  
HETATM    9  H   UNL     1     -10.068   6.665  65.357  1.00  0.00     0.000 HD 
BRANCH   8  10
HETATM   10  C   UNL     1      -9.722   8.589  66.123  1.00  0.00    -0.189 A  
HETATM   11  C   UNL     1      -9.642   9.488  65.062  1.00  0.00    -0.218 A  
HETATM   12  C   UNL     1      -9.975  10.832  65.251  1.00  0.00    -0.342 A  
HETATM   13  C   UNL     1     -10.416  11.299  66.496  1.00  0.00    -0.253 A  
HETATM   14  C   UNL     1     -10.088   9.055  67.385  1.00  0.00    -0.291 A  
HETATM   15  C   UNL     1     -10.463  10.398  67.575  1.00  0.00    -0.292 A  
BRANCH  13  16
HETATM   16  O   UNL     1     -10.851  12.580  66.708  1.00  0.00    -0.240 OA 
BRANCH  16  17
HETATM   17  C   UNL     1     -12.010  13.015  65.980  1.00  0.00    -0.440 C  
BRANCH  17  18
HETATM   18  C   UNL     1     -11.558  13.758  64.715  1.00  0.00    -0.362 C  
HETATM   19  H   UNL     1     -12.338  15.079  63.489  1.00  0.00     0.000 HD 
HETATM   20  O   UNL     1     -12.618  14.619  64.272  1.00  0.00    -0.688 OA 
BRANCH  18  21
HETATM   21  C   UNL     1     -10.292  14.611  64.922  1.00  0.00    -0.350 C  
BRANCH  21  22
HETATM   22  N   UNL     1     -10.553  16.055  64.927  1.00  0.00    -0.664 NA 
HETATM   23  C   UNL     1     -10.056  16.778  66.118  1.00  0.00    -0.345 C  
HETATM   24  H   UNL     1     -11.549  16.233  64.798  1.00  0.00     0.000 HD 
HETATM   25  C   UNL     1     -10.505  18.245  65.970  1.00  0.00    -0.380 C  
HETATM   26  C   UNL     1      -8.520  16.758  66.195  1.00  0.00    -0.298 C  
HETATM   27  C   UNL     1     -10.658  16.217  67.417  1.00  0.00    -0.307 C  
ENDBRANCH  21  22
ENDBRANCH  18  21
ENDBRANCH  17  18
ENDBRANCH  16  17
ENDBRANCH  13  16
BRANCH  15  28
HETATM   28  C   UNL     1     -10.975  10.710  68.944  1.00  0.00    -0.249 C  
HETATM   29  O   UNL     1     -10.233  10.543  69.914  1.00  0.00    -0.197 OA 
HETATM   30  C   UNL     1     -12.355  11.275  69.149  1.00  0.00    -0.115 C  
ENDBRANCH  15  28
ENDBRANCH   8  10
ENDBRANCH   6   8
ENDBRANCH   3   6
ENDBRANCH   2   3
TORSDOF 11
ENDMDL
MODEL      153
REMARK 921   NORMALIZED FREE ENERGY PREDICTED BY IDOCK:   -4.51 KCAL/MOL
REMARK 922        TOTAL FREE ENERGY PREDICTED BY IDOCK:   -8.54 KCAL/MOL
REMARK 923 INTER-LIGAND FREE ENERGY PREDICTED BY IDOCK:   -7.55 KCAL/MOL
REMARK 924 INTRA-LIGAND FREE ENERGY PREDICTED BY IDOCK:   -0.99 KCAL/MOL
REMARK 927      BINDING AFFINITY PREDICTED BY RF-SCORE:    0.00 PKD
ROOT
HETATM    1  C   UNL     1      -8.934   7.100  70.230  1.00  0.00    -0.152 C  
HETATM    2  C   UNL     1      -8.875   5.884  69.316  1.00  0.00    -0.118 C  
ENDROOT
BRANCH   2   3
HETATM    3  N   UNL     1      -9.027   6.221  67.897  1.00  0.00    -0.115 N  
BRANCH   3   4
HETATM    4  C   UNL     1      -7.870   6.023  67.017  1.00  0.00    -0.102 C  
HETATM    5  C   UNL     1      -6.863   7.157  67.045  1.00  0.00    -0.072 C  
ENDBRANCH   3   4
BRANCH   3   6
HETATM    6  C   UNL     1     -10.317   6.509  67.452  1.00  0.00    -0.208 C  
HETATM    7  O   UNL     1     -11.310   5.988  67.957  1.00  0.00    -0.134 OA 
BRANCH   6   8
HETATM    8  N   UNL     1     -10.384   7.448  66.439  1.00  0.00    -0.474 N  
HETATM    9  H   UNL     1     -10.536   7.132  65.482  1.00  0.00     0.000 HD 
BRANCH   8  10
HETATM   10  C   UNL     1     -10.249   8.826  66.689  1.00  0.00    -0.270 A  
HETATM   11  C   UNL     1      -9.710   9.699  65.747  1.00  0.00    -0.350 A  
HETATM   12  C   UNL     1      -9.654  11.070  66.008  1.00  0.00    -0.249 A  
HETATM   13  C   UNL     1     -10.155  11.599  67.206  1.00  0.00    -0.199 A  
HETATM   14  C   UNL     1     -10.685   9.330  67.915  1.00  0.00    -0.248 A  
HETATM   15  C   UNL     1     -10.668  10.713  68.170  1.00  0.00    -0.267 A  
BRANCH  13  16
HETATM   16  O   UNL     1     -10.217  12.941  67.467  1.00  0.00    -0.211 OA 
BRANCH  16  17
HETATM   17  C   UNL     1      -9.142  13.761  66.981  1.00  0.00    -0.246 C  
BRANCH  17  18
HETATM   18  C   UNL     1      -9.715  14.841  66.054  1.00  0.00    -0.321 C  
HETATM   19  H   UNL     1     -11.438  15.760  65.837  1.00  0.00     0.000 HD 
HETATM   20  O   UNL     1     -11.083  15.091  66.412  1.00  0.00    -0.335 OA 
BRANCH  18  21
HETATM   21  C   UNL     1      -8.945  16.175  66.110  1.00  0.00    -0.337 C  
BRANCH  21  22
HETATM   22  N   UNL     1      -9.713  17.317  65.599  1.00  0.00    -0.529 NA 
HETATM   23  C   UNL     1      -9.695  18.519  66.459  1.00  0.00    -0.343 C  
HETATM   24  H   UNL     1     -10.675  17.036  65.407  1.00  0.00     0.000 HD 
HETATM   25  C   UNL     1     -10.620  19.558  65.795  1.00  0.00    -0.522 C  
HETATM   26  C   UNL     1      -8.286  19.132  66.551  1.00  0.00    -0.324 C  
HETATM   27  C   UNL     1     -10.235  18.222  67.867  1.00  0.00    -0.400 C  
ENDBRANCH  21  22
ENDBRANCH  18  21
ENDBRANCH  17  18
ENDBRANCH  16  17
ENDBRANCH  13  16
BRANCH  15  28
HETATM   28  C   UNL     1     -11.305  11.112  69.462  1.00  0.00    -0.290 C  
HETATM   29  O   UNL     1     -11.893  12.192  69.532  1.00  0.00    -0.306 OA 
HETATM   30  C   UNL     1     -11.286  10.193  70.655  1.00  0.00    -0.433 C  
ENDBRANCH  15  28
ENDBRANCH   8  10
ENDBRANCH   6   8
ENDBRANCH   3   6
ENDBRANCH   2   3
TORSDOF 11
ENDMDL
MODEL      154
REMARK 921   NORMALIZED FREE ENERGY PREDICTED BY IDOCK:   -4.49 KCAL/MOL
REMARK 922        TOTAL FREE ENERGY PREDICTED BY IDOCK:   -8.51 KCAL/MOL
REMARK 923 INTER-LIGAND FREE ENERGY PREDICTED BY IDOCK:   -6.96 KCAL/MOL
REMARK 924 INTRA-LIGAND FREE ENERGY PREDICTED BY IDOCK:   -1.55 KCAL/MOL
REMARK 927      BINDING AFFINITY PREDICTED BY RF-SCORE:    0.00 PKD
ROOT
HETATM    1  C   UNL     1      -9.317   4.016  66.342  1.00  0.00    -0.186 C  
HETATM    2  C   UNL     1     -10.267   5.202  66.442  1.00  0.00    -0.266 C  
ENDROOT
BRANCH   2   3
HETATM    3  N   UNL     1      -9.787   6.252  67.346  1.00  0.00    -0.124 N  
BRANCH   3   4
HETATM    4  C   UNL     1      -9.549   5.894  68.748  1.00  0.00    -0.128 C  
HETATM    5  C   UNL     1     -10.812   5.700  69.566  1.00  0.00    -0.345 C  
ENDBRANCH   3   4
BRANCH   3   6
HETATM    6  C   UNL     1      -9.396   7.456  66.762  1.00  0.00    -0.160 C  
HETATM    7  O   UNL     1      -8.232   7.666  66.422  1.00  0.00    -0.114 OA 
BRANCH   6   8
HETATM    8  N   UNL     1     -10.421   8.363  66.562  1.00  0.00    -0.354 N  
HETATM    9  H   UNL     1     -11.072   8.211  65.793  1.00  0.00     0.000 HD 
BRANCH   8  10
HETATM   10  C   UNL     1     -10.591   9.488  67.388  1.00  0.00    -0.271 A  
HETATM   11  C   UNL     1     -10.501  10.788  66.895  1.00  0.00    -0.304 A  
HETATM   12  C   UNL     1     -10.742  11.879  67.734  1.00  0.00    -0.243 A  
HETATM   13  C   UNL     1     -11.100  11.692  69.076  1.00  0.00    -0.241 A  
HETATM   14  C   UNL     1     -10.875   9.291  68.740  1.00  0.00    -0.123 A  
HETATM   15  C   UNL     1     -11.157  10.381  69.582  1.00  0.00    -0.328 A  
BRANCH  13  16
HETATM   16  O   UNL     1     -11.445  12.720  69.912  1.00  0.00    -0.195 OA 
BRANCH  16  17
HETATM   17  C   UNL     1     -12.274  13.762  69.373  1.00  0.00    -0.278 C  
BRANCH  17  18
HETATM   18  C   UNL     1     -12.155  15.008  70.262  1.00  0.00    -0.329 C  
HETATM   19  H   UNL     1     -11.880  15.368  72.173  1.00  0.00     0.000 HD 
HETATM   20  O   UNL     1     -11.954  14.597  71.622  1.00  0.00    -0.344 OA 
BRANCH  18  21
HETATM   21  C   UNL     1     -10.999  15.944  69.859  1.00  0.00    -0.343 C  
BRANCH  21  22
HETATM   22  N   UNL     1      -9.793  15.231  69.422  1.00  0.00    -0.258 NA 
HETATM   23  C   UNL     1      -9.279  15.625  68.093  1.00  0.00    -0.185 C  
HETATM   24  H   UNL     1      -9.950  14.223  69.453  1.00  0.00     0.000 HD 
HETATM   25  C   UNL     1      -8.078  14.708  67.787  1.00  0.00    -0.160 C  
HETATM   26  C   UNL     1      -8.776  17.080  68.087  1.00  0.00    -0.233 C  
HETATM   27  C   UNL     1     -10.332  15.426  66.991  1.00  0.00    -0.280 C  
ENDBRANCH  21  22
ENDBRANCH  18  21
ENDBRANCH  17  18
ENDBRANCH  16  17
ENDBRANCH  13  16
BRANCH  15  28
HETATM   28  C   UNL     1     -11.590  10.002  70.962  1.00  0.00    -0.393 C  
HETATM   29  O   UNL     1     -12.683  10.394  71.376  1.00  0.00    -0.370 OA 
HETATM   30  C   UNL     1     -10.742   9.108  71.825  1.00  0.00    -0.405 C  
ENDBRANCH  15  28
ENDBRANCH   8  10
ENDBRANCH   6   8
ENDBRANCH   3   6
ENDBRANCH   2   3
TORSDOF 11
ENDMDL
MODEL      155
REMARK 921   NORMALIZED FREE ENERGY PREDICTED BY IDOCK:   -4.49 KCAL/MOL
REMARK 922        TOTAL FREE ENERGY PREDICTED BY IDOCK:   -8.51 KCAL/MOL
REMARK 923 INTER-LIGAND FREE ENERGY PREDICTED BY IDOCK:   -6.73 KCAL/MOL
REMARK 924 INTRA-LIGAND FREE ENERGY PREDICTED BY IDOCK:   -1.78 KCAL/MOL
REMARK 927      BINDING AFFINITY PREDICTED BY RF-SCORE:    0.00 PKD
ROOT
HETATM    1  C   UNL     1     -10.751  14.875  66.546  1.00  0.00    -0.309 C  
HETATM    2  C   UNL     1     -10.093  13.663  65.902  1.00  0.00    -0.310 C  
ENDROOT
BRANCH   2   3
HETATM    3  N   UNL     1     -10.991  12.509  65.792  1.00  0.00    -0.283 N  
BRANCH   3   4
HETATM    4  C   UNL     1     -11.430  12.107  64.451  1.00  0.00    -0.350 C  
HETATM    5  C   UNL     1     -10.471  11.177  63.732  1.00  0.00    -0.444 C  
ENDBRANCH   3   4
BRANCH   3   6
HETATM    6  C   UNL     1     -11.195  11.757  66.948  1.00  0.00    -0.327 C  
HETATM    7  O   UNL     1     -12.259  11.787  67.564  1.00  0.00    -0.526 OA 
BRANCH   6   8
HETATM    8  N   UNL     1     -10.129  10.955  67.312  1.00  0.00    -0.185 N  
HETATM    9  H   UNL     1      -9.197  11.366  67.366  1.00  0.00     0.000 HD 
BRANCH   8  10
HETATM   10  C   UNL     1     -10.291   9.590  67.611  1.00  0.00    -0.244 A  
HETATM   11  C   UNL     1     -10.189   8.602  66.634  1.00  0.00    -0.343 A  
HETATM   12  C   UNL     1     -10.291   7.253  66.982  1.00  0.00    -0.376 A  
HETATM   13  C   UNL     1     -10.474   6.863  68.316  1.00  0.00    -0.206 A  
HETATM   14  C   UNL     1     -10.546   9.218  68.931  1.00  0.00    -0.222 A  
HETATM   15  C   UNL     1     -10.611   7.862  69.296  1.00  0.00    -0.195 A  
BRANCH  13  16
HETATM   16  O   UNL     1     -10.478   5.556  68.723  1.00  0.00    -0.209 OA 
BRANCH  16  17
HETATM   17  C   UNL     1      -9.486   4.683  68.159  1.00  0.00    -0.146 C  
BRANCH  17  18
HETATM   18  C   UNL     1      -8.640   4.087  69.292  1.00  0.00    -0.078 C  
HETATM   19  H   UNL     1      -7.330   4.761  70.591  1.00  0.00     0.000 HD 
HETATM   20  O   UNL     1      -7.854   5.130  69.889  1.00  0.00    -0.072 OA 
BRANCH  18  21
HETATM   21  C   UNL     1      -9.476   3.413  70.397  1.00  0.00    -0.175 C  
BRANCH  21  22
HETATM   22  N   UNL     1     -10.069   4.364  71.345  1.00  0.00    -0.172 NA 
HETATM   23  C   UNL     1     -10.026   3.945  72.762  1.00  0.00    -0.151 C  
HETATM   24  H   UNL     1     -11.028   4.581  71.072  1.00  0.00     0.000 HD 
HETATM   25  C   UNL     1     -10.769   5.026  73.571  1.00  0.00    -0.339 C  
HETATM   26  C   UNL     1      -8.582   3.869  73.289  1.00  0.00    -0.091 C  
HETATM   27  C   UNL     1     -10.739   2.601  72.982  1.00  0.00    -0.231 C  
ENDBRANCH  21  22
ENDBRANCH  18  21
ENDBRANCH  17  18
ENDBRANCH  16  17
ENDBRANCH  13  16
BRANCH  15  28
HETATM   28  C   UNL     1     -10.738   7.622  70.766  1.00  0.00    -0.226 C  
HETATM   29  O   UNL     1      -9.717   7.510  71.446  1.00  0.00    -0.167 OA 
HETATM   30  C   UNL     1     -12.087   7.570  71.433  1.00  0.00    -0.354 C  
ENDBRANCH  15  28
ENDBRANCH   8  10
ENDBRANCH   6   8
ENDBRANCH   3   6
ENDBRANCH   2   3
TORSDOF 11
ENDMDL
MODEL      156
REMARK 921   NORMALIZED FREE ENERGY PREDICTED BY IDOCK:   -4.48 KCAL/MOL
REMARK 922        TOTAL FREE ENERGY PREDICTED BY IDOCK:   -8.50 KCAL/MOL
REMARK 923 INTER-LIGAND FREE ENERGY PREDICTED BY IDOCK:   -7.15 KCAL/MOL
REMARK 924 INTRA-LIGAND FREE ENERGY PREDICTED BY IDOCK:   -1.35 KCAL/MOL
REMARK 927      BINDING AFFINITY PREDICTED BY RF-SCORE:    0.00 PKD
ROOT
HETATM    1  C   UNL     1     -11.962  15.837  69.169  1.00  0.00    -0.312 C  
HETATM    2  C   UNL     1     -11.238  14.533  68.864  1.00  0.00    -0.262 C  
ENDROOT
BRANCH   2   3
HETATM    3  N   UNL     1     -11.516  14.021  67.518  1.00  0.00    -0.324 N  
BRANCH   3   4
HETATM    4  C   UNL     1     -11.187  14.879  66.375  1.00  0.00    -0.331 C  
HETATM    5  C   UNL     1      -9.704  14.970  66.069  1.00  0.00    -0.359 C  
ENDBRANCH   3   4
BRANCH   3   6
HETATM    6  C   UNL     1     -11.880  12.678  67.418  1.00  0.00    -0.328 C  
HETATM    7  O   UNL     1     -12.013  12.120  66.329  1.00  0.00    -0.605 OA 
BRANCH   6   8
HETATM    8  N   UNL     1     -12.035  12.028  68.629  1.00  0.00    -0.299 N  
HETATM    9  H   UNL     1     -12.885  12.186  69.169  1.00  0.00     0.000 HD 
BRANCH   8  10
HETATM   10  C   UNL     1     -11.056  11.155  69.136  1.00  0.00    -0.248 A  
HETATM   11  C   UNL     1      -9.758  11.126  68.630  1.00  0.00    -0.202 A  
HETATM   12  C   UNL     1      -8.796  10.291  69.205  1.00  0.00    -0.182 A  
HETATM   13  C   UNL     1      -9.105   9.488  70.311  1.00  0.00    -0.253 A  
HETATM   14  C   UNL     1     -11.395  10.306  70.189  1.00  0.00    -0.388 A  
HETATM   15  C   UNL     1     -10.424   9.492  70.799  1.00  0.00    -0.384 A  
BRANCH  13  16
HETATM   16  O   UNL     1      -8.176   8.731  70.974  1.00  0.00    -0.130 OA 
BRANCH  16  17
HETATM   17  C   UNL     1      -6.929   8.477  70.305  1.00  0.00    -0.040 C  
BRANCH  17  18
HETATM   18  C   UNL     1      -6.589   6.986  70.429  1.00  0.00    -0.051 C  
HETATM   19  H   UNL     1      -5.975   5.783  71.856  1.00  0.00     0.000 HD 
HETATM   20  O   UNL     1      -6.186   6.707  71.779  1.00  0.00    -0.041 OA 
BRANCH  18  21
HETATM   21  C   UNL     1      -7.761   6.054  70.068  1.00  0.00    -0.100 C  
BRANCH  21  22
HETATM   22  N   UNL     1      -8.690   5.822  71.181  1.00  0.00    -0.134 NA 
HETATM   23  C   UNL     1      -9.924   5.090  70.826  1.00  0.00    -0.221 C  
HETATM   24  H   UNL     1      -8.924   6.706  71.634  1.00  0.00     0.000 HD 
HETATM   25  C   UNL     1     -10.791   5.030  72.099  1.00  0.00    -0.179 C  
HETATM   26  C   UNL     1      -9.622   3.645  70.392  1.00  0.00    -0.254 C  
HETATM   27  C   UNL     1     -10.722   5.815  69.731  1.00  0.00    -0.418 C  
ENDBRANCH  21  22
ENDBRANCH  18  21
ENDBRANCH  17  18
ENDBRANCH  16  17
ENDBRANCH  13  16
BRANCH  15  28
HETATM   28  C   UNL     1     -10.903   8.755  72.008  1.00  0.00    -0.358 C  
HETATM   29  O   UNL     1     -10.076   8.286  72.792  1.00  0.00    -0.294 OA 
HETATM   30  C   UNL     1     -12.373   8.627  72.309  1.00  0.00    -0.449 C  
ENDBRANCH  15  28
ENDBRANCH   8  10
ENDBRANCH   6   8
ENDBRANCH   3   6
ENDBRANCH   2   3
TORSDOF 11
ENDMDL
MODEL      157
REMARK 921   NORMALIZED FREE ENERGY PREDICTED BY IDOCK:   -4.48 KCAL/MOL
REMARK 922        TOTAL FREE ENERGY PREDICTED BY IDOCK:   -8.50 KCAL/MOL
REMARK 923 INTER-LIGAND FREE ENERGY PREDICTED BY IDOCK:   -8.07 KCAL/MOL
REMARK 924 INTRA-LIGAND FREE ENERGY PREDICTED BY IDOCK:   -0.42 KCAL/MOL
REMARK 927      BINDING AFFINITY PREDICTED BY RF-SCORE:    0.00 PKD
ROOT
HETATM    1  C   UNL     1      -6.682  15.638  68.520  1.00  0.00    -0.114 C  
HETATM    2  C   UNL     1      -7.482  16.835  69.016  1.00  0.00    -0.228 C  
ENDROOT
BRANCH   2   3
HETATM    3  N   UNL     1      -7.409  17.990  68.115  1.00  0.00    -0.241 N  
BRANCH   3   4
HETATM    4  C   UNL     1      -6.470  19.065  68.454  1.00  0.00    -0.234 C  
HETATM    5  C   UNL     1      -5.924  18.996  69.868  1.00  0.00    -0.271 C  
ENDBRANCH   3   4
BRANCH   3   6
HETATM    6  C   UNL     1      -8.084  17.886  66.900  1.00  0.00    -0.229 C  
HETATM    7  O   UNL     1      -7.486  17.835  65.826  1.00  0.00    -0.526 OA 
BRANCH   6   8
HETATM    8  N   UNL     1      -9.461  17.805  67.007  1.00  0.00    -0.263 N  
HETATM    9  H   UNL     1      -9.981  18.626  67.316  1.00  0.00     0.000 HD 
BRANCH   8  10
HETATM   10  C   UNL     1     -10.163  16.625  66.703  1.00  0.00    -0.303 A  
HETATM   11  C   UNL     1     -10.330  16.181  65.394  1.00  0.00    -0.356 A  
HETATM   12  C   UNL     1     -10.977  14.969  65.137  1.00  0.00    -0.417 A  
HETATM   13  C   UNL     1     -11.451  14.168  66.185  1.00  0.00    -0.347 A  
HETATM   14  C   UNL     1     -10.694  15.873  67.751  1.00  0.00    -0.320 A  
HETATM   15  C   UNL     1     -11.312  14.634  67.505  1.00  0.00    -0.361 A  
BRANCH  13  16
HETATM   16  O   UNL     1     -11.999  12.928  65.994  1.00  0.00    -0.410 OA 
BRANCH  16  17
HETATM   17  C   UNL     1     -13.003  12.797  64.975  1.00  0.00    -0.040 C  
BRANCH  17  18
HETATM   18  C   UNL     1     -12.335  12.352  63.667  1.00  0.00    -0.548 C  
HETATM   19  H   UNL     1     -12.005  13.143  61.900  1.00  0.00     0.000 HD 
HETATM   20  O   UNL     1     -12.419  13.418  62.710  1.00  0.00    -0.390 OA 
BRANCH  18  21
HETATM   21  C   UNL     1     -10.854  11.962  63.834  1.00  0.00    -0.395 C  
BRANCH  21  22
HETATM   22  N   UNL     1     -10.661  10.621  64.398  1.00  0.00    -0.325 NA 
HETATM   23  C   UNL     1      -9.292  10.332  64.876  1.00  0.00    -0.252 C  
HETATM   24  H   UNL     1     -10.956   9.911  63.727  1.00  0.00     0.000 HD 
HETATM   25  C   UNL     1      -9.280   8.863  65.342  1.00  0.00    -0.202 C  
HETATM   26  C   UNL     1      -8.913  11.213  66.080  1.00  0.00    -0.210 C  
HETATM   27  C   UNL     1      -8.251  10.492  63.756  1.00  0.00    -0.068 C  
ENDBRANCH  21  22
ENDBRANCH  18  21
ENDBRANCH  17  18
ENDBRANCH  16  17
ENDBRANCH  13  16
BRANCH  15  28
HETATM   28  C   UNL     1     -11.694  13.877  68.736  1.00  0.00    -0.357 C  
HETATM   29  O   UNL     1     -12.200  14.484  69.681  1.00  0.00    -0.316 OA 
HETATM   30  C   UNL     1     -11.520  12.384  68.816  1.00  0.00    -0.350 C  
ENDBRANCH  15  28
ENDBRANCH   8  10
ENDBRANCH   6   8
ENDBRANCH   3   6
ENDBRANCH   2   3
TORSDOF 11
ENDMDL
MODEL      158
REMARK 921   NORMALIZED FREE ENERGY PREDICTED BY IDOCK:   -4.46 KCAL/MOL
REMARK 922        TOTAL FREE ENERGY PREDICTED BY IDOCK:   -8.45 KCAL/MOL
REMARK 923 INTER-LIGAND FREE ENERGY PREDICTED BY IDOCK:   -6.98 KCAL/MOL
REMARK 924 INTRA-LIGAND FREE ENERGY PREDICTED BY IDOCK:   -1.47 KCAL/MOL
REMARK 927      BINDING AFFINITY PREDICTED BY RF-SCORE:    0.00 PKD
ROOT
HETATM    1  C   UNL     1     -10.483   7.508  67.681  1.00  0.00    -0.319 C  
HETATM    2  C   UNL     1      -8.980   7.266  67.674  1.00  0.00    -0.126 C  
ENDROOT
BRANCH   2   3
HETATM    3  N   UNL     1      -8.228   8.287  68.411  1.00  0.00    -0.130 N  
BRANCH   3   4
HETATM    4  C   UNL     1      -7.907   8.021  69.817  1.00  0.00    -0.106 C  
HETATM    5  C   UNL     1      -8.949   8.520  70.801  1.00  0.00    -0.193 C  
ENDBRANCH   3   4
BRANCH   3   6
HETATM    6  C   UNL     1      -7.697   9.339  67.665  1.00  0.00    -0.092 C  
HETATM    7  O   UNL     1      -7.434   9.220  66.469  1.00  0.00    -0.091 OA 
BRANCH   6   8
HETATM    8  N   UNL     1      -7.533  10.520  68.365  1.00  0.00    -0.088 N  
HETATM    9  H   UNL     1      -6.846  10.558  69.117  1.00  0.00     0.000 HD 
BRANCH   8  10
HETATM   10  C   UNL     1      -8.286  11.671  68.071  1.00  0.00    -0.148 A  
HETATM   11  C   UNL     1      -7.805  12.674  67.232  1.00  0.00    -0.155 A  
HETATM   12  C   UNL     1      -8.610  13.771  66.912  1.00  0.00    -0.128 A  
HETATM   13  C   UNL     1      -9.918  13.875  67.404  1.00  0.00    -0.240 A  
HETATM   14  C   UNL     1      -9.559  11.799  68.626  1.00  0.00    -0.122 A  
HETATM   15  C   UNL     1     -10.390  12.879  68.278  1.00  0.00    -0.248 A  
BRANCH  13  16
HETATM   16  O   UNL     1     -10.781  14.874  67.040  1.00  0.00    -0.294 OA 
BRANCH  16  17
HETATM   17  C   UNL     1     -11.411  14.769  65.753  1.00  0.00    -0.336 C  
BRANCH  17  18
HETATM   18  C   UNL     1     -10.966  15.949  64.879  1.00  0.00    -0.411 C  
HETATM   19  H   UNL     1     -11.652  16.879  63.291  1.00  0.00     0.000 HD 
HETATM   20  O   UNL     1     -11.928  16.148  63.832  1.00  0.00    -0.947 OA 
BRANCH  18  21
HETATM   21  C   UNL     1     -10.813  17.270  65.658  1.00  0.00    -0.029 C  
BRANCH  21  22
HETATM   22  N   UNL     1      -9.418  17.613  65.962  1.00  0.00    -0.518 NA 
HETATM   23  C   UNL     1      -9.234  18.539  67.099  1.00  0.00    -0.277 C  
HETATM   24  H   UNL     1      -8.957  17.982  65.130  1.00  0.00     0.000 HD 
HETATM   25  C   UNL     1      -7.725  18.838  67.194  1.00  0.00    -0.241 C  
HETATM   26  C   UNL     1      -9.674  17.902  68.429  1.00  0.00    -0.340 C  
HETATM   27  C   UNL     1      -9.976  19.868  66.879  1.00  0.00    -0.563 C  
ENDBRANCH  21  22
ENDBRANCH  18  21
ENDBRANCH  17  18
ENDBRANCH  16  17
ENDBRANCH  13  16
BRANCH  15  28
HETATM   28  C   UNL     1     -11.776  12.799  68.833  1.00  0.00    -0.326 C  
HETATM   29  O   UNL     1     -12.497  11.853  68.510  1.00  0.00    -0.146 OA 
HETATM   30  C   UNL     1     -12.280  13.819  69.818  1.00  0.00    -0.368 C  
ENDBRANCH  15  28
ENDBRANCH   8  10
ENDBRANCH   6   8
ENDBRANCH   3   6
ENDBRANCH   2   3
TORSDOF 11
ENDMDL
MODEL      159
REMARK 921   NORMALIZED FREE ENERGY PREDICTED BY IDOCK:   -4.45 KCAL/MOL
REMARK 922        TOTAL FREE ENERGY PREDICTED BY IDOCK:   -8.45 KCAL/MOL
REMARK 923 INTER-LIGAND FREE ENERGY PREDICTED BY IDOCK:   -6.71 KCAL/MOL
REMARK 924 INTRA-LIGAND FREE ENERGY PREDICTED BY IDOCK:   -1.74 KCAL/MOL
REMARK 927      BINDING AFFINITY PREDICTED BY RF-SCORE:    0.00 PKD
ROOT
HETATM    1  C   UNL     1     -11.121   8.704  69.901  1.00  0.00    -0.119 C  
HETATM    2  C   UNL     1     -10.519   7.614  69.024  1.00  0.00    -0.205 C  
ENDROOT
BRANCH   2   3
HETATM    3  N   UNL     1      -9.155   7.919  68.580  1.00  0.00    -0.133 N  
BRANCH   3   4
HETATM    4  C   UNL     1      -8.094   6.965  68.920  1.00  0.00    -0.120 C  
HETATM    5  C   UNL     1      -8.415   6.068  70.101  1.00  0.00    -0.127 C  
ENDBRANCH   3   4
BRANCH   3   6
HETATM    6  C   UNL     1      -9.004   8.985  67.693  1.00  0.00    -0.123 C  
HETATM    7  O   UNL     1      -9.639   9.050  66.641  1.00  0.00    -0.177 OA 
BRANCH   6   8
HETATM    8  N   UNL     1      -8.124   9.966  68.111  1.00  0.00    -0.104 N  
HETATM    9  H   UNL     1      -7.222   9.688  68.499  1.00  0.00     0.000 HD 
BRANCH   8  10
HETATM   10  C   UNL     1      -8.434  11.334  68.018  1.00  0.00    -0.138 A  
HETATM   11  C   UNL     1      -7.656  12.220  67.276  1.00  0.00    -0.152 A  
HETATM   12  C   UNL     1      -8.035  13.560  67.154  1.00  0.00    -0.058 A  
HETATM   13  C   UNL     1      -9.210  14.035  67.751  1.00  0.00    -0.195 A  
HETATM   14  C   UNL     1      -9.567  11.811  68.677  1.00  0.00    -0.122 A  
HETATM   15  C   UNL     1      -9.977  13.148  68.528  1.00  0.00    -0.182 A  
BRANCH  13  16
HETATM   16  O   UNL     1      -9.679  15.309  67.578  1.00  0.00    -0.205 OA 
BRANCH  16  17
HETATM   17  C   UNL     1      -9.396  15.955  66.326  1.00  0.00    -0.322 C  
BRANCH  17  18
HETATM   18  C   UNL     1     -10.715  16.404  65.684  1.00  0.00    -0.270 C  
HETATM   19  H   UNL     1     -11.383  18.021  64.791  1.00  0.00     0.000 HD 
HETATM   20  O   UNL     1     -10.566  17.743  65.189  1.00  0.00    -0.610 OA 
BRANCH  18  21
HETATM   21  C   UNL     1     -11.171  15.503  64.520  1.00  0.00    -0.315 C  
BRANCH  21  22
HETATM   22  N   UNL     1     -10.462  14.219  64.460  1.00  0.00    -0.568 NA 
HETATM   23  C   UNL     1     -11.329  13.022  64.476  1.00  0.00    -0.339 C  
HETATM   24  H   UNL     1      -9.771  14.163  65.209  1.00  0.00     0.000 HD 
HETATM   25  C   UNL     1     -10.398  11.794  64.496  1.00  0.00    -0.340 C  
HETATM   26  C   UNL     1     -12.201  12.933  63.211  1.00  0.00    -0.481 C  
HETATM   27  C   UNL     1     -12.215  12.977  65.732  1.00  0.00    -0.511 C  
ENDBRANCH  21  22
ENDBRANCH  18  21
ENDBRANCH  17  18
ENDBRANCH  16  17
ENDBRANCH  13  16
BRANCH  15  28
HETATM   28  C   UNL     1     -11.288  13.469  69.170  1.00  0.00    -0.282 C  
HETATM   29  O   UNL     1     -12.205  12.648  69.105  1.00  0.00    -0.191 OA 
HETATM   30  C   UNL     1     -11.486  14.749  69.938  1.00  0.00    -0.322 C  
ENDBRANCH  15  28
ENDBRANCH   8  10
ENDBRANCH   6   8
ENDBRANCH   3   6
ENDBRANCH   2   3
TORSDOF 11
ENDMDL
MODEL      160
REMARK 921   NORMALIZED FREE ENERGY PREDICTED BY IDOCK:   -4.45 KCAL/MOL
REMARK 922        TOTAL FREE ENERGY PREDICTED BY IDOCK:   -8.44 KCAL/MOL
REMARK 923 INTER-LIGAND FREE ENERGY PREDICTED BY IDOCK:   -7.46 KCAL/MOL
REMARK 924 INTRA-LIGAND FREE ENERGY PREDICTED BY IDOCK:   -0.98 KCAL/MOL
REMARK 927      BINDING AFFINITY PREDICTED BY RF-SCORE:    0.00 PKD
ROOT
HETATM    1  C   UNL     1      -7.984   3.199  69.029  1.00  0.00    -0.061 C  
HETATM    2  C   UNL     1      -9.494   3.387  69.054  1.00  0.00    -0.132 C  
ENDROOT
BRANCH   2   3
HETATM    3  N   UNL     1      -9.899   4.782  69.257  1.00  0.00    -0.197 N  
BRANCH   3   4
HETATM    4  C   UNL     1     -10.020   5.268  70.635  1.00  0.00    -0.218 C  
HETATM    5  C   UNL     1     -11.270   6.086  70.901  1.00  0.00    -0.335 C  
ENDBRANCH   3   4
BRANCH   3   6
HETATM    6  C   UNL     1      -9.937   5.598  68.126  1.00  0.00    -0.147 C  
HETATM    7  O   UNL     1     -10.682   5.358  67.177  1.00  0.00    -0.235 OA 
BRANCH   6   8
HETATM    8  N   UNL     1      -9.109   6.704  68.181  1.00  0.00    -0.120 N  
HETATM    9  H   UNL     1      -8.176   6.603  68.582  1.00  0.00     0.000 HD 
BRANCH   8  10
HETATM   10  C   UNL     1      -9.514   7.963  67.703  1.00  0.00    -0.144 A  
HETATM   11  C   UNL     1      -9.357   8.332  66.369  1.00  0.00    -0.274 A  
HETATM   12  C   UNL     1      -9.832   9.566  65.918  1.00  0.00    -0.360 A  
HETATM   13  C   UNL     1     -10.494  10.445  66.786  1.00  0.00    -0.225 A  
HETATM   14  C   UNL     1     -10.105   8.859  68.592  1.00  0.00    -0.206 A  
HETATM   15  C   UNL     1     -10.621  10.087  68.140  1.00  0.00    -0.268 A  
BRANCH  13  16
HETATM   16  O   UNL     1     -11.068  11.618  66.374  1.00  0.00    -0.290 OA 
BRANCH  16  17
HETATM   17  C   UNL     1     -10.978  11.945  64.977  1.00  0.00    -0.312 C  
BRANCH  17  18
HETATM   18  C   UNL     1     -11.972  13.070  64.661  1.00  0.00    -0.392 C  
HETATM   19  H   UNL     1     -13.883  13.196  64.222  1.00  0.00     0.000 HD 
HETATM   20  O   UNL     1     -13.267  12.499  64.418  1.00  0.00    -0.782 OA 
BRANCH  18  21
HETATM   21  C   UNL     1     -12.103  14.112  65.789  1.00  0.00    -0.420 C  
BRANCH  21  22
HETATM   22  N   UNL     1     -11.331  15.337  65.548  1.00  0.00    -0.273 NA 
HETATM   23  C   UNL     1     -10.374  15.695  66.616  1.00  0.00    -0.289 C  
HETATM   24  H   UNL     1     -11.961  16.119  65.363  1.00  0.00     0.000 HD 
HETATM   25  C   UNL     1      -9.739  17.041  66.215  1.00  0.00    -0.302 C  
HETATM   26  C   UNL     1      -9.244  14.658  66.738  1.00  0.00    -0.285 C  
HETATM   27  C   UNL     1     -11.074  15.876  67.972  1.00  0.00    -0.334 C  
ENDBRANCH  21  22
ENDBRANCH  18  21
ENDBRANCH  17  18
ENDBRANCH  16  17
ENDBRANCH  13  16
BRANCH  15  28
HETATM   28  C   UNL     1     -11.358  10.870  69.178  1.00  0.00    -0.283 C  
HETATM   29  O   UNL     1     -11.977  10.267  70.057  1.00  0.00    -0.250 OA 
HETATM   30  C   UNL     1     -11.308  12.374  69.199  1.00  0.00    -0.327 C  
ENDBRANCH  15  28
ENDBRANCH   8  10
ENDBRANCH   6   8
ENDBRANCH   3   6
ENDBRANCH   2   3
TORSDOF 11
ENDMDL
MODEL      161
REMARK 921   NORMALIZED FREE ENERGY PREDICTED BY IDOCK:   -4.43 KCAL/MOL
REMARK 922        TOTAL FREE ENERGY PREDICTED BY IDOCK:   -8.41 KCAL/MOL
REMARK 923 INTER-LIGAND FREE ENERGY PREDICTED BY IDOCK:   -7.76 KCAL/MOL
REMARK 924 INTRA-LIGAND FREE ENERGY PREDICTED BY IDOCK:   -0.65 KCAL/MOL
REMARK 927      BINDING AFFINITY PREDICTED BY RF-SCORE:    0.00 PKD
ROOT
HETATM    1  C   UNL     1      -9.546   4.408  69.374  1.00  0.00    -0.269 C  
HETATM    2  C   UNL     1     -10.597   5.361  69.924  1.00  0.00    -0.281 C  
ENDROOT
BRANCH   2   3
HETATM    3  N   UNL     1     -10.031   6.421  70.766  1.00  0.00    -0.184 N  
BRANCH   3   4
HETATM    4  C   UNL     1     -10.137   6.271  72.222  1.00  0.00    -0.177 C  
HETATM    5  C   UNL     1     -11.115   7.227  72.878  1.00  0.00    -0.369 C  
ENDBRANCH   3   4
BRANCH   3   6
HETATM    6  C   UNL     1      -9.255   7.387  70.127  1.00  0.00    -0.151 C  
HETATM    7  O   UNL     1      -8.133   7.691  70.529  1.00  0.00    -0.102 OA 
BRANCH   6   8
HETATM    8  N   UNL     1      -9.830   7.936  68.995  1.00  0.00    -0.167 N  
HETATM    9  H   UNL     1      -9.898   7.368  68.151  1.00  0.00     0.000 HD 
BRANCH   8  10
HETATM   10  C   UNL     1     -10.323   9.253  68.973  1.00  0.00    -0.214 A  
HETATM   11  C   UNL     1     -10.109  10.104  67.891  1.00  0.00    -0.207 A  
HETATM   12  C   UNL     1     -10.671  11.383  67.879  1.00  0.00    -0.242 A  
HETATM   13  C   UNL     1     -11.475  11.829  68.936  1.00  0.00    -0.297 A  
HETATM   14  C   UNL     1     -11.060   9.710  70.064  1.00  0.00    -0.293 A  
HETATM   15  C   UNL     1     -11.662  10.982  70.043  1.00  0.00    -0.437 A  
BRANCH  13  16
HETATM   16  O   UNL     1     -12.131  13.031  68.927  1.00  0.00    -0.286 OA 
BRANCH  16  17
HETATM   17  C   UNL     1     -11.357  14.210  69.200  1.00  0.00    -0.279 C  
BRANCH  17  18
HETATM   18  C   UNL     1     -11.134  14.977  67.890  1.00  0.00    -0.307 C  
HETATM   19  H   UNL     1     -11.942  14.996  66.100  1.00  0.00     0.000 HD 
HETATM   20  O   UNL     1     -12.080  14.521  66.911  1.00  0.00    -0.399 OA 
BRANCH  18  21
HETATM   21  C   UNL     1     -11.282  16.504  68.037  1.00  0.00    -0.202 C  
BRANCH  21  22
HETATM   22  N   UNL     1     -10.422  17.267  67.124  1.00  0.00    -0.319 NA 
HETATM   23  C   UNL     1      -9.396  18.104  67.782  1.00  0.00    -0.267 C  
HETATM   24  H   UNL     1     -10.992  17.836  66.498  1.00  0.00     0.000 HD 
HETATM   25  C   UNL     1      -8.669  18.880  66.667  1.00  0.00    -0.315 C  
HETATM   26  C   UNL     1      -8.352  17.248  68.521  1.00  0.00    -0.267 C  
HETATM   27  C   UNL     1     -10.024  19.121  68.749  1.00  0.00    -0.493 C  
ENDBRANCH  21  22
ENDBRANCH  18  21
ENDBRANCH  17  18
ENDBRANCH  16  17
ENDBRANCH  13  16
BRANCH  15  28
HETATM   28  C   UNL     1     -12.543  11.269  71.216  1.00  0.00    -0.382 C  
HETATM   29  O   UNL     1     -12.748  12.440  71.540  1.00  0.00    -0.323 OA 
HETATM   30  C   UNL     1     -13.225  10.157  71.968  1.00  0.00    -0.534 C  
ENDBRANCH  15  28
ENDBRANCH   8  10
ENDBRANCH   6   8
ENDBRANCH   3   6
ENDBRANCH   2   3
TORSDOF 11
ENDMDL
MODEL      162
REMARK 921   NORMALIZED FREE ENERGY PREDICTED BY IDOCK:   -4.43 KCAL/MOL
REMARK 922        TOTAL FREE ENERGY PREDICTED BY IDOCK:   -8.41 KCAL/MOL
REMARK 923 INTER-LIGAND FREE ENERGY PREDICTED BY IDOCK:   -7.40 KCAL/MOL
REMARK 924 INTRA-LIGAND FREE ENERGY PREDICTED BY IDOCK:   -1.00 KCAL/MOL
REMARK 927      BINDING AFFINITY PREDICTED BY RF-SCORE:    0.00 PKD
ROOT
HETATM    1  C   UNL     1     -10.225   5.216  69.740  1.00  0.00    -0.357 C  
HETATM    2  C   UNL     1     -11.119   6.417  69.465  1.00  0.00    -0.396 C  
ENDROOT
BRANCH   2   3
HETATM    3  N   UNL     1     -10.368   7.629  69.122  1.00  0.00    -0.211 N  
BRANCH   3   4
HETATM    4  C   UNL     1      -9.493   8.207  70.148  1.00  0.00    -0.167 C  
HETATM    5  C   UNL     1     -10.221   9.009  71.211  1.00  0.00    -0.384 C  
ENDBRANCH   3   4
BRANCH   3   6
HETATM    6  C   UNL     1     -10.384   8.023  67.784  1.00  0.00    -0.231 C  
HETATM    7  O   UNL     1      -9.759   7.411  66.919  1.00  0.00    -0.178 OA 
BRANCH   6   8
HETATM    8  N   UNL     1     -11.182   9.118  67.512  1.00  0.00    -0.293 N  
HETATM    9  H   UNL     1     -12.150   8.966  67.230  1.00  0.00     0.000 HD 
BRANCH   8  10
HETATM   10  C   UNL     1     -10.700  10.436  67.613  1.00  0.00    -0.286 A  
HETATM   11  C   UNL     1      -9.575  10.866  66.913  1.00  0.00    -0.203 A  
HETATM   12  C   UNL     1      -9.165  12.200  66.989  1.00  0.00    -0.202 A  
HETATM   13  C   UNL     1      -9.885  13.135  67.745  1.00  0.00    -0.228 A  
HETATM   14  C   UNL     1     -11.383  11.339  68.427  1.00  0.00    -0.348 A  
HETATM   15  C   UNL     1     -11.001  12.692  68.478  1.00  0.00    -0.292 A  
BRANCH  13  16
HETATM   16  O   UNL     1      -9.588  14.471  67.770  1.00  0.00    -0.209 OA 
BRANCH  16  17
HETATM   17  C   UNL     1      -8.763  14.986  66.712  1.00  0.00    -0.260 C  
BRANCH  17  18
HETATM   18  C   UNL     1      -7.586  15.758  67.324  1.00  0.00    -0.210 C  
HETATM   19  H   UNL     1      -5.669  15.435  67.605  1.00  0.00     0.000 HD 
HETATM   20  O   UNL     1      -6.398  14.957  67.226  1.00  0.00    -0.310 OA 
BRANCH  18  21
HETATM   21  C   UNL     1      -7.318  17.114  66.643  1.00  0.00    -0.250 C  
BRANCH  21  22
HETATM   22  N   UNL     1      -6.712  18.108  67.537  1.00  0.00    -0.189 NA 
HETATM   23  C   UNL     1      -7.506  19.339  67.735  1.00  0.00    -0.257 C  
HETATM   24  H   UNL     1      -5.773  18.344  67.216  1.00  0.00     0.000 HD 
HETATM   25  C   UNL     1      -6.665  20.277  68.623  1.00  0.00    -0.294 C  
HETATM   26  C   UNL     1      -8.827  19.052  68.471  1.00  0.00    -0.398 C  
HETATM   27  C   UNL     1      -7.788  20.057  66.405  1.00  0.00    -0.326 C  
ENDBRANCH  21  22
ENDBRANCH  18  21
ENDBRANCH  17  18
ENDBRANCH  16  17
ENDBRANCH  13  16
BRANCH  15  28
HETATM   28  C   UNL     1     -11.918  13.565  69.273  1.00  0.00    -0.330 C  
HETATM   29  O   UNL     1     -12.392  14.574  68.747  1.00  0.00    -0.189 OA 
HETATM   30  C   UNL     1     -12.314  13.201  70.679  1.00  0.00    -0.405 C  
ENDBRANCH  15  28
ENDBRANCH   8  10
ENDBRANCH   6   8
ENDBRANCH   3   6
ENDBRANCH   2   3
TORSDOF 11
ENDMDL
MODEL      163
REMARK 921   NORMALIZED FREE ENERGY PREDICTED BY IDOCK:   -4.43 KCAL/MOL
REMARK 922        TOTAL FREE ENERGY PREDICTED BY IDOCK:   -8.40 KCAL/MOL
REMARK 923 INTER-LIGAND FREE ENERGY PREDICTED BY IDOCK:   -7.28 KCAL/MOL
REMARK 924 INTRA-LIGAND FREE ENERGY PREDICTED BY IDOCK:   -1.12 KCAL/MOL
REMARK 927      BINDING AFFINITY PREDICTED BY RF-SCORE:    0.00 PKD
ROOT
HETATM    1  C   UNL     1     -10.580  18.094  67.255  1.00  0.00    -0.384 C  
HETATM    2  C   UNL     1      -9.914  16.753  66.980  1.00  0.00    -0.269 C  
ENDROOT
BRANCH   2   3
HETATM    3  N   UNL     1     -10.368  15.688  67.880  1.00  0.00    -0.254 N  
BRANCH   3   4
HETATM    4  C   UNL     1      -9.898  15.717  69.269  1.00  0.00    -0.269 C  
HETATM    5  C   UNL     1      -8.423  15.400  69.436  1.00  0.00    -0.253 C  
ENDBRANCH   3   4
BRANCH   3   6
HETATM    6  C   UNL     1     -11.374  14.847  67.405  1.00  0.00    -0.347 C  
HETATM    7  O   UNL     1     -11.500  14.597  66.207  1.00  0.00    -0.355 OA 
BRANCH   6   8
HETATM    8  N   UNL     1     -12.179  14.295  68.385  1.00  0.00    -0.595 N  
HETATM    9  H   UNL     1     -13.018  14.796  68.675  1.00  0.00     0.000 HD 
BRANCH   8  10
HETATM   10  C   UNL     1     -11.874  13.064  68.993  1.00  0.00    -0.316 A  
HETATM   11  C   UNL     1     -12.404  12.699  70.228  1.00  0.00    -0.269 A  
HETATM   12  C   UNL     1     -12.129  11.440  70.769  1.00  0.00    -0.433 A  
HETATM   13  C   UNL     1     -11.339  10.513  70.075  1.00  0.00    -0.318 A  
HETATM   14  C   UNL     1     -11.027  12.179  68.326  1.00  0.00    -0.273 A  
HETATM   15  C   UNL     1     -10.777  10.895  68.844  1.00  0.00    -0.252 A  
BRANCH  13  16
HETATM   16  O   UNL     1     -11.125   9.233  70.511  1.00  0.00    -0.240 OA 
BRANCH  16  17
HETATM   17  C   UNL     1     -11.348   8.961  71.904  1.00  0.00    -0.376 C  
BRANCH  17  18
HETATM   18  C   UNL     1     -11.548   7.452  72.095  1.00  0.00    -0.293 C  
HETATM   19  H   UNL     1     -12.243   5.963  71.017  1.00  0.00     0.000 HD 
HETATM   20  O   UNL     1     -12.120   6.899  70.900  1.00  0.00    -0.366 OA 
BRANCH  18  21
HETATM   21  C   UNL     1     -10.244   6.692  72.407  1.00  0.00    -0.180 C  
BRANCH  21  22
HETATM   22  N   UNL     1      -9.034   7.400  71.971  1.00  0.00    -0.124 NA 
HETATM   23  C   UNL     1      -7.889   7.318  72.902  1.00  0.00    -0.094 C  
HETATM   24  H   UNL     1      -9.252   8.376  71.767  1.00  0.00     0.000 HD 
HETATM   25  C   UNL     1      -6.765   8.190  72.309  1.00  0.00    -0.081 C  
HETATM   26  C   UNL     1      -7.357   5.879  73.023  1.00  0.00    -0.094 C  
HETATM   27  C   UNL     1      -8.244   7.868  74.293  1.00  0.00    -0.303 C  
ENDBRANCH  21  22
ENDBRANCH  18  21
ENDBRANCH  17  18
ENDBRANCH  16  17
ENDBRANCH  13  16
BRANCH  15  28
HETATM   28  C   UNL     1      -9.976  10.010  67.944  1.00  0.00    -0.154 C  
HETATM   29  O   UNL     1      -8.747  10.101  67.953  1.00  0.00    -0.121 OA 
HETATM   30  C   UNL     1     -10.642   8.977  67.075  1.00  0.00    -0.270 C  
ENDBRANCH  15  28
ENDBRANCH   8  10
ENDBRANCH   6   8
ENDBRANCH   3   6
ENDBRANCH   2   3
TORSDOF 11
ENDMDL
MODEL      164
REMARK 921   NORMALIZED FREE ENERGY PREDICTED BY IDOCK:   -4.42 KCAL/MOL
REMARK 922        TOTAL FREE ENERGY PREDICTED BY IDOCK:   -8.39 KCAL/MOL
REMARK 923 INTER-LIGAND FREE ENERGY PREDICTED BY IDOCK:   -7.93 KCAL/MOL
REMARK 924 INTRA-LIGAND FREE ENERGY PREDICTED BY IDOCK:   -0.46 KCAL/MOL
REMARK 927      BINDING AFFINITY PREDICTED BY RF-SCORE:    0.00 PKD
ROOT
HETATM    1  C   UNL     1      -7.779   5.591  70.199  1.00  0.00    -0.085 C  
HETATM    2  C   UNL     1      -7.988   6.672  71.250  1.00  0.00    -0.107 C  
ENDROOT
BRANCH   2   3
HETATM    3  N   UNL     1      -9.374   7.148  71.321  1.00  0.00    -0.156 N  
BRANCH   3   4
HETATM    4  C   UNL     1     -10.374   6.259  71.922  1.00  0.00    -0.204 C  
HETATM    5  C   UNL     1     -10.582   6.470  73.410  1.00  0.00    -0.309 C  
ENDBRANCH   3   4
BRANCH   3   6
HETATM    6  C   UNL     1      -9.598   8.486  71.000  1.00  0.00    -0.192 C  
HETATM    7  O   UNL     1      -8.717   9.338  71.110  1.00  0.00    -0.269 OA 
BRANCH   6   8
HETATM    8  N   UNL     1     -10.864   8.761  70.515  1.00  0.00    -0.227 N  
HETATM    9  H   UNL     1     -11.622   8.111  70.718  1.00  0.00     0.000 HD 
BRANCH   8  10
HETATM   10  C   UNL     1     -11.135   9.911  69.751  1.00  0.00    -0.254 A  
HETATM   11  C   UNL     1     -11.657  11.070  70.321  1.00  0.00    -0.414 A  
HETATM   12  C   UNL     1     -11.851  12.213  69.540  1.00  0.00    -0.386 A  
HETATM   13  C   UNL     1     -11.507  12.227  68.182  1.00  0.00    -0.316 A  
HETATM   14  C   UNL     1     -10.857   9.889  68.385  1.00  0.00    -0.263 A  
HETATM   15  C   UNL     1     -11.012  11.046  67.601  1.00  0.00    -0.332 A  
BRANCH  13  16
HETATM   16  O   UNL     1     -11.581  13.348  67.399  1.00  0.00    -0.314 OA 
BRANCH  16  17
HETATM   17  C   UNL     1     -11.734  14.612  68.065  1.00  0.00    -0.342 C  
BRANCH  17  18
HETATM   18  C   UNL     1     -10.611  15.555  67.614  1.00  0.00    -0.291 C  
HETATM   19  H   UNL     1      -9.874  16.170  65.900  1.00  0.00     0.000 HD 
HETATM   20  O   UNL     1     -10.570  15.585  66.179  1.00  0.00    -0.298 OA 
BRANCH  18  21
HETATM   21  C   UNL     1     -10.776  16.999  68.127  1.00  0.00    -0.374 C  
BRANCH  21  22
HETATM   22  N   UNL     1     -10.593  18.016  67.085  1.00  0.00    -0.358 NA 
HETATM   23  C   UNL     1      -9.579  19.049  67.388  1.00  0.00    -0.306 C  
HETATM   24  H   UNL     1     -11.486  18.455  66.861  1.00  0.00     0.000 HD 
HETATM   25  C   UNL     1      -9.605  20.057  66.222  1.00  0.00    -0.516 C  
HETATM   26  C   UNL     1      -8.163  18.451  67.465  1.00  0.00    -0.255 C  
HETATM   27  C   UNL     1      -9.905  19.804  68.687  1.00  0.00    -0.491 C  
ENDBRANCH  21  22
ENDBRANCH  18  21
ENDBRANCH  17  18
ENDBRANCH  16  17
ENDBRANCH  13  16
BRANCH  15  28
HETATM   28  C   UNL     1     -10.531  10.908  66.192  1.00  0.00    -0.229 C  
HETATM   29  O   UNL     1     -10.684  11.849  65.411  1.00  0.00    -0.267 OA 
HETATM   30  C   UNL     1      -9.816   9.666  65.732  1.00  0.00    -0.373 C  
ENDBRANCH  15  28
ENDBRANCH   8  10
ENDBRANCH   6   8
ENDBRANCH   3   6
ENDBRANCH   2   3
TORSDOF 11
ENDMDL
MODEL      165
REMARK 921   NORMALIZED FREE ENERGY PREDICTED BY IDOCK:   -4.41 KCAL/MOL
REMARK 922        TOTAL FREE ENERGY PREDICTED BY IDOCK:   -8.39 KCAL/MOL
REMARK 923 INTER-LIGAND FREE ENERGY PREDICTED BY IDOCK:   -7.16 KCAL/MOL
REMARK 924 INTRA-LIGAND FREE ENERGY PREDICTED BY IDOCK:   -1.23 KCAL/MOL
REMARK 927      BINDING AFFINITY PREDICTED BY RF-SCORE:    0.00 PKD
ROOT
HETATM    1  C   UNL     1      -6.854   5.864  71.259  1.00  0.00    -0.066 C  
HETATM    2  C   UNL     1      -7.221   4.390  71.153  1.00  0.00    -0.040 C  
ENDROOT
BRANCH   2   3
HETATM    3  N   UNL     1      -8.537   4.081  71.721  1.00  0.00    -0.098 N  
BRANCH   3   4
HETATM    4  C   UNL     1      -8.592   3.616  73.112  1.00  0.00    -0.090 C  
HETATM    5  C   UNL     1      -8.032   4.601  74.122  1.00  0.00    -0.100 C  
ENDBRANCH   3   4
BRANCH   3   6
HETATM    6  C   UNL     1      -9.651   4.447  70.967  1.00  0.00    -0.179 C  
HETATM    7  O   UNL     1      -9.741   4.180  69.769  1.00  0.00    -0.204 OA 
BRANCH   6   8
HETATM    8  N   UNL     1     -10.648   5.089  71.679  1.00  0.00    -0.163 N  
HETATM    9  H   UNL     1     -11.167   4.565  72.384  1.00  0.00     0.000 HD 
BRANCH   8  10
HETATM   10  C   UNL     1     -10.967   6.441  71.460  1.00  0.00    -0.263 A  
HETATM   11  C   UNL     1     -12.145   7.009  71.941  1.00  0.00    -0.358 A  
HETATM   12  C   UNL     1     -12.395   8.372  71.760  1.00  0.00    -0.375 A  
HETATM   13  C   UNL     1     -11.464   9.198  71.116  1.00  0.00    -0.318 A  
HETATM   14  C   UNL     1     -10.066   7.237  70.753  1.00  0.00    -0.193 A  
HETATM   15  C   UNL     1     -10.291   8.616  70.601  1.00  0.00    -0.241 A  
BRANCH  13  16
HETATM   16  O   UNL     1     -11.613  10.554  71.003  1.00  0.00    -0.330 OA 
BRANCH  16  17
HETATM   17  C   UNL     1     -12.474  11.042  69.961  1.00  0.00    -0.250 C  
BRANCH  17  18
HETATM   18  C   UNL     1     -11.779  12.205  69.240  1.00  0.00    -0.328 C  
HETATM   19  H   UNL     1     -11.729  12.915  67.409  1.00  0.00     0.000 HD 
HETATM   20  O   UNL     1     -12.160  12.195  67.856  1.00  0.00    -0.502 OA 
BRANCH  18  21
HETATM   21  C   UNL     1     -12.120  13.587  69.829  1.00  0.00    -0.318 C  
BRANCH  21  22
HETATM   22  N   UNL     1     -12.198  13.596  71.295  1.00  0.00    -0.386 NA 
HETATM   23  C   UNL     1     -12.780  14.820  71.885  1.00  0.00    -0.328 C  
HETATM   24  H   UNL     1     -11.278  13.415  71.697  1.00  0.00     0.000 HD 
HETATM   25  C   UNL     1     -12.690  14.667  73.415  1.00  0.00    -0.528 C  
HETATM   26  C   UNL     1     -14.264  14.981  71.512  1.00  0.00    -0.633 C  
HETATM   27  C   UNL     1     -11.995  16.078  71.478  1.00  0.00    -0.539 C  
ENDBRANCH  21  22
ENDBRANCH  18  21
ENDBRANCH  17  18
ENDBRANCH  16  17
ENDBRANCH  13  16
BRANCH  15  28
HETATM   28  C   UNL     1      -9.167   9.360  69.954  1.00  0.00    -0.208 C  
HETATM   29  O   UNL     1      -9.291   9.741  68.789  1.00  0.00    -0.143 OA 
HETATM   30  C   UNL     1      -7.915   9.696  70.720  1.00  0.00     0.024 C  
ENDBRANCH  15  28
ENDBRANCH   8  10
ENDBRANCH   6   8
ENDBRANCH   3   6
ENDBRANCH   2   3
TORSDOF 11
ENDMDL
MODEL      166
REMARK 921   NORMALIZED FREE ENERGY PREDICTED BY IDOCK:   -4.40 KCAL/MOL
REMARK 922        TOTAL FREE ENERGY PREDICTED BY IDOCK:   -8.36 KCAL/MOL
REMARK 923 INTER-LIGAND FREE ENERGY PREDICTED BY IDOCK:   -6.94 KCAL/MOL
REMARK 924 INTRA-LIGAND FREE ENERGY PREDICTED BY IDOCK:   -1.43 KCAL/MOL
REMARK 927      BINDING AFFINITY PREDICTED BY RF-SCORE:    0.00 PKD
ROOT
HETATM    1  C   UNL     1     -10.633   8.528  67.190  1.00  0.00    -0.314 C  
HETATM    2  C   UNL     1     -10.164   8.107  68.575  1.00  0.00    -0.208 C  
ENDROOT
BRANCH   2   3
HETATM    3  N   UNL     1     -10.008   9.235  69.499  1.00  0.00    -0.179 N  
BRANCH   3   4
HETATM    4  C   UNL     1     -11.158   9.605  70.331  1.00  0.00    -0.290 C  
HETATM    5  C   UNL     1     -11.669  11.015  70.096  1.00  0.00    -0.442 C  
ENDBRANCH   3   4
BRANCH   3   6
HETATM    6  C   UNL     1      -8.718   9.738  69.666  1.00  0.00    -0.199 C  
HETATM    7  O   UNL     1      -8.160   9.746  70.763  1.00  0.00    -0.271 OA 
BRANCH   6   8
HETATM    8  N   UNL     1      -8.114  10.183  68.504  1.00  0.00    -0.102 N  
HETATM    9  H   UNL     1      -7.711   9.499  67.864  1.00  0.00     0.000 HD 
BRANCH   8  10
HETATM   10  C   UNL     1      -8.040  11.550  68.179  1.00  0.00    -0.146 A  
HETATM   11  C   UNL     1      -6.860  12.278  68.313  1.00  0.00    -0.075 A  
HETATM   12  C   UNL     1      -6.809  13.617  67.918  1.00  0.00    -0.155 A  
HETATM   13  C   UNL     1      -7.929  14.248  67.359  1.00  0.00    -0.192 A  
HETATM   14  C   UNL     1      -9.181  12.186  67.692  1.00  0.00    -0.181 A  
HETATM   15  C   UNL     1      -9.129  13.522  67.255  1.00  0.00    -0.225 A  
BRANCH  13  16
HETATM   16  O   UNL     1      -7.904  15.523  66.862  1.00  0.00    -0.218 OA 
BRANCH  16  17
HETATM   17  C   UNL     1      -6.725  16.307  67.109  1.00  0.00    -0.201 C  
BRANCH  17  18
HETATM   18  C   UNL     1      -6.819  16.927  68.509  1.00  0.00    -0.172 C  
HETATM   19  H   UNL     1      -5.685  18.068  69.637  1.00  0.00     0.000 HD 
HETATM   20  O   UNL     1      -5.627  17.684  68.769  1.00  0.00    -0.157 OA 
BRANCH  18  21
HETATM   21  C   UNL     1      -8.035  17.857  68.691  1.00  0.00    -0.281 C  
BRANCH  21  22
HETATM   22  N   UNL     1      -8.355  18.643  67.494  1.00  0.00    -0.263 NA 
HETATM   23  C   UNL     1      -9.786  18.979  67.329  1.00  0.00    -0.314 C  
HETATM   24  H   UNL     1      -8.006  18.171  66.659  1.00  0.00     0.000 HD 
HETATM   25  C   UNL     1      -9.919  19.720  65.984  1.00  0.00    -0.541 C  
HETATM   26  C   UNL     1     -10.280  19.923  68.439  1.00  0.00    -0.557 C  
HETATM   27  C   UNL     1     -10.665  17.720  67.276  1.00  0.00    -0.249 C  
ENDBRANCH  21  22
ENDBRANCH  18  21
ENDBRANCH  17  18
ENDBRANCH  16  17
ENDBRANCH  13  16
BRANCH  15  28
HETATM   28  C   UNL     1     -10.389  14.016  66.621  1.00  0.00    -0.278 C  
HETATM   29  O   UNL     1     -10.394  14.270  65.415  1.00  0.00    -0.327 OA 
HETATM   30  C   UNL     1     -11.659  14.153  67.418  1.00  0.00    -0.399 C  
ENDBRANCH  15  28
ENDBRANCH   8  10
ENDBRANCH   6   8
ENDBRANCH   3   6
ENDBRANCH   2   3
TORSDOF 11
ENDMDL
MODEL      167
REMARK 921   NORMALIZED FREE ENERGY PREDICTED BY IDOCK:   -4.37 KCAL/MOL
REMARK 922        TOTAL FREE ENERGY PREDICTED BY IDOCK:   -8.32 KCAL/MOL
REMARK 923 INTER-LIGAND FREE ENERGY PREDICTED BY IDOCK:   -6.68 KCAL/MOL
REMARK 924 INTRA-LIGAND FREE ENERGY PREDICTED BY IDOCK:   -1.64 KCAL/MOL
REMARK 927      BINDING AFFINITY PREDICTED BY RF-SCORE:    0.00 PKD
ROOT
HETATM    1  C   UNL     1     -11.102  16.406  69.308  1.00  0.00    -0.297 C  
HETATM    2  C   UNL     1     -10.343  15.090  69.413  1.00  0.00    -0.235 C  
ENDROOT
BRANCH   2   3
HETATM    3  N   UNL     1     -10.528  14.223  68.245  1.00  0.00    -0.241 N  
BRANCH   3   4
HETATM    4  C   UNL     1      -9.394  14.050  67.331  1.00  0.00    -0.220 C  
HETATM    5  C   UNL     1      -8.358  13.048  67.805  1.00  0.00    -0.175 C  
ENDBRANCH   3   4
BRANCH   3   6
HETATM    6  C   UNL     1     -11.699  13.466  68.202  1.00  0.00    -0.362 C  
HETATM    7  O   UNL     1     -12.248  13.177  67.140  1.00  0.00    -0.326 OA 
BRANCH   6   8
HETATM    8  N   UNL     1     -12.159  13.040  69.435  1.00  0.00    -0.255 N  
HETATM    9  H   UNL     1     -12.697  13.686  70.012  1.00  0.00     0.000 HD 
BRANCH   8  10
HETATM   10  C   UNL     1     -11.907  11.743  69.917  1.00  0.00    -0.348 A  
HETATM   11  C   UNL     1     -12.513  11.253  71.072  1.00  0.00    -0.503 A  
HETATM   12  C   UNL     1     -12.288   9.936  71.481  1.00  0.00    -0.504 A  
HETATM   13  C   UNL     1     -11.473   9.076  70.733  1.00  0.00    -0.282 A  
HETATM   14  C   UNL     1     -11.036  10.920  69.203  1.00  0.00    -0.290 A  
HETATM   15  C   UNL     1     -10.835   9.582  69.586  1.00  0.00    -0.255 A  
BRANCH  13  16
HETATM   16  O   UNL     1     -11.302   7.751  71.034  1.00  0.00    -0.263 OA 
BRANCH  16  17
HETATM   17  C   UNL     1     -10.294   7.416  72.001  1.00  0.00    -0.193 C  
BRANCH  17  18
HETATM   18  C   UNL     1     -10.234   5.890  72.155  1.00  0.00    -0.195 C  
HETATM   19  H   UNL     1     -11.263   4.518  73.112  1.00  0.00     0.000 HD 
HETATM   20  O   UNL     1     -11.300   5.463  73.017  1.00  0.00    -0.302 OA 
BRANCH  18  21
HETATM   21  C   UNL     1     -10.354   5.131  70.819  1.00  0.00    -0.224 C  
BRANCH  21  22
HETATM   22  N   UNL     1      -9.453   5.635  69.776  1.00  0.00    -0.144 NA 
HETATM   23  C   UNL     1      -8.605   4.610  69.130  1.00  0.00    -0.079 C  
HETATM   24  H   UNL     1      -8.873   6.389  70.146  1.00  0.00     0.000 HD 
HETATM   25  C   UNL     1      -7.683   5.350  68.142  1.00  0.00    -0.085 C  
HETATM   26  C   UNL     1      -9.445   3.601  68.328  1.00  0.00    -0.214 C  
HETATM   27  C   UNL     1      -7.726   3.872  70.152  1.00  0.00    -0.048 C  
ENDBRANCH  21  22
ENDBRANCH  18  21
ENDBRANCH  17  18
ENDBRANCH  16  17
ENDBRANCH  13  16
BRANCH  15  28
HETATM   28  C   UNL     1      -9.995   8.786  68.639  1.00  0.00    -0.182 C  
HETATM   29  O   UNL     1      -8.824   8.541  68.936  1.00  0.00    -0.137 OA 
HETATM   30  C   UNL     1     -10.571   8.236  67.362  1.00  0.00    -0.324 C  
ENDBRANCH  15  28
ENDBRANCH   8  10
ENDBRANCH   6   8
ENDBRANCH   3   6
ENDBRANCH   2   3
TORSDOF 11
ENDMDL
MODEL      168
REMARK 921   NORMALIZED FREE ENERGY PREDICTED BY IDOCK:   -4.37 KCAL/MOL
REMARK 922        TOTAL FREE ENERGY PREDICTED BY IDOCK:   -8.32 KCAL/MOL
REMARK 923 INTER-LIGAND FREE ENERGY PREDICTED BY IDOCK:   -7.22 KCAL/MOL
REMARK 924 INTRA-LIGAND FREE ENERGY PREDICTED BY IDOCK:   -1.09 KCAL/MOL
REMARK 927      BINDING AFFINITY PREDICTED BY RF-SCORE:    0.00 PKD
ROOT
HETATM    1  C   UNL     1      -7.321   5.941  65.013  1.00  0.00    -0.072 C  
HETATM    2  C   UNL     1      -8.138   7.126  64.516  1.00  0.00    -0.069 C  
ENDROOT
BRANCH   2   3
HETATM    3  N   UNL     1      -7.320   8.166  63.884  1.00  0.00    -0.095 N  
BRANCH   3   4
HETATM    4  C   UNL     1      -6.865   7.939  62.508  1.00  0.00    -0.085 C  
HETATM    5  C   UNL     1      -5.415   7.509  62.393  1.00  0.00    -0.047 C  
ENDBRANCH   3   4
BRANCH   3   6
HETATM    6  C   UNL     1      -7.210   9.380  64.562  1.00  0.00    -0.105 C  
HETATM    7  O   UNL     1      -6.233   9.647  65.260  1.00  0.00    -0.071 OA 
BRANCH   6   8
HETATM    8  N   UNL     1      -8.257  10.258  64.352  1.00  0.00    -0.166 N  
HETATM    9  H   UNL     1      -8.297  10.779  63.476  1.00  0.00     0.000 HD 
BRANCH   8  10
HETATM   10  C   UNL     1      -9.268  10.455  65.310  1.00  0.00    -0.199 A  
HETATM   11  C   UNL     1      -9.313   9.727  66.497  1.00  0.00    -0.207 A  
HETATM   12  C   UNL     1     -10.296   9.998  67.453  1.00  0.00    -0.292 A  
HETATM   13  C   UNL     1     -11.237  11.016  67.252  1.00  0.00    -0.258 A  
HETATM   14  C   UNL     1     -10.243  11.422  65.066  1.00  0.00    -0.333 A  
HETATM   15  C   UNL     1     -11.211  11.728  66.039  1.00  0.00    -0.352 A  
BRANCH  13  16
HETATM   16  O   UNL     1     -12.154  11.390  68.198  1.00  0.00    -0.623 OA 
BRANCH  16  17
HETATM   17  C   UNL     1     -11.665  11.675  69.519  1.00  0.00    -0.344 C  
BRANCH  17  18
HETATM   18  C   UNL     1     -12.570  10.986  70.548  1.00  0.00    -0.304 C  
HETATM   19  H   UNL     1     -14.237   9.947  70.505  1.00  0.00     0.000 HD 
HETATM   20  O   UNL     1     -13.676  10.374  69.867  1.00  0.00     0.413 OA 
BRANCH  18  21
HETATM   21  C   UNL     1     -11.849   9.904  71.376  1.00  0.00    -0.394 C  
BRANCH  21  22
HETATM   22  N   UNL     1     -11.550   8.686  70.614  1.00  0.00    -0.400 NA 
HETATM   23  C   UNL     1     -11.761   7.419  71.347  1.00  0.00    -0.288 C  
HETATM   24  H   UNL     1     -10.598   8.725  70.247  1.00  0.00     0.000 HD 
HETATM   25  C   UNL     1     -11.310   6.280  70.412  1.00  0.00    -0.440 C  
HETATM   26  C   UNL     1     -13.247   7.197  71.681  1.00  0.00    -0.403 C  
HETATM   27  C   UNL     1     -10.916   7.355  72.629  1.00  0.00    -0.363 C  
ENDBRANCH  21  22
ENDBRANCH  18  21
ENDBRANCH  17  18
ENDBRANCH  16  17
ENDBRANCH  13  16
BRANCH  15  28
HETATM   28  C   UNL     1     -12.090  12.887  65.695  1.00  0.00    -0.458 C  
HETATM   29  O   UNL     1     -13.052  12.709  64.945  1.00  0.00    -0.850 OA 
HETATM   30  C   UNL     1     -11.852  14.248  66.292  1.00  0.00    -0.420 C  
ENDBRANCH  15  28
ENDBRANCH   8  10
ENDBRANCH   6   8
ENDBRANCH   3   6
ENDBRANCH   2   3
TORSDOF 11
ENDMDL
MODEL      169
REMARK 921   NORMALIZED FREE ENERGY PREDICTED BY IDOCK:   -4.36 KCAL/MOL
REMARK 922        TOTAL FREE ENERGY PREDICTED BY IDOCK:   -8.30 KCAL/MOL
REMARK 923 INTER-LIGAND FREE ENERGY PREDICTED BY IDOCK:   -7.23 KCAL/MOL
REMARK 924 INTRA-LIGAND FREE ENERGY PREDICTED BY IDOCK:   -1.07 KCAL/MOL
REMARK 927      BINDING AFFINITY PREDICTED BY RF-SCORE:    0.00 PKD
ROOT
HETATM    1  C   UNL     1      -9.845   5.859  69.718  1.00  0.00    -0.217 C  
HETATM    2  C   UNL     1     -10.463   5.245  70.966  1.00  0.00    -0.203 C  
ENDROOT
BRANCH   2   3
HETATM    3  N   UNL     1     -10.552   6.185  72.088  1.00  0.00    -0.203 N  
BRANCH   3   4
HETATM    4  C   UNL     1      -9.434   6.230  73.036  1.00  0.00    -0.142 C  
HETATM    5  C   UNL     1      -9.419   5.091  74.038  1.00  0.00    -0.129 C  
ENDBRANCH   3   4
BRANCH   3   6
HETATM    6  C   UNL     1     -11.596   7.109  72.054  1.00  0.00    -0.280 C  
HETATM    7  O   UNL     1     -12.765   6.764  71.882  1.00  0.00    -0.343 OA 
BRANCH   6   8
HETATM    8  N   UNL     1     -11.216   8.421  72.268  1.00  0.00    -0.359 N  
HETATM    9  H   UNL     1     -10.953   8.712  73.210  1.00  0.00     0.000 HD 
BRANCH   8  10
HETATM   10  C   UNL     1     -11.181   9.366  71.227  1.00  0.00    -0.367 A  
HETATM   11  C   UNL     1     -12.174  10.331  71.071  1.00  0.00    -0.487 A  
HETATM   12  C   UNL     1     -12.069  11.294  70.064  1.00  0.00    -0.425 A  
HETATM   13  C   UNL     1     -10.959  11.326  69.208  1.00  0.00    -0.243 A  
HETATM   14  C   UNL     1     -10.108   9.343  70.337  1.00  0.00    -0.310 A  
HETATM   15  C   UNL     1      -9.974  10.331  69.345  1.00  0.00    -0.254 A  
BRANCH  13  16
HETATM   16  O   UNL     1     -10.758  12.306  68.274  1.00  0.00    -0.205 OA 
BRANCH  16  17
HETATM   17  C   UNL     1     -11.655  13.429  68.288  1.00  0.00    -0.344 C  
BRANCH  17  18
HETATM   18  C   UNL     1     -11.353  14.327  67.081  1.00  0.00    -0.337 C  
HETATM   19  H   UNL     1     -12.300  14.886  65.454  1.00  0.00     0.000 HD 
HETATM   20  O   UNL     1     -12.487  14.329  66.201  1.00  0.00    -0.442 OA 
BRANCH  18  21
HETATM   21  C   UNL     1     -11.030  15.785  67.464  1.00  0.00    -0.293 C  
BRANCH  21  22
HETATM   22  N   UNL     1     -10.040  16.416  66.583  1.00  0.00    -0.273 NA 
HETATM   23  C   UNL     1      -8.670  16.495  67.134  1.00  0.00    -0.195 C  
HETATM   24  H   UNL     1     -10.360  17.343  66.301  1.00  0.00     0.000 HD 
HETATM   25  C   UNL     1      -7.817  17.261  66.105  1.00  0.00    -0.305 C  
HETATM   26  C   UNL     1      -8.050  15.099  67.318  1.00  0.00    -0.228 C  
HETATM   27  C   UNL     1      -8.634  17.269  68.462  1.00  0.00    -0.270 C  
ENDBRANCH  21  22
ENDBRANCH  18  21
ENDBRANCH  17  18
ENDBRANCH  16  17
ENDBRANCH  13  16
BRANCH  15  28
HETATM   28  C   UNL     1      -8.699  10.261  68.569  1.00  0.00    -0.130 C  
HETATM   29  O   UNL     1      -7.758  10.988  68.894  1.00  0.00    -0.125 OA 
HETATM   30  C   UNL     1      -8.529   9.282  67.438  1.00  0.00    -0.122 C  
ENDBRANCH  15  28
ENDBRANCH   8  10
ENDBRANCH   6   8
ENDBRANCH   3   6
ENDBRANCH   2   3
TORSDOF 11
ENDMDL
MODEL      170
REMARK 921   NORMALIZED FREE ENERGY PREDICTED BY IDOCK:   -4.35 KCAL/MOL
REMARK 922        TOTAL FREE ENERGY PREDICTED BY IDOCK:   -8.28 KCAL/MOL
REMARK 923 INTER-LIGAND FREE ENERGY PREDICTED BY IDOCK:   -6.93 KCAL/MOL
REMARK 924 INTRA-LIGAND FREE ENERGY PREDICTED BY IDOCK:   -1.35 KCAL/MOL
REMARK 927      BINDING AFFINITY PREDICTED BY RF-SCORE:    0.00 PKD
ROOT
HETATM    1  C   UNL     1     -10.591   5.784  73.912  1.00  0.00    -0.266 C  
HETATM    2  C   UNL     1     -11.255   5.068  72.744  1.00  0.00    -0.222 C  
ENDROOT
BRANCH   2   3
HETATM    3  N   UNL     1     -11.104   5.780  71.471  1.00  0.00    -0.248 N  
BRANCH   3   4
HETATM    4  C   UNL     1     -10.244   5.178  70.446  1.00  0.00    -0.264 C  
HETATM    5  C   UNL     1      -9.210   4.210  70.988  1.00  0.00    -0.202 C  
ENDBRANCH   3   4
BRANCH   3   6
HETATM    6  C   UNL     1     -11.950   6.867  71.253  1.00  0.00    -0.356 C  
HETATM    7  O   UNL     1     -13.064   6.733  70.748  1.00  0.00    -0.084 OA 
BRANCH   6   8
HETATM    8  N   UNL     1     -11.453   8.084  71.683  1.00  0.00    -0.257 N  
HETATM    9  H   UNL     1     -11.092   8.161  72.634  1.00  0.00     0.000 HD 
BRANCH   8  10
HETATM   10  C   UNL     1     -11.429   9.217  70.850  1.00  0.00    -0.296 A  
HETATM   11  C   UNL     1     -12.097  10.393  71.184  1.00  0.00    -0.487 A  
HETATM   12  C   UNL     1     -11.996  11.518  70.362  1.00  0.00    -0.459 A  
HETATM   13  C   UNL     1     -11.207  11.497  69.203  1.00  0.00    -0.274 A  
HETATM   14  C   UNL     1     -10.701   9.160  69.662  1.00  0.00    -0.236 A  
HETATM   15  C   UNL     1     -10.562  10.299  68.849  1.00  0.00    -0.242 A  
BRANCH  13  16
HETATM   16  O   UNL     1     -10.993  12.600  68.420  1.00  0.00    -0.233 OA 
BRANCH  16  17
HETATM   17  C   UNL     1     -11.690  13.806  68.769  1.00  0.00    -0.356 C  
BRANCH  17  18
HETATM   18  C   UNL     1     -11.997  14.596  67.489  1.00  0.00    -0.278 C  
HETATM   19  H   UNL     1     -10.993  15.753  66.259  1.00  0.00     0.000 HD 
HETATM   20  O   UNL     1     -10.804  15.264  67.052  1.00  0.00    -0.312 OA 
BRANCH  18  21
HETATM   21  C   UNL     1     -12.516  13.719  66.333  1.00  0.00    -0.355 C  
BRANCH  21  22
HETATM   22  N   UNL     1     -11.448  13.070  65.565  1.00  0.00    -0.311 NA 
HETATM   23  C   UNL     1     -11.748  12.852  64.134  1.00  0.00    -0.406 C  
HETATM   24  H   UNL     1     -11.183  12.189  66.006  1.00  0.00     0.000 HD 
HETATM   25  C   UNL     1     -10.550  12.088  63.536  1.00  0.00    -0.514 C  
HETATM   26  C   UNL     1     -11.887  14.182  63.373  1.00  0.00     0.498 C  
HETATM   27  C   UNL     1     -13.011  11.998  63.939  1.00  0.00    -0.299 C  
ENDBRANCH  21  22
ENDBRANCH  18  21
ENDBRANCH  17  18
ENDBRANCH  16  17
ENDBRANCH  13  16
BRANCH  15  28
HETATM   28  C   UNL     1      -9.630  10.125  67.693  1.00  0.00    -0.148 C  
HETATM   29  O   UNL     1     -10.072  10.220  66.547  1.00  0.00    -0.213 OA 
HETATM   30  C   UNL     1      -8.159   9.891  67.908  1.00  0.00    -0.109 C  
ENDBRANCH  15  28
ENDBRANCH   8  10
ENDBRANCH   6   8
ENDBRANCH   3   6
ENDBRANCH   2   3
TORSDOF 11
ENDMDL
MODEL      171
REMARK 921   NORMALIZED FREE ENERGY PREDICTED BY IDOCK:   -4.34 KCAL/MOL
REMARK 922        TOTAL FREE ENERGY PREDICTED BY IDOCK:   -8.26 KCAL/MOL
REMARK 923 INTER-LIGAND FREE ENERGY PREDICTED BY IDOCK:   -6.59 KCAL/MOL
REMARK 924 INTRA-LIGAND FREE ENERGY PREDICTED BY IDOCK:   -1.67 KCAL/MOL
REMARK 927      BINDING AFFINITY PREDICTED BY RF-SCORE:    0.00 PKD
ROOT
HETATM    1  C   UNL     1     -10.608  16.068  65.320  1.00  0.00    -0.424 C  
HETATM    2  C   UNL     1     -11.004  14.830  66.113  1.00  0.00    -0.332 C  
ENDROOT
BRANCH   2   3
HETATM    3  N   UNL     1     -10.214  14.651  67.336  1.00  0.00    -0.239 N  
BRANCH   3   4
HETATM    4  C   UNL     1     -10.937  14.536  68.608  1.00  0.00    -0.251 C  
HETATM    5  C   UNL     1     -11.713  13.242  68.770  1.00  0.00    -0.366 C  
ENDBRANCH   3   4
BRANCH   3   6
HETATM    6  C   UNL     1      -8.852  14.398  67.176  1.00  0.00    -0.229 C  
HETATM    7  O   UNL     1      -7.993  15.127  67.671  1.00  0.00    -0.136 OA 
BRANCH   6   8
HETATM    8  N   UNL     1      -8.556  13.253  66.459  1.00  0.00    -0.425 N  
HETATM    9  H   UNL     1      -8.121  13.344  65.541  1.00  0.00     0.000 HD 
BRANCH   8  10
HETATM   10  C   UNL     1      -8.835  11.969  66.959  1.00  0.00    -0.197 A  
HETATM   11  C   UNL     1      -9.696  11.092  66.302  1.00  0.00    -0.244 A  
HETATM   12  C   UNL     1      -9.897   9.800  66.795  1.00  0.00    -0.265 A  
HETATM   13  C   UNL     1      -9.225   9.351  67.940  1.00  0.00    -0.129 A  
HETATM   14  C   UNL     1      -8.217  11.559  68.139  1.00  0.00    -0.149 A  
HETATM   15  C   UNL     1      -8.382  10.248  68.621  1.00  0.00    -0.122 A  
BRANCH  13  16
HETATM   16  O   UNL     1      -9.307   8.066  68.405  1.00  0.00    -0.139 OA 
BRANCH  16  17
HETATM   17  C   UNL     1     -10.557   7.378  68.234  1.00  0.00    -0.157 C  
BRANCH  17  18
HETATM   18  C   UNL     1     -10.348   5.883  68.508  1.00  0.00    -0.214 C  
HETATM   19  H   UNL     1      -8.864   4.605  68.358  1.00  0.00     0.000 HD 
HETATM   20  O   UNL     1      -8.994   5.531  68.188  1.00  0.00    -0.109 OA 
BRANCH  18  21
HETATM   21  C   UNL     1     -10.623   5.481  69.970  1.00  0.00    -0.314 C  
BRANCH  21  22
HETATM   22  N   UNL     1     -10.215   6.499  70.945  1.00  0.00    -0.189 NA 
HETATM   23  C   UNL     1     -11.128   6.667  72.096  1.00  0.00    -0.254 C  
HETATM   24  H   UNL     1     -10.070   7.395  70.478  1.00  0.00     0.000 HD 
HETATM   25  C   UNL     1     -10.573   7.829  72.942  1.00  0.00    -0.428 C  
HETATM   26  C   UNL     1     -11.161   5.410  72.983  1.00  0.00    -0.368 C  
HETATM   27  C   UNL     1     -12.552   7.033  71.647  1.00  0.00    -0.419 C  
ENDBRANCH  21  22
ENDBRANCH  18  21
ENDBRANCH  17  18
ENDBRANCH  16  17
ENDBRANCH  13  16
BRANCH  15  28
HETATM   28  C   UNL     1      -7.539   9.913  69.809  1.00  0.00    -0.150 C  
HETATM   29  O   UNL     1      -8.087   9.546  70.849  1.00  0.00    -0.297 OA 
HETATM   30  C   UNL     1      -6.036   9.965  69.735  1.00  0.00    -0.045 C  
ENDBRANCH  15  28
ENDBRANCH   8  10
ENDBRANCH   6   8
ENDBRANCH   3   6
ENDBRANCH   2   3
TORSDOF 11
ENDMDL
MODEL      172
REMARK 921   NORMALIZED FREE ENERGY PREDICTED BY IDOCK:   -4.34 KCAL/MOL
REMARK 922        TOTAL FREE ENERGY PREDICTED BY IDOCK:   -8.26 KCAL/MOL
REMARK 923 INTER-LIGAND FREE ENERGY PREDICTED BY IDOCK:   -7.39 KCAL/MOL
REMARK 924 INTRA-LIGAND FREE ENERGY PREDICTED BY IDOCK:   -0.87 KCAL/MOL
REMARK 927      BINDING AFFINITY PREDICTED BY RF-SCORE:    0.00 PKD
ROOT
HETATM    1  C   UNL     1      -9.192   4.132  65.446  1.00  0.00    -0.151 C  
HETATM    2  C   UNL     1     -10.063   4.593  66.607  1.00  0.00    -0.234 C  
ENDROOT
BRANCH   2   3
HETATM    3  N   UNL     1      -9.471   5.697  67.369  1.00  0.00    -0.112 N  
BRANCH   3   4
HETATM    4  C   UNL     1      -9.361   5.544  68.824  1.00  0.00    -0.125 C  
HETATM    5  C   UNL     1     -10.668   5.726  69.572  1.00  0.00    -0.408 C  
ENDBRANCH   3   4
BRANCH   3   6
HETATM    6  C   UNL     1      -8.871   6.720  66.635  1.00  0.00    -0.137 C  
HETATM    7  O   UNL     1      -7.650   6.860  66.594  1.00  0.00    -0.086 OA 
BRANCH   6   8
HETATM    8  N   UNL     1      -9.752   7.524  65.935  1.00  0.00    -0.382 N  
HETATM    9  H   UNL     1     -10.197   7.155  65.095  1.00  0.00     0.000 HD 
BRANCH   8  10
HETATM   10  C   UNL     1     -10.051   8.835  66.346  1.00  0.00    -0.243 A  
HETATM   11  C   UNL     1     -10.038   9.909  65.459  1.00  0.00    -0.297 A  
HETATM   12  C   UNL     1     -10.405  11.186  65.892  1.00  0.00    -0.314 A  
HETATM   13  C   UNL     1     -10.814  11.410  67.213  1.00  0.00    -0.263 A  
HETATM   14  C   UNL     1     -10.386   9.059  67.681  1.00  0.00    -0.317 A  
HETATM   15  C   UNL     1     -10.795  10.333  68.116  1.00  0.00    -0.312 A  
BRANCH  13  16
HETATM   16  O   UNL     1     -11.281  12.617  67.661  1.00  0.00    -0.252 OA 
BRANCH  16  17
HETATM   17  C   UNL     1     -11.892  13.490  66.697  1.00  0.00    -0.407 C  
BRANCH  17  18
HETATM   18  C   UNL     1     -11.650  14.947  67.115  1.00  0.00    -0.315 C  
HETATM   19  H   UNL     1     -11.792  15.992  68.773  1.00  0.00     0.000 HD 
HETATM   20  O   UNL     1     -11.943  15.089  68.514  1.00  0.00    -0.303 OA 
BRANCH  18  21
HETATM   21  C   UNL     1     -10.206  15.426  66.869  1.00  0.00    -0.273 C  
BRANCH  21  22
HETATM   22  N   UNL     1      -9.747  16.426  67.840  1.00  0.00    -0.232 NA 
HETATM   23  C   UNL     1      -9.004  17.566  67.263  1.00  0.00    -0.235 C  
HETATM   24  H   UNL     1      -9.192  15.978  68.570  1.00  0.00     0.000 HD 
HETATM   25  C   UNL     1      -8.540  18.442  68.444  1.00  0.00    -0.345 C  
HETATM   26  C   UNL     1      -9.900  18.429  66.358  1.00  0.00    -0.369 C  
HETATM   27  C   UNL     1      -7.760  17.103  66.487  1.00  0.00    -0.321 C  
ENDBRANCH  21  22
ENDBRANCH  18  21
ENDBRANCH  17  18
ENDBRANCH  16  17
ENDBRANCH  13  16
BRANCH  15  28
HETATM   28  C   UNL     1     -11.267  10.381  69.534  1.00  0.00    -0.269 C  
HETATM   29  O   UNL     1     -12.386  10.833  69.778  1.00  0.00    -0.327 OA 
HETATM   30  C   UNL     1     -10.421   9.836  70.654  1.00  0.00    -0.358 C  
ENDBRANCH  15  28
ENDBRANCH   8  10
ENDBRANCH   6   8
ENDBRANCH   3   6
ENDBRANCH   2   3
TORSDOF 11
ENDMDL
MODEL      173
REMARK 921   NORMALIZED FREE ENERGY PREDICTED BY IDOCK:   -4.33 KCAL/MOL
REMARK 922        TOTAL FREE ENERGY PREDICTED BY IDOCK:   -8.25 KCAL/MOL
REMARK 923 INTER-LIGAND FREE ENERGY PREDICTED BY IDOCK:   -7.06 KCAL/MOL
REMARK 924 INTRA-LIGAND FREE ENERGY PREDICTED BY IDOCK:   -1.19 KCAL/MOL
REMARK 927      BINDING AFFINITY PREDICTED BY RF-SCORE:    0.00 PKD
ROOT
HETATM    1  C   UNL     1     -11.645  12.186  63.474  1.00  0.00    -0.562 C  
HETATM    2  C   UNL     1     -10.543  12.964  64.180  1.00  0.00    -0.416 C  
ENDROOT
BRANCH   2   3
HETATM    3  N   UNL     1     -10.859  13.273  65.578  1.00  0.00    -0.281 N  
BRANCH   3   4
HETATM    4  C   UNL     1     -11.132  14.671  65.927  1.00  0.00    -0.338 C  
HETATM    5  C   UNL     1     -11.002  15.641  64.768  1.00  0.00    -0.418 C  
ENDBRANCH   3   4
BRANCH   3   6
HETATM    6  C   UNL     1     -11.079  12.190  66.429  1.00  0.00    -0.314 C  
HETATM    7  O   UNL     1     -12.152  12.025  67.007  1.00  0.00    -0.603 OA 
BRANCH   6   8
HETATM    8  N   UNL     1     -10.018  11.309  66.531  1.00  0.00    -0.206 N  
HETATM    9  H   UNL     1      -9.135  11.544  66.080  1.00  0.00     0.000 HD 
BRANCH   8  10
HETATM   10  C   UNL     1     -10.121  10.098  67.240  1.00  0.00    -0.206 A  
HETATM   11  C   UNL     1     -10.332   8.881  66.596  1.00  0.00    -0.294 A  
HETATM   12  C   UNL     1     -10.363   7.692  67.329  1.00  0.00    -0.367 A  
HETATM   13  C   UNL     1     -10.160   7.693  68.716  1.00  0.00    -0.194 A  
HETATM   14  C   UNL     1      -9.990  10.121  68.628  1.00  0.00    -0.181 A  
HETATM   15  C   UNL     1      -9.981   8.925  69.369  1.00  0.00    -0.192 A  
BRANCH  13  16
HETATM   16  O   UNL     1     -10.078   6.549  69.464  1.00  0.00    -0.168 OA 
BRANCH  16  17
HETATM   17  C   UNL     1     -11.260   6.131  70.166  1.00  0.00    -0.382 C  
BRANCH  17  18
HETATM   18  C   UNL     1     -10.935   5.994  71.659  1.00  0.00    -0.272 C  
HETATM   19  H   UNL     1     -11.947   5.653  73.308  1.00  0.00     0.000 HD 
HETATM   20  O   UNL     1     -12.148   5.738  72.383  1.00  0.00    -0.249 OA 
BRANCH  18  21
HETATM   21  C   UNL     1      -9.934   4.864  71.971  1.00  0.00    -0.187 C  
BRANCH  21  22
HETATM   22  N   UNL     1      -8.564   5.159  71.537  1.00  0.00    -0.127 NA 
HETATM   23  C   UNL     1      -7.553   5.170  72.615  1.00  0.00    -0.097 C  
HETATM   24  H   UNL     1      -8.539   6.040  71.023  1.00  0.00     0.000 HD 
HETATM   25  C   UNL     1      -6.215   5.582  71.971  1.00  0.00    -0.039 C  
HETATM   26  C   UNL     1      -7.369   3.775  73.237  1.00  0.00    -0.064 C  
HETATM   27  C   UNL     1      -7.898   6.194  73.709  1.00  0.00    -0.097 C  
ENDBRANCH  21  22
ENDBRANCH  18  21
ENDBRANCH  17  18
ENDBRANCH  16  17
ENDBRANCH  13  16
BRANCH  15  28
HETATM   28  C   UNL     1      -9.681   9.100  70.823  1.00  0.00    -0.273 C  
HETATM   29  O   UNL     1     -10.602   9.365  71.598  1.00  0.00    -0.340 OA 
HETATM   30  C   UNL     1      -8.288   8.903  71.359  1.00  0.00    -0.195 C  
ENDBRANCH  15  28
ENDBRANCH   8  10
ENDBRANCH   6   8
ENDBRANCH   3   6
ENDBRANCH   2   3
TORSDOF 11
ENDMDL
MODEL      174
REMARK 921   NORMALIZED FREE ENERGY PREDICTED BY IDOCK:   -4.33 KCAL/MOL
REMARK 922        TOTAL FREE ENERGY PREDICTED BY IDOCK:   -8.25 KCAL/MOL
REMARK 923 INTER-LIGAND FREE ENERGY PREDICTED BY IDOCK:   -7.10 KCAL/MOL
REMARK 924 INTRA-LIGAND FREE ENERGY PREDICTED BY IDOCK:   -1.15 KCAL/MOL
REMARK 927      BINDING AFFINITY PREDICTED BY RF-SCORE:    0.00 PKD
ROOT
HETATM    1  C   UNL     1      -7.508  17.200  68.971  1.00  0.00    -0.203 C  
HETATM    2  C   UNL     1      -8.651  17.870  68.221  1.00  0.00    -0.275 C  
ENDROOT
BRANCH   2   3
HETATM    3  N   UNL     1      -8.727  17.476  66.811  1.00  0.00    -0.247 N  
BRANCH   3   4
HETATM    4  C   UNL     1      -7.469  17.204  66.106  1.00  0.00    -0.260 C  
HETATM    5  C   UNL     1      -6.707  18.448  65.686  1.00  0.00    -0.304 C  
ENDBRANCH   3   4
BRANCH   3   6
HETATM    6  C   UNL     1      -9.993  17.190  66.303  1.00  0.00    -0.304 C  
HETATM    7  O   UNL     1     -10.408  17.702  65.264  1.00  0.00    -0.554 OA 
BRANCH   6   8
HETATM    8  N   UNL     1     -10.715  16.264  67.034  1.00  0.00    -0.279 N  
HETATM    9  H   UNL     1     -11.415  16.595  67.697  1.00  0.00     0.000 HD 
BRANCH   8  10
HETATM   10  C   UNL     1     -10.512  14.880  66.890  1.00  0.00    -0.280 A  
HETATM   11  C   UNL     1     -10.190  14.064  67.972  1.00  0.00    -0.238 A  
HETATM   12  C   UNL     1     -10.061  12.683  67.800  1.00  0.00    -0.220 A  
HETATM   13  C   UNL     1     -10.275  12.088  66.549  1.00  0.00    -0.206 A  
HETATM   14  C   UNL     1     -10.656  14.309  65.626  1.00  0.00    -0.328 A  
HETATM   15  C   UNL     1     -10.567  12.917  65.451  1.00  0.00    -0.308 A  
BRANCH  13  16
HETATM   16  O   UNL     1     -10.262  10.734  66.348  1.00  0.00    -0.225 OA 
BRANCH  16  17
HETATM   17  C   UNL     1      -9.143   9.998  66.867  1.00  0.00    -0.139 C  
BRANCH  17  18
HETATM   18  C   UNL     1      -9.659   8.761  67.615  1.00  0.00    -0.144 C  
HETATM   19  H   UNL     1     -11.119   8.365  68.867  1.00  0.00     0.000 HD 
HETATM   20  O   UNL     1     -10.800   9.131  68.404  1.00  0.00    -0.161 OA 
BRANCH  18  21
HETATM   21  C   UNL     1     -10.065   7.603  66.684  1.00  0.00    -0.208 C  
BRANCH  21  22
HETATM   22  N   UNL     1      -8.927   6.809  66.204  1.00  0.00    -0.193 NA 
HETATM   23  C   UNL     1      -9.075   5.346  66.355  1.00  0.00    -0.141 C  
HETATM   24  H   UNL     1      -8.066   7.124  66.652  1.00  0.00     0.000 HD 
HETATM   25  C   UNL     1      -7.753   4.711  65.881  1.00  0.00    -0.094 C  
HETATM   26  C   UNL     1     -10.208   4.795  65.472  1.00  0.00    -0.162 C  
HETATM   27  C   UNL     1      -9.305   4.944  67.821  1.00  0.00    -0.154 C  
ENDBRANCH  21  22
ENDBRANCH  18  21
ENDBRANCH  17  18
ENDBRANCH  16  17
ENDBRANCH  13  16
BRANCH  15  28
HETATM   28  C   UNL     1     -10.894  12.444  64.070  1.00  0.00    -0.397 C  
HETATM   29  O   UNL     1      -9.979  12.283  63.260  1.00  0.00    -0.403 OA 
HETATM   30  C   UNL     1     -12.307  12.109  63.677  1.00  0.00    -0.673 C  
ENDBRANCH  15  28
ENDBRANCH   8  10
ENDBRANCH   6   8
ENDBRANCH   3   6
ENDBRANCH   2   3
TORSDOF 11
ENDMDL
MODEL      175
REMARK 921   NORMALIZED FREE ENERGY PREDICTED BY IDOCK:   -4.31 KCAL/MOL
REMARK 922        TOTAL FREE ENERGY PREDICTED BY IDOCK:   -8.21 KCAL/MOL
REMARK 923 INTER-LIGAND FREE ENERGY PREDICTED BY IDOCK:   -7.13 KCAL/MOL
REMARK 924 INTRA-LIGAND FREE ENERGY PREDICTED BY IDOCK:   -1.08 KCAL/MOL
REMARK 927      BINDING AFFINITY PREDICTED BY RF-SCORE:    0.00 PKD
ROOT
HETATM    1  C   UNL     1      -9.789   4.327  70.398  1.00  0.00    -0.268 C  
HETATM    2  C   UNL     1     -10.371   4.933  71.668  1.00  0.00    -0.170 C  
ENDROOT
BRANCH   2   3
HETATM    3  N   UNL     1     -10.267   6.395  71.710  1.00  0.00    -0.196 N  
BRANCH   3   4
HETATM    4  C   UNL     1      -9.526   6.998  72.824  1.00  0.00    -0.146 C  
HETATM    5  C   UNL     1      -8.101   6.500  72.969  1.00  0.00    -0.107 C  
ENDBRANCH   3   4
BRANCH   3   6
HETATM    6  C   UNL     1     -10.701   7.090  70.582  1.00  0.00    -0.231 C  
HETATM    7  O   UNL     1     -11.755   6.812  70.012  1.00  0.00    -0.337 OA 
BRANCH   6   8
HETATM    8  N   UNL     1      -9.878   8.130  70.190  1.00  0.00    -0.183 N  
HETATM    9  H   UNL     1      -8.886   8.091  70.425  1.00  0.00     0.000 HD 
BRANCH   8  10
HETATM   10  C   UNL     1     -10.367   9.240  69.478  1.00  0.00    -0.216 A  
HETATM   11  C   UNL     1     -10.349   9.292  68.086  1.00  0.00    -0.261 A  
HETATM   12  C   UNL     1     -10.904  10.384  67.414  1.00  0.00    -0.344 A  
HETATM   13  C   UNL     1     -11.510  11.433  68.118  1.00  0.00    -0.305 A  
HETATM   14  C   UNL     1     -10.901  10.312  70.193  1.00  0.00    -0.362 A  
HETATM   15  C   UNL     1     -11.498  11.396  69.524  1.00  0.00    -0.381 A  
BRANCH  13  16
HETATM   16  O   UNL     1     -12.158  12.473  67.507  1.00  0.00    -0.453 OA 
BRANCH  16  17
HETATM   17  C   UNL     1     -11.966  12.634  66.092  1.00  0.00    -0.395 C  
BRANCH  17  18
HETATM   18  C   UNL     1     -11.187  13.931  65.836  1.00  0.00    -0.297 C  
HETATM   19  H   UNL     1     -11.277  15.790  66.465  1.00  0.00     0.000 HD 
HETATM   20  O   UNL     1     -11.760  14.986  66.624  1.00  0.00    -0.278 OA 
BRANCH  18  21
HETATM   21  C   UNL     1      -9.688  13.827  66.176  1.00  0.00    -0.264 C  
BRANCH  21  22
HETATM   22  N   UNL     1      -9.369  14.234  67.550  1.00  0.00    -0.194 NA 
HETATM   23  C   UNL     1      -7.938  14.495  67.810  1.00  0.00    -0.159 C  
HETATM   24  H   UNL     1      -9.727  13.545  68.212  1.00  0.00     0.000 HD 
HETATM   25  C   UNL     1      -7.807  14.816  69.312  1.00  0.00    -0.122 C  
HETATM   26  C   UNL     1      -7.430  15.714  67.020  1.00  0.00    -0.228 C  
HETATM   27  C   UNL     1      -7.068  13.266  67.502  1.00  0.00    -0.156 C  
ENDBRANCH  21  22
ENDBRANCH  18  21
ENDBRANCH  17  18
ENDBRANCH  16  17
ENDBRANCH  13  16
BRANCH  15  28
HETATM   28  C   UNL     1     -12.158  12.391  70.424  1.00  0.00    -0.297 C  
HETATM   29  O   UNL     1     -12.880  11.987  71.337  1.00  0.00    -0.381 OA 
HETATM   30  C   UNL     1     -11.912  13.868  70.265  1.00  0.00    -0.401 C  
ENDBRANCH  15  28
ENDBRANCH   8  10
ENDBRANCH   6   8
ENDBRANCH   3   6
ENDBRANCH   2   3
TORSDOF 11
ENDMDL
MODEL      176
REMARK 921   NORMALIZED FREE ENERGY PREDICTED BY IDOCK:   -4.30 KCAL/MOL
REMARK 922        TOTAL FREE ENERGY PREDICTED BY IDOCK:   -8.20 KCAL/MOL
REMARK 923 INTER-LIGAND FREE ENERGY PREDICTED BY IDOCK:   -7.25 KCAL/MOL
REMARK 924 INTRA-LIGAND FREE ENERGY PREDICTED BY IDOCK:   -0.95 KCAL/MOL
REMARK 927      BINDING AFFINITY PREDICTED BY RF-SCORE:    0.00 PKD
ROOT
HETATM    1  C   UNL     1      -8.105   6.140  64.893  1.00  0.00    -0.132 C  
HETATM    2  C   UNL     1      -7.783   5.650  66.298  1.00  0.00    -0.099 C  
ENDROOT
BRANCH   2   3
HETATM    3  N   UNL     1      -8.884   4.904  66.915  1.00  0.00    -0.107 N  
BRANCH   3   4
HETATM    4  C   UNL     1      -9.461   3.785  66.163  1.00  0.00    -0.175 C  
HETATM    5  C   UNL     1      -8.673   2.492  66.264  1.00  0.00    -0.126 C  
ENDBRANCH   3   4
BRANCH   3   6
HETATM    6  C   UNL     1      -9.163   5.183  68.253  1.00  0.00    -0.117 C  
HETATM    7  O   UNL     1      -8.371   4.905  69.153  1.00  0.00    -0.081 OA 
BRANCH   6   8
HETATM    8  N   UNL     1     -10.367   5.826  68.472  1.00  0.00    -0.196 N  
HETATM    9  H   UNL     1     -11.220   5.269  68.537  1.00  0.00     0.000 HD 
BRANCH   8  10
HETATM   10  C   UNL     1     -10.452   7.223  68.609  1.00  0.00    -0.194 A  
HETATM   11  C   UNL     1     -10.139   8.088  67.562  1.00  0.00    -0.281 A  
HETATM   12  C   UNL     1     -10.299   9.467  67.716  1.00  0.00    -0.291 A  
HETATM   13  C   UNL     1     -10.797  10.008  68.910  1.00  0.00    -0.220 A  
HETATM   14  C   UNL     1     -10.879   7.753  69.826  1.00  0.00    -0.211 A  
HETATM   15  C   UNL     1     -11.080   9.137  69.977  1.00  0.00    -0.208 A  
BRANCH  13  16
HETATM   16  O   UNL     1     -11.068  11.339  69.076  1.00  0.00    -0.209 OA 
BRANCH  16  17
HETATM   17  C   UNL     1     -11.907  11.972  68.096  1.00  0.00    -0.286 C  
BRANCH  17  18
HETATM   18  C   UNL     1     -11.469  13.434  67.930  1.00  0.00    -0.315 C  
HETATM   19  H   UNL     1     -11.971  14.945  66.780  1.00  0.00     0.000 HD 
HETATM   20  O   UNL     1     -12.242  14.040  66.883  1.00  0.00    -0.436 OA 
BRANCH  18  21
HETATM   21  C   UNL     1     -11.637  14.276  69.209  1.00  0.00    -0.306 C  
BRANCH  21  22
HETATM   22  N   UNL     1     -12.308  13.558  70.300  1.00  0.00    -0.322 NA 
HETATM   23  C   UNL     1     -12.743  14.403  71.432  1.00  0.00    -0.342 C  
HETATM   24  H   UNL     1     -11.717  12.797  70.636  1.00  0.00     0.000 HD 
HETATM   25  C   UNL     1     -13.336  13.457  72.495  1.00  0.00    -0.588 C  
HETATM   26  C   UNL     1     -13.845  15.392  71.013  1.00  0.00    -0.361 C  
HETATM   27  C   UNL     1     -11.565  15.162  72.064  1.00  0.00    -0.496 C  
ENDBRANCH  21  22
ENDBRANCH  18  21
ENDBRANCH  17  18
ENDBRANCH  16  17
ENDBRANCH  13  16
BRANCH  15  28
HETATM   28  C   UNL     1     -11.682   9.536  71.286  1.00  0.00    -0.370 C  
HETATM   29  O   UNL     1     -12.188  10.654  71.397  1.00  0.00    -0.350 OA 
HETATM   30  C   UNL     1     -11.729   8.577  72.445  1.00  0.00    -0.429 C  
ENDBRANCH  15  28
ENDBRANCH   8  10
ENDBRANCH   6   8
ENDBRANCH   3   6
ENDBRANCH   2   3
TORSDOF 11
ENDMDL
MODEL      177
REMARK 921   NORMALIZED FREE ENERGY PREDICTED BY IDOCK:   -4.29 KCAL/MOL
REMARK 922        TOTAL FREE ENERGY PREDICTED BY IDOCK:   -8.18 KCAL/MOL
REMARK 923 INTER-LIGAND FREE ENERGY PREDICTED BY IDOCK:   -6.52 KCAL/MOL
REMARK 924 INTRA-LIGAND FREE ENERGY PREDICTED BY IDOCK:   -1.67 KCAL/MOL
REMARK 927      BINDING AFFINITY PREDICTED BY RF-SCORE:    0.00 PKD
ROOT
HETATM    1  C   UNL     1      -7.700   6.439  68.800  1.00  0.00    -0.101 C  
HETATM    2  C   UNL     1      -7.928   5.317  67.798  1.00  0.00    -0.099 C  
ENDROOT
BRANCH   2   3
HETATM    3  N   UNL     1      -8.655   5.751  66.601  1.00  0.00    -0.117 N  
BRANCH   3   4
HETATM    4  C   UNL     1      -7.926   5.783  65.328  1.00  0.00    -0.120 C  
HETATM    5  C   UNL     1      -6.812   6.812  65.273  1.00  0.00    -0.051 C  
ENDBRANCH   3   4
BRANCH   3   6
HETATM    6  C   UNL     1     -10.036   5.904  66.723  1.00  0.00    -0.192 C  
HETATM    7  O   UNL     1     -10.753   5.007  67.165  1.00  0.00    -0.126 OA 
BRANCH   6   8
HETATM    8  N   UNL     1     -10.518   7.145  66.348  1.00  0.00    -0.456 N  
HETATM    9  H   UNL     1     -11.198   7.203  65.591  1.00  0.00     0.000 HD 
BRANCH   8  10
HETATM   10  C   UNL     1     -10.097   8.329  66.979  1.00  0.00    -0.283 A  
HETATM   11  C   UNL     1      -9.334   9.288  66.318  1.00  0.00    -0.257 A  
HETATM   12  C   UNL     1      -8.991  10.481  66.959  1.00  0.00    -0.149 A  
HETATM   13  C   UNL     1      -9.423  10.749  68.265  1.00  0.00    -0.164 A  
HETATM   14  C   UNL     1     -10.471   8.551  68.304  1.00  0.00    -0.222 A  
HETATM   15  C   UNL     1     -10.164   9.766  68.944  1.00  0.00    -0.213 A  
BRANCH  13  16
HETATM   16  O   UNL     1      -9.202  11.942  68.900  1.00  0.00    -0.026 OA 
BRANCH  16  17
HETATM   17  C   UNL     1      -9.452  13.145  68.156  1.00  0.00    -0.222 C  
BRANCH  17  18
HETATM   18  C   UNL     1     -10.900  13.591  68.394  1.00  0.00    -0.267 C  
HETATM   19  H   UNL     1     -11.848  15.302  68.578  1.00  0.00     0.000 HD 
HETATM   20  O   UNL     1     -10.951  15.025  68.430  1.00  0.00    -0.246 OA 
BRANCH  18  21
HETATM   21  C   UNL     1     -11.883  13.096  67.315  1.00  0.00    -0.367 C  
BRANCH  21  22
HETATM   22  N   UNL     1     -12.171  14.098  66.281  1.00  0.00    -0.455 NA 
HETATM   23  C   UNL     1     -11.763  13.720  64.911  1.00  0.00    -0.363 C  
HETATM   24  H   UNL     1     -11.758  14.995  66.536  1.00  0.00     0.000 HD 
HETATM   25  C   UNL     1     -12.069  14.928  64.004  1.00  0.00    -0.153 C  
HETATM   26  C   UNL     1     -12.571  12.520  64.388  1.00  0.00    -0.497 C  
HETATM   27  C   UNL     1     -10.258  13.421  64.826  1.00  0.00    -0.339 C  
ENDBRANCH  21  22
ENDBRANCH  18  21
ENDBRANCH  17  18
ENDBRANCH  16  17
ENDBRANCH  13  16
BRANCH  15  28
HETATM   28  C   UNL     1     -10.762   9.916  70.306  1.00  0.00    -0.310 C  
HETATM   29  O   UNL     1     -10.142   9.491  71.283  1.00  0.00    -0.273 OA 
HETATM   30  C   UNL     1     -12.074  10.625  70.506  1.00  0.00    -0.448 C  
ENDBRANCH  15  28
ENDBRANCH   8  10
ENDBRANCH   6   8
ENDBRANCH   3   6
ENDBRANCH   2   3
TORSDOF 11
ENDMDL
MODEL      178
REMARK 921   NORMALIZED FREE ENERGY PREDICTED BY IDOCK:   -4.29 KCAL/MOL
REMARK 922        TOTAL FREE ENERGY PREDICTED BY IDOCK:   -8.17 KCAL/MOL
REMARK 923 INTER-LIGAND FREE ENERGY PREDICTED BY IDOCK:   -6.36 KCAL/MOL
REMARK 924 INTRA-LIGAND FREE ENERGY PREDICTED BY IDOCK:   -1.82 KCAL/MOL
REMARK 927      BINDING AFFINITY PREDICTED BY RF-SCORE:    0.00 PKD
ROOT
HETATM    1  C   UNL     1     -10.194  11.089  63.289  1.00  0.00    -0.360 C  
HETATM    2  C   UNL     1     -10.552  12.483  63.783  1.00  0.00    -0.436 C  
ENDROOT
BRANCH   2   3
HETATM    3  N   UNL     1     -11.013  12.501  65.175  1.00  0.00    -0.289 N  
BRANCH   3   4
HETATM    4  C   UNL     1     -12.385  12.949  65.438  1.00  0.00    -0.485 C  
HETATM    5  C   UNL     1     -12.488  14.107  66.413  1.00  0.00    -0.353 C  
ENDBRANCH   3   4
BRANCH   3   6
HETATM    6  C   UNL     1     -10.185  11.897  66.121  1.00  0.00    -0.226 C  
HETATM    7  O   UNL     1      -9.039  12.293  66.329  1.00  0.00    -0.206 OA 
BRANCH   6   8
HETATM    8  N   UNL     1     -10.769  10.858  66.823  1.00  0.00    -0.264 N  
HETATM    9  H   UNL     1     -11.780  10.859  66.957  1.00  0.00     0.000 HD 
BRANCH   8  10
HETATM   10  C   UNL     1     -10.011   9.802  67.359  1.00  0.00    -0.191 A  
HETATM   11  C   UNL     1      -9.362   9.907  68.587  1.00  0.00    -0.149 A  
HETATM   12  C   UNL     1      -8.672   8.813  69.116  1.00  0.00    -0.136 A  
HETATM   13  C   UNL     1      -8.638   7.586  68.440  1.00  0.00    -0.124 A  
HETATM   14  C   UNL     1      -9.923   8.609  66.642  1.00  0.00    -0.357 A  
HETATM   15  C   UNL     1      -9.265   7.491  67.184  1.00  0.00    -0.161 A  
BRANCH  13  16
HETATM   16  O   UNL     1      -8.065   6.456  68.960  1.00  0.00    -0.109 OA 
BRANCH  16  17
HETATM   17  C   UNL     1      -7.328   6.592  70.186  1.00  0.00    -0.089 C  
BRANCH  17  18
HETATM   18  C   UNL     1      -7.620   5.382  71.083  1.00  0.00    -0.097 C  
HETATM   19  H   UNL     1      -6.886   4.636  72.746  1.00  0.00     0.000 HD 
HETATM   20  O   UNL     1      -6.706   5.386  72.190  1.00  0.00    -0.057 OA 
BRANCH  18  21
HETATM   21  C   UNL     1      -9.057   5.358  71.638  1.00  0.00    -0.139 C  
BRANCH  21  22
HETATM   22  N   UNL     1      -9.635   6.694  71.826  1.00  0.00    -0.159 NA 
HETATM   23  C   UNL     1     -11.084   6.795  71.553  1.00  0.00    -0.251 C  
HETATM   24  H   UNL     1      -9.124   7.380  71.269  1.00  0.00     0.000 HD 
HETATM   25  C   UNL     1     -11.469   8.278  71.719  1.00  0.00    -0.353 C  
HETATM   26  C   UNL     1     -11.911   5.976  72.559  1.00  0.00    -0.236 C  
HETATM   27  C   UNL     1     -11.425   6.366  70.116  1.00  0.00    -0.484 C  
ENDBRANCH  21  22
ENDBRANCH  18  21
ENDBRANCH  17  18
ENDBRANCH  16  17
ENDBRANCH  13  16
BRANCH  15  28
HETATM   28  C   UNL     1      -9.385   6.245  66.367  1.00  0.00    -0.151 C  
HETATM   29  O   UNL     1      -8.502   5.975  65.551  1.00  0.00    -0.145 OA 
HETATM   30  C   UNL     1     -10.534   5.293  66.565  1.00  0.00    -0.354 C  
ENDBRANCH  15  28
ENDBRANCH   8  10
ENDBRANCH   6   8
ENDBRANCH   3   6
ENDBRANCH   2   3
TORSDOF 11
ENDMDL
MODEL      179
REMARK 921   NORMALIZED FREE ENERGY PREDICTED BY IDOCK:   -4.28 KCAL/MOL
REMARK 922        TOTAL FREE ENERGY PREDICTED BY IDOCK:   -8.16 KCAL/MOL
REMARK 923 INTER-LIGAND FREE ENERGY PREDICTED BY IDOCK:   -7.36 KCAL/MOL
REMARK 924 INTRA-LIGAND FREE ENERGY PREDICTED BY IDOCK:   -0.79 KCAL/MOL
REMARK 927      BINDING AFFINITY PREDICTED BY RF-SCORE:    0.00 PKD
ROOT
HETATM    1  C   UNL     1     -10.570  16.873  68.541  1.00  0.00    -0.367 C  
HETATM    2  C   UNL     1     -10.127  15.671  69.364  1.00  0.00    -0.269 C  
ENDROOT
BRANCH   2   3
HETATM    3  N   UNL     1     -11.247  14.936  69.961  1.00  0.00    -0.261 N  
BRANCH   3   4
HETATM    4  C   UNL     1     -11.680  15.320  71.309  1.00  0.00    -0.372 C  
HETATM    5  C   UNL     1     -13.144  15.707  71.407  1.00  0.00    -0.559 C  
ENDBRANCH   3   4
BRANCH   3   6
HETATM    6  C   UNL     1     -11.947  14.067  69.125  1.00  0.00    -0.360 C  
HETATM    7  O   UNL     1     -12.002  14.239  67.908  1.00  0.00    -0.356 OA 
BRANCH   6   8
HETATM    8  N   UNL     1     -12.530  12.989  69.766  1.00  0.00    -0.041 N  
HETATM    9  H   UNL     1     -13.473  13.088  70.142  1.00  0.00     0.000 HD 
BRANCH   8  10
HETATM   10  C   UNL     1     -11.861  11.761  69.916  1.00  0.00    -0.348 A  
HETATM   11  C   UNL     1     -10.694  11.464  69.215  1.00  0.00    -0.195 A  
HETATM   12  C   UNL     1     -10.024  10.259  69.441  1.00  0.00    -0.254 A  
HETATM   13  C   UNL     1     -10.492   9.338  70.388  1.00  0.00    -0.245 A  
HETATM   14  C   UNL     1     -12.378  10.821  70.807  1.00  0.00    -0.480 A  
HETATM   15  C   UNL     1     -11.689   9.623  71.070  1.00  0.00    -0.433 A  
BRANCH  13  16
HETATM   16  O   UNL     1      -9.819   8.193  70.720  1.00  0.00    -0.178 OA 
BRANCH  16  17
HETATM   17  C   UNL     1      -8.384   8.258  70.766  1.00  0.00    -0.123 C  
BRANCH  17  18
HETATM   18  C   UNL     1      -7.813   6.846  70.577  1.00  0.00    -0.105 C  
HETATM   19  H   UNL     1      -8.136   5.068  71.345  1.00  0.00     0.000 HD 
HETATM   20  O   UNL     1      -8.490   5.942  71.463  1.00  0.00    -0.126 OA 
BRANCH  18  21
HETATM   21  C   UNL     1      -7.951   6.313  69.137  1.00  0.00    -0.110 C  
BRANCH  21  22
HETATM   22  N   UNL     1      -9.330   6.332  68.635  1.00  0.00    -0.123 NA 
HETATM   23  C   UNL     1      -9.469   6.634  67.195  1.00  0.00    -0.136 C  
HETATM   24  H   UNL     1      -9.896   6.978  69.186  1.00  0.00     0.000 HD 
HETATM   25  C   UNL     1     -10.979   6.693  66.894  1.00  0.00    -0.396 C  
HETATM   26  C   UNL     1      -8.855   5.527  66.320  1.00  0.00    -0.134 C  
HETATM   27  C   UNL     1      -8.852   7.995  66.835  1.00  0.00    -0.146 C  
ENDBRANCH  21  22
ENDBRANCH  18  21
ENDBRANCH  17  18
ENDBRANCH  16  17
ENDBRANCH  13  16
BRANCH  15  28
HETATM   28  C   UNL     1     -12.287   8.790  72.157  1.00  0.00    -0.389 C  
HETATM   29  O   UNL     1     -11.542   8.143  72.896  1.00  0.00    -0.386 OA 
HETATM   30  C   UNL     1     -13.773   8.772  72.396  1.00  0.00    -0.471 C  
ENDBRANCH  15  28
ENDBRANCH   8  10
ENDBRANCH   6   8
ENDBRANCH   3   6
ENDBRANCH   2   3
TORSDOF 11
ENDMDL
MODEL      180
REMARK 921   NORMALIZED FREE ENERGY PREDICTED BY IDOCK:   -4.27 KCAL/MOL
REMARK 922        TOTAL FREE ENERGY PREDICTED BY IDOCK:   -8.15 KCAL/MOL
REMARK 923 INTER-LIGAND FREE ENERGY PREDICTED BY IDOCK:   -7.40 KCAL/MOL
REMARK 924 INTRA-LIGAND FREE ENERGY PREDICTED BY IDOCK:   -0.75 KCAL/MOL
REMARK 927      BINDING AFFINITY PREDICTED BY RF-SCORE:    0.00 PKD
ROOT
HETATM    1  C   UNL     1      -6.665   9.869  69.910  1.00  0.00    -0.088 C  
HETATM    2  C   UNL     1      -7.906   9.065  69.550  1.00  0.00    -0.094 C  
ENDROOT
BRANCH   2   3
HETATM    3  N   UNL     1      -7.828   8.447  68.222  1.00  0.00    -0.109 N  
BRANCH   3   4
HETATM    4  C   UNL     1      -8.044   6.999  68.125  1.00  0.00    -0.119 C  
HETATM    5  C   UNL     1      -8.934   6.426  69.213  1.00  0.00    -0.133 C  
ENDBRANCH   3   4
BRANCH   3   6
HETATM    6  C   UNL     1      -7.760   9.310  67.129  1.00  0.00    -0.095 C  
HETATM    7  O   UNL     1      -6.686   9.700  66.674  1.00  0.00    -0.076 OA 
BRANCH   6   8
HETATM    8  N   UNL     1      -8.984   9.650  66.582  1.00  0.00    -0.144 N  
HETATM    9  H   UNL     1      -9.479   8.964  66.013  1.00  0.00     0.000 HD 
BRANCH   8  10
HETATM   10  C   UNL     1      -9.566  10.914  66.787  1.00  0.00    -0.183 A  
HETATM   11  C   UNL     1      -9.077  11.807  67.737  1.00  0.00    -0.178 A  
HETATM   12  C   UNL     1      -9.641  13.079  67.865  1.00  0.00    -0.215 A  
HETATM   13  C   UNL     1     -10.690  13.491  67.032  1.00  0.00    -0.277 A  
HETATM   14  C   UNL     1     -10.657  11.285  66.001  1.00  0.00    -0.314 A  
HETATM   15  C   UNL     1     -11.205  12.577  66.096  1.00  0.00    -0.362 A  
BRANCH  13  16
HETATM   16  O   UNL     1     -11.208  14.758  67.047  1.00  0.00    -0.328 OA 
BRANCH  16  17
HETATM   17  C   UNL     1     -11.690  15.262  68.303  1.00  0.00    -0.301 C  
BRANCH  17  18
HETATM   18  C   UNL     1     -10.888  16.515  68.681  1.00  0.00    -0.345 C  
HETATM   19  H   UNL     1      -9.085  16.897  69.359  1.00  0.00     0.000 HD 
HETATM   20  O   UNL     1      -9.581  16.121  69.125  1.00  0.00    -0.230 OA 
BRANCH  18  21
HETATM   21  C   UNL     1     -10.727  17.517  67.521  1.00  0.00    -0.280 C  
BRANCH  21  22
HETATM   22  N   UNL     1      -9.355  17.597  67.003  1.00  0.00    -0.251 NA 
HETATM   23  C   UNL     1      -8.720  18.927  67.116  1.00  0.00    -0.284 C  
HETATM   24  H   UNL     1      -9.325  17.274  66.036  1.00  0.00     0.000 HD 
HETATM   25  C   UNL     1      -7.337  18.821  66.443  1.00  0.00    -0.268 C  
HETATM   26  C   UNL     1      -8.502  19.331  68.584  1.00  0.00    -0.403 C  
HETATM   27  C   UNL     1      -9.530  20.011  66.385  1.00  0.00    -0.512 C  
ENDBRANCH  21  22
ENDBRANCH  18  21
ENDBRANCH  17  18
ENDBRANCH  16  17
ENDBRANCH  13  16
BRANCH  15  28
HETATM   28  C   UNL     1     -12.267  12.875  65.086  1.00  0.00    -0.470 C  
HETATM   29  O   UNL     1     -13.202  13.613  65.400  1.00  0.00    -0.678 OA 
HETATM   30  C   UNL     1     -12.180  12.334  63.684  1.00  0.00    -0.665 C  
ENDBRANCH  15  28
ENDBRANCH   8  10
ENDBRANCH   6   8
ENDBRANCH   3   6
ENDBRANCH   2   3
TORSDOF 11
ENDMDL
MODEL      181
REMARK 921   NORMALIZED FREE ENERGY PREDICTED BY IDOCK:   -4.27 KCAL/MOL
REMARK 922        TOTAL FREE ENERGY PREDICTED BY IDOCK:   -8.15 KCAL/MOL
REMARK 923 INTER-LIGAND FREE ENERGY PREDICTED BY IDOCK:   -7.25 KCAL/MOL
REMARK 924 INTRA-LIGAND FREE ENERGY PREDICTED BY IDOCK:   -0.90 KCAL/MOL
REMARK 927      BINDING AFFINITY PREDICTED BY RF-SCORE:    0.00 PKD
ROOT
HETATM    1  C   UNL     1      -9.891   4.788  66.077  1.00  0.00    -0.229 C  
HETATM    2  C   UNL     1     -10.577   5.817  66.964  1.00  0.00    -0.300 C  
ENDROOT
BRANCH   2   3
HETATM    3  N   UNL     1      -9.636   6.730  67.622  1.00  0.00    -0.124 N  
BRANCH   3   4
HETATM    4  C   UNL     1      -9.469   6.613  69.075  1.00  0.00    -0.131 C  
HETATM    5  C   UNL     1      -9.677   7.911  69.834  1.00  0.00    -0.176 C  
ENDBRANCH   3   4
BRANCH   3   6
HETATM    6  C   UNL     1      -8.821   7.499  66.793  1.00  0.00    -0.140 C  
HETATM    7  O   UNL     1      -7.595   7.399  66.813  1.00  0.00    -0.096 OA 
BRANCH   6   8
HETATM    8  N   UNL     1      -9.500   8.341  65.932  1.00  0.00    -0.430 N  
HETATM    9  H   UNL     1      -9.990   7.939  65.133  1.00  0.00     0.000 HD 
BRANCH   8  10
HETATM   10  C   UNL     1      -9.535   9.734  66.124  1.00  0.00    -0.205 A  
HETATM   11  C   UNL     1      -8.720  10.372  67.057  1.00  0.00    -0.132 A  
HETATM   12  C   UNL     1      -8.737  11.764  67.172  1.00  0.00    -0.169 A  
HETATM   13  C   UNL     1      -9.551  12.547  66.343  1.00  0.00    -0.247 A  
HETATM   14  C   UNL     1     -10.403  10.496  65.344  1.00  0.00    -0.292 A  
HETATM   15  C   UNL     1     -10.399  11.900  65.426  1.00  0.00    -0.306 A  
BRANCH  13  16
HETATM   16  O   UNL     1      -9.530  13.916  66.345  1.00  0.00    -0.280 OA 
BRANCH  16  17
HETATM   17  C   UNL     1      -8.449  14.561  67.038  1.00  0.00    -0.196 C  
BRANCH  17  18
HETATM   18  C   UNL     1      -8.201  15.939  66.408  1.00  0.00    -0.228 C  
HETATM   19  H   UNL     1      -9.170  17.142  65.195  1.00  0.00     0.000 HD 
HETATM   20  O   UNL     1      -9.324  16.288  65.585  1.00  0.00    -0.457 OA 
BRANCH  18  21
HETATM   21  C   UNL     1      -7.987  17.060  67.443  1.00  0.00    -0.178 C  
BRANCH  21  22
HETATM   22  N   UNL     1      -9.121  17.987  67.545  1.00  0.00    -0.252 NA 
HETATM   23  C   UNL     1      -8.777  19.417  67.395  1.00  0.00    -0.301 C  
HETATM   24  H   UNL     1      -9.621  17.836  68.422  1.00  0.00     0.000 HD 
HETATM   25  C   UNL     1     -10.076  20.215  67.621  1.00  0.00    -0.542 C  
HETATM   26  C   UNL     1      -8.268  19.733  65.977  1.00  0.00    -0.327 C  
HETATM   27  C   UNL     1      -7.744  19.868  68.440  1.00  0.00    -0.284 C  
ENDBRANCH  21  22
ENDBRANCH  18  21
ENDBRANCH  17  18
ENDBRANCH  16  17
ENDBRANCH  13  16
BRANCH  15  28
HETATM   28  C   UNL     1     -11.272  12.582  64.422  1.00  0.00    -0.339 C  
HETATM   29  O   UNL     1     -11.073  12.386  63.222  1.00  0.00    -0.438 OA 
HETATM   30  C   UNL     1     -12.419  13.456  64.855  1.00  0.00    -0.447 C  
ENDBRANCH  15  28
ENDBRANCH   8  10
ENDBRANCH   6   8
ENDBRANCH   3   6
ENDBRANCH   2   3
TORSDOF 11
ENDMDL
MODEL      182
REMARK 921   NORMALIZED FREE ENERGY PREDICTED BY IDOCK:   -4.26 KCAL/MOL
REMARK 922        TOTAL FREE ENERGY PREDICTED BY IDOCK:   -8.13 KCAL/MOL
REMARK 923 INTER-LIGAND FREE ENERGY PREDICTED BY IDOCK:   -7.42 KCAL/MOL
REMARK 924 INTRA-LIGAND FREE ENERGY PREDICTED BY IDOCK:   -0.71 KCAL/MOL
REMARK 927      BINDING AFFINITY PREDICTED BY RF-SCORE:    0.00 PKD
ROOT
HETATM    1  C   UNL     1      -8.059   3.100  66.776  1.00  0.00    -0.080 C  
HETATM    2  C   UNL     1      -9.358   3.268  67.551  1.00  0.00    -0.206 C  
ENDROOT
BRANCH   2   3
HETATM    3  N   UNL     1      -9.562   4.633  68.047  1.00  0.00    -0.152 N  
BRANCH   3   4
HETATM    4  C   UNL     1      -9.368   4.879  69.480  1.00  0.00    -0.130 C  
HETATM    5  C   UNL     1     -10.617   5.337  70.210  1.00  0.00    -0.288 C  
ENDBRANCH   3   4
BRANCH   3   6
HETATM    6  C   UNL     1      -9.724   5.634  67.089  1.00  0.00    -0.139 C  
HETATM    7  O   UNL     1     -10.611   5.583  66.239  1.00  0.00    -0.233 OA 
BRANCH   6   8
HETATM    8  N   UNL     1      -8.840   6.692  67.203  1.00  0.00    -0.114 N  
HETATM    9  H   UNL     1      -7.839   6.508  67.144  1.00  0.00     0.000 HD 
BRANCH   8  10
HETATM   10  C   UNL     1      -9.282   8.014  67.397  1.00  0.00    -0.134 A  
HETATM   11  C   UNL     1      -9.342   8.933  66.352  1.00  0.00    -0.262 A  
HETATM   12  C   UNL     1      -9.848  10.217  66.572  1.00  0.00    -0.265 A  
HETATM   13  C   UNL     1     -10.325  10.599  67.833  1.00  0.00    -0.199 A  
HETATM   14  C   UNL     1      -9.685   8.405  68.673  1.00  0.00    -0.171 A  
HETATM   15  C   UNL     1     -10.233   9.681  68.895  1.00  0.00    -0.214 A  
BRANCH  13  16
HETATM   16  O   UNL     1     -10.923  11.806  68.076  1.00  0.00    -0.202 OA 
BRANCH  16  17
HETATM   17  C   UNL     1     -10.067  12.934  68.320  1.00  0.00    -0.242 C  
BRANCH  17  18
HETATM   18  C   UNL     1     -10.932  14.175  68.574  1.00  0.00    -0.254 C  
HETATM   19  H   UNL     1     -12.010  15.403  67.483  1.00  0.00     0.000 HD 
HETATM   20  O   UNL     1     -11.474  14.633  67.326  1.00  0.00    -0.346 OA 
BRANCH  18  21
HETATM   21  C   UNL     1     -12.098  13.925  69.549  1.00  0.00    -0.342 C  
BRANCH  21  22
HETATM   22  N   UNL     1     -11.877  14.493  70.885  1.00  0.00    -0.380 NA 
HETATM   23  C   UNL     1     -13.028  14.391  71.807  1.00  0.00    -0.345 C  
HETATM   24  H   UNL     1     -11.573  15.464  70.808  1.00  0.00     0.000 HD 
HETATM   25  C   UNL     1     -12.625  15.117  73.106  1.00  0.00    -0.585 C  
HETATM   26  C   UNL     1     -13.344  12.928  72.162  1.00  0.00    -0.615 C  
HETATM   27  C   UNL     1     -14.279  15.080  71.238  1.00  0.00    -0.508 C  
ENDBRANCH  21  22
ENDBRANCH  18  21
ENDBRANCH  17  18
ENDBRANCH  16  17
ENDBRANCH  13  16
BRANCH  15  28
HETATM   28  C   UNL     1     -10.758   9.899  70.277  1.00  0.00    -0.310 C  
HETATM   29  O   UNL     1     -11.667  10.711  70.452  1.00  0.00    -0.299 OA 
HETATM   30  C   UNL     1     -10.233   9.104  71.443  1.00  0.00    -0.402 C  
ENDBRANCH  15  28
ENDBRANCH   8  10
ENDBRANCH   6   8
ENDBRANCH   3   6
ENDBRANCH   2   3
TORSDOF 11
ENDMDL
MODEL      183
REMARK 921   NORMALIZED FREE ENERGY PREDICTED BY IDOCK:   -4.25 KCAL/MOL
REMARK 922        TOTAL FREE ENERGY PREDICTED BY IDOCK:   -8.12 KCAL/MOL
REMARK 923 INTER-LIGAND FREE ENERGY PREDICTED BY IDOCK:   -6.73 KCAL/MOL
REMARK 924 INTRA-LIGAND FREE ENERGY PREDICTED BY IDOCK:   -1.38 KCAL/MOL
REMARK 927      BINDING AFFINITY PREDICTED BY RF-SCORE:    0.00 PKD
ROOT
HETATM    1  C   UNL     1     -11.378  15.938  68.252  1.00  0.00    -0.342 C  
HETATM    2  C   UNL     1     -11.131  15.225  69.574  1.00  0.00    -0.281 C  
ENDROOT
BRANCH   2   3
HETATM    3  N   UNL     1     -11.968  14.034  69.753  1.00  0.00    -0.315 N  
BRANCH   3   4
HETATM    4  C   UNL     1     -13.141  14.144  70.627  1.00  0.00    -0.151 C  
HETATM    5  C   UNL     1     -12.997  13.429  71.958  1.00  0.00    -0.409 C  
ENDBRANCH   3   4
BRANCH   3   6
HETATM    6  C   UNL     1     -11.704  12.948  68.919  1.00  0.00    -0.327 C  
HETATM    7  O   UNL     1     -12.378  12.721  67.914  1.00  0.00    -0.181 OA 
BRANCH   6   8
HETATM    8  N   UNL     1     -10.612  12.184  69.289  1.00  0.00    -0.439 N  
HETATM    9  H   UNL     1      -9.732  12.652  69.502  1.00  0.00     0.000 HD 
BRANCH   8  10
HETATM   10  C   UNL     1     -10.680  10.782  69.382  1.00  0.00    -0.233 A  
HETATM   11  C   UNL     1      -9.994   9.950  68.501  1.00  0.00    -0.175 A  
HETATM   12  C   UNL     1     -10.034   8.563  68.667  1.00  0.00    -0.197 A  
HETATM   13  C   UNL     1     -10.742   7.982  69.728  1.00  0.00    -0.231 A  
HETATM   14  C   UNL     1     -11.448  10.214  70.399  1.00  0.00    -0.400 A  
HETATM   15  C   UNL     1     -11.462   8.822  70.596  1.00  0.00    -0.263 A  
BRANCH  13  16
HETATM   16  O   UNL     1     -10.729   6.639  69.994  1.00  0.00    -0.209 OA 
BRANCH  16  17
HETATM   17  C   UNL     1      -9.776   5.832  69.285  1.00  0.00    -0.144 C  
BRANCH  17  18
HETATM   18  C   UNL     1      -8.616   5.481  70.227  1.00  0.00    -0.126 C  
HETATM   19  H   UNL     1      -6.845   6.224  70.638  1.00  0.00     0.000 HD 
HETATM   20  O   UNL     1      -7.563   6.441  70.054  1.00  0.00    -0.091 OA 
BRANCH  18  21
HETATM   21  C   UNL     1      -9.016   5.459  71.715  1.00  0.00    -0.135 C  
BRANCH  21  22
HETATM   22  N   UNL     1      -9.503   4.151  72.172  1.00  0.00    -0.127 NA 
HETATM   23  C   UNL     1     -10.418   4.193  73.332  1.00  0.00    -0.179 C  
HETATM   24  H   UNL     1      -8.716   3.532  72.368  1.00  0.00     0.000 HD 
HETATM   25  C   UNL     1     -10.737   2.732  73.704  1.00  0.00    -0.277 C  
HETATM   26  C   UNL     1     -11.744   4.893  72.984  1.00  0.00    -0.217 C  
HETATM   27  C   UNL     1      -9.767   4.870  74.549  1.00  0.00    -0.181 C  
ENDBRANCH  21  22
ENDBRANCH  18  21
ENDBRANCH  17  18
ENDBRANCH  16  17
ENDBRANCH  13  16
BRANCH  15  28
HETATM   28  C   UNL     1     -12.206   8.377  71.814  1.00  0.00    -0.330 C  
HETATM   29  O   UNL     1     -11.597   8.261  72.880  1.00  0.00    -0.351 OA 
HETATM   30  C   UNL     1     -13.689   8.124  71.771  1.00  0.00    -0.422 C  
ENDBRANCH  15  28
ENDBRANCH   8  10
ENDBRANCH   6   8
ENDBRANCH   3   6
ENDBRANCH   2   3
TORSDOF 11
ENDMDL
MODEL      184
REMARK 921   NORMALIZED FREE ENERGY PREDICTED BY IDOCK:   -4.24 KCAL/MOL
REMARK 922        TOTAL FREE ENERGY PREDICTED BY IDOCK:   -8.11 KCAL/MOL
REMARK 923 INTER-LIGAND FREE ENERGY PREDICTED BY IDOCK:   -7.11 KCAL/MOL
REMARK 924 INTRA-LIGAND FREE ENERGY PREDICTED BY IDOCK:   -0.99 KCAL/MOL
REMARK 927      BINDING AFFINITY PREDICTED BY RF-SCORE:    0.00 PKD
ROOT
HETATM    1  C   UNL     1     -10.213   5.056  67.316  1.00  0.00    -0.219 C  
HETATM    2  C   UNL     1      -9.519   6.032  68.257  1.00  0.00    -0.115 C  
ENDROOT
BRANCH   2   3
HETATM    3  N   UNL     1      -8.927   5.380  69.430  1.00  0.00    -0.104 N  
BRANCH   3   4
HETATM    4  C   UNL     1      -8.940   3.914  69.480  1.00  0.00    -0.106 C  
HETATM    5  C   UNL     1      -9.636   3.338  70.699  1.00  0.00    -0.223 C  
ENDBRANCH   3   4
BRANCH   3   6
HETATM    6  C   UNL     1      -8.214   6.194  70.310  1.00  0.00    -0.124 C  
HETATM    7  O   UNL     1      -7.022   6.445  70.142  1.00  0.00    -0.059 OA 
BRANCH   6   8
HETATM    8  N   UNL     1      -8.962   6.720  71.347  1.00  0.00    -0.142 N  
HETATM    9  H   UNL     1      -8.891   6.296  72.272  1.00  0.00     0.000 HD 
BRANCH   8  10
HETATM   10  C   UNL     1      -9.817   7.822  71.165  1.00  0.00    -0.169 A  
HETATM   11  C   UNL     1      -9.420   8.958  70.464  1.00  0.00    -0.243 A  
HETATM   12  C   UNL     1     -10.321  10.004  70.249  1.00  0.00    -0.301 A  
HETATM   13  C   UNL     1     -11.642   9.926  70.709  1.00  0.00    -0.349 A  
HETATM   14  C   UNL     1     -11.108   7.763  71.691  1.00  0.00    -0.275 A  
HETATM   15  C   UNL     1     -12.033   8.793  71.445  1.00  0.00    -0.367 A  
BRANCH  13  16
HETATM   16  O   UNL     1     -12.591  10.875  70.436  1.00  0.00    -0.320 OA 
BRANCH  16  17
HETATM   17  C   UNL     1     -12.724  11.964  71.364  1.00  0.00    -0.290 C  
BRANCH  17  18
HETATM   18  C   UNL     1     -12.875  13.274  70.580  1.00  0.00    -0.057 C  
HETATM   19  H   UNL     1     -12.786  15.193  70.991  1.00  0.00     0.000 HD 
HETATM   20  O   UNL     1     -12.693  14.381  71.476  1.00  0.00    -0.310 OA 
BRANCH  18  21
HETATM   21  C   UNL     1     -11.871  13.417  69.419  1.00  0.00    -0.335 C  
BRANCH  21  22
HETATM   22  N   UNL     1     -12.506  13.709  68.129  1.00  0.00    -0.206 NA 
HETATM   23  C   UNL     1     -11.730  13.296  66.940  1.00  0.00    -0.388 C  
HETATM   24  H   UNL     1     -12.740  14.701  68.068  1.00  0.00     0.000 HD 
HETATM   25  C   UNL     1     -12.520  13.767  65.704  1.00  0.00    -0.541 C  
HETATM   26  C   UNL     1     -11.590  11.766  66.857  1.00  0.00    -0.310 C  
HETATM   27  C   UNL     1     -10.342  13.956  66.907  1.00  0.00    -0.266 C  
ENDBRANCH  21  22
ENDBRANCH  18  21
ENDBRANCH  17  18
ENDBRANCH  16  17
ENDBRANCH  13  16
BRANCH  15  28
HETATM   28  C   UNL     1     -13.415   8.517  71.944  1.00  0.00    -0.383 C  
HETATM   29  O   UNL     1     -13.908   9.266  72.788  1.00  0.00    -0.403 OA 
HETATM   30  C   UNL     1     -14.228   7.377  71.392  1.00  0.00    -0.508 C  
ENDBRANCH  15  28
ENDBRANCH   8  10
ENDBRANCH   6   8
ENDBRANCH   3   6
ENDBRANCH   2   3
TORSDOF 11
ENDMDL
MODEL      185
REMARK 921   NORMALIZED FREE ENERGY PREDICTED BY IDOCK:   -4.23 KCAL/MOL
REMARK 922        TOTAL FREE ENERGY PREDICTED BY IDOCK:   -8.09 KCAL/MOL
REMARK 923 INTER-LIGAND FREE ENERGY PREDICTED BY IDOCK:   -7.08 KCAL/MOL
REMARK 924 INTRA-LIGAND FREE ENERGY PREDICTED BY IDOCK:   -1.00 KCAL/MOL
REMARK 927      BINDING AFFINITY PREDICTED BY RF-SCORE:    0.00 PKD
ROOT
HETATM    1  C   UNL     1     -10.500  17.173  68.763  1.00  0.00    -0.351 C  
HETATM    2  C   UNL     1     -10.197  15.944  69.608  1.00  0.00    -0.280 C  
ENDROOT
BRANCH   2   3
HETATM    3  N   UNL     1     -11.355  15.059  69.775  1.00  0.00    -0.268 N  
BRANCH   3   4
HETATM    4  C   UNL     1     -12.410  15.478  70.705  1.00  0.00    -0.416 C  
HETATM    5  C   UNL     1     -11.899  16.012  72.030  1.00  0.00    -0.623 C  
ENDBRANCH   3   4
BRANCH   3   6
HETATM    6  C   UNL     1     -11.464  13.990  68.887  1.00  0.00    -0.294 C  
HETATM    7  O   UNL     1     -10.803  13.935  67.851  1.00  0.00    -0.239 OA 
BRANCH   6   8
HETATM    8  N   UNL     1     -12.336  12.993  69.285  1.00  0.00    -0.060 N  
HETATM    9  H   UNL     1     -13.326  13.215  69.388  1.00  0.00     0.000 HD 
BRANCH   8  10
HETATM   10  C   UNL     1     -11.898  11.683  69.552  1.00  0.00    -0.348 A  
HETATM   11  C   UNL     1     -10.733  11.165  68.991  1.00  0.00    -0.265 A  
HETATM   12  C   UNL     1     -10.297   9.882  69.332  1.00  0.00    -0.238 A  
HETATM   13  C   UNL     1     -11.003   9.102  70.258  1.00  0.00    -0.245 A  
HETATM   14  C   UNL     1     -12.649  10.889  70.418  1.00  0.00    -0.376 A  
HETATM   15  C   UNL     1     -12.197   9.613  70.797  1.00  0.00    -0.309 A  
BRANCH  13  16
HETATM   16  O   UNL     1     -10.565   7.883  70.703  1.00  0.00    -0.212 OA 
BRANCH  16  17
HETATM   17  C   UNL     1     -11.006   6.718  69.987  1.00  0.00    -0.295 C  
BRANCH  17  18
HETATM   18  C   UNL     1      -9.843   5.723  69.883  1.00  0.00    -0.179 C  
HETATM   19  H   UNL     1      -8.036   5.726  69.115  1.00  0.00     0.000 HD 
HETATM   20  O   UNL     1      -8.756   6.342  69.179  1.00  0.00    -0.127 OA 
BRANCH  18  21
HETATM   21  C   UNL     1      -9.324   5.237  71.250  1.00  0.00    -0.148 C  
BRANCH  21  22
HETATM   22  N   UNL     1      -8.350   6.147  71.865  1.00  0.00    -0.118 NA 
HETATM   23  C   UNL     1      -8.406   6.222  73.340  1.00  0.00    -0.114 C  
HETATM   24  H   UNL     1      -8.438   7.080  71.461  1.00  0.00     0.000 HD 
HETATM   25  C   UNL     1      -7.377   7.285  73.773  1.00  0.00    -0.104 C  
HETATM   26  C   UNL     1      -8.009   4.887  73.993  1.00  0.00    -0.101 C  
HETATM   27  C   UNL     1      -9.793   6.662  73.837  1.00  0.00    -0.292 C  
ENDBRANCH  21  22
ENDBRANCH  18  21
ENDBRANCH  17  18
ENDBRANCH  16  17
ENDBRANCH  13  16
BRANCH  15  28
HETATM   28  C   UNL     1     -13.029   8.947  71.846  1.00  0.00    -0.382 C  
HETATM   29  O   UNL     1     -12.625   8.928  73.010  1.00  0.00    -0.200 OA 
HETATM   30  C   UNL     1     -14.372   8.353  71.512  1.00  0.00    -0.499 C  
ENDBRANCH  15  28
ENDBRANCH   8  10
ENDBRANCH   6   8
ENDBRANCH   3   6
ENDBRANCH   2   3
TORSDOF 11
ENDMDL
MODEL      186
REMARK 921   NORMALIZED FREE ENERGY PREDICTED BY IDOCK:   -4.23 KCAL/MOL
REMARK 922        TOTAL FREE ENERGY PREDICTED BY IDOCK:   -8.08 KCAL/MOL
REMARK 923 INTER-LIGAND FREE ENERGY PREDICTED BY IDOCK:   -6.85 KCAL/MOL
REMARK 924 INTRA-LIGAND FREE ENERGY PREDICTED BY IDOCK:   -1.23 KCAL/MOL
REMARK 927      BINDING AFFINITY PREDICTED BY RF-SCORE:    0.00 PKD
ROOT
HETATM    1  C   UNL     1     -12.461  11.863  63.666  1.00  0.00    -0.583 C  
HETATM    2  C   UNL     1     -12.484  13.108  64.541  1.00  0.00    -0.342 C  
ENDROOT
BRANCH   2   3
HETATM    3  N   UNL     1     -11.327  13.204  65.438  1.00  0.00    -0.294 N  
BRANCH   3   4
HETATM    4  C   UNL     1     -10.311  14.220  65.142  1.00  0.00    -0.415 C  
HETATM    5  C   UNL     1     -10.875  15.596  64.840  1.00  0.00    -0.438 C  
ENDBRANCH   3   4
BRANCH   3   6
HETATM    6  C   UNL     1     -11.381  12.463  66.618  1.00  0.00    -0.339 C  
HETATM    7  O   UNL     1     -12.393  12.427  67.317  1.00  0.00    -0.366 OA 
BRANCH   6   8
HETATM    8  N   UNL     1     -10.232  11.751  66.909  1.00  0.00    -0.206 N  
HETATM    9  H   UNL     1      -9.334  12.233  66.888  1.00  0.00     0.000 HD 
BRANCH   8  10
HETATM   10  C   UNL     1     -10.265  10.382  67.231  1.00  0.00    -0.211 A  
HETATM   11  C   UNL     1     -10.035   9.393  66.277  1.00  0.00    -0.353 A  
HETATM   12  C   UNL     1     -10.012   8.046  66.650  1.00  0.00    -0.326 A  
HETATM   13  C   UNL     1     -10.193   7.664  67.986  1.00  0.00    -0.202 A  
HETATM   14  C   UNL     1     -10.519  10.010  68.550  1.00  0.00    -0.229 A  
HETATM   15  C   UNL     1     -10.458   8.661  68.942  1.00  0.00    -0.211 A  
BRANCH  13  16
HETATM   16  O   UNL     1     -10.078   6.370  68.420  1.00  0.00    -0.141 OA 
BRANCH  16  17
HETATM   17  C   UNL     1      -8.765   5.904  68.773  1.00  0.00    -0.109 C  
BRANCH  17  18
HETATM   18  C   UNL     1      -8.836   4.407  69.101  1.00  0.00    -0.092 C  
HETATM   19  H   UNL     1     -10.146   3.193  69.919  1.00  0.00     0.000 HD 
HETATM   20  O   UNL     1     -10.101   4.120  69.716  1.00  0.00    -0.137 OA 
BRANCH  18  21
HETATM   21  C   UNL     1      -8.676   3.498  67.867  1.00  0.00    -0.108 C  
BRANCH  21  22
HETATM   22  N   UNL     1      -9.702   3.717  66.841  1.00  0.00    -0.366 NA 
HETATM   23  C   UNL     1      -9.277   3.420  65.456  1.00  0.00    -0.153 C  
HETATM   24  H   UNL     1     -10.063   4.669  66.902  1.00  0.00     0.000 HD 
HETATM   25  C   UNL     1     -10.455   3.796  64.536  1.00  0.00    -0.193 C  
HETATM   26  C   UNL     1      -8.983   1.923  65.260  1.00  0.00    -0.123 C  
HETATM   27  C   UNL     1      -8.056   4.257  65.043  1.00  0.00    -0.098 C  
ENDBRANCH  21  22
ENDBRANCH  18  21
ENDBRANCH  17  18
ENDBRANCH  16  17
ENDBRANCH  13  16
BRANCH  15  28
HETATM   28  C   UNL     1     -10.603   8.435  70.413  1.00  0.00    -0.223 C  
HETATM   29  O   UNL     1     -11.687   8.050  70.856  1.00  0.00    -0.287 OA 
HETATM   30  C   UNL     1      -9.437   8.617  71.346  1.00  0.00    -0.306 C  
ENDBRANCH  15  28
ENDBRANCH   8  10
ENDBRANCH   6   8
ENDBRANCH   3   6
ENDBRANCH   2   3
TORSDOF 11
ENDMDL
MODEL      187
REMARK 921   NORMALIZED FREE ENERGY PREDICTED BY IDOCK:   -4.20 KCAL/MOL
REMARK 922        TOTAL FREE ENERGY PREDICTED BY IDOCK:   -8.03 KCAL/MOL
REMARK 923 INTER-LIGAND FREE ENERGY PREDICTED BY IDOCK:   -7.52 KCAL/MOL
REMARK 924 INTRA-LIGAND FREE ENERGY PREDICTED BY IDOCK:   -0.51 KCAL/MOL
REMARK 927      BINDING AFFINITY PREDICTED BY RF-SCORE:    0.00 PKD
ROOT
HETATM    1  C   UNL     1      -8.694   4.730  67.058  1.00  0.00    -0.103 C  
HETATM    2  C   UNL     1      -9.176   5.403  65.780  1.00  0.00    -0.138 C  
ENDROOT
BRANCH   2   3
HETATM    3  N   UNL     1      -8.414   6.610  65.441  1.00  0.00    -0.138 N  
BRANCH   3   4
HETATM    4  C   UNL     1      -7.621   6.596  64.207  1.00  0.00    -0.104 C  
HETATM    5  C   UNL     1      -7.890   7.765  63.278  1.00  0.00    -0.129 C  
ENDBRANCH   3   4
BRANCH   3   6
HETATM    6  C   UNL     1      -8.663   7.748  66.207  1.00  0.00    -0.155 C  
HETATM    7  O   UNL     1      -7.756   8.378  66.749  1.00  0.00    -0.089 OA 
BRANCH   6   8
HETATM    8  N   UNL     1      -9.992   8.126  66.268  1.00  0.00    -0.469 N  
HETATM    9  H   UNL     1     -10.700   7.509  65.870  1.00  0.00     0.000 HD 
BRANCH   8  10
HETATM   10  C   UNL     1     -10.397   9.334  66.863  1.00  0.00    -0.246 A  
HETATM   11  C   UNL     1     -10.578  10.499  66.120  1.00  0.00    -0.182 A  
HETATM   12  C   UNL     1     -11.044  11.663  66.737  1.00  0.00    -0.366 A  
HETATM   13  C   UNL     1     -11.360  11.680  68.102  1.00  0.00    -0.292 A  
HETATM   14  C   UNL     1     -10.637   9.358  68.236  1.00  0.00    -0.256 A  
HETATM   15  C   UNL     1     -11.144  10.513  68.858  1.00  0.00    -0.312 A  
BRANCH  13  16
HETATM   16  O   UNL     1     -11.915  12.761  68.732  1.00  0.00    -0.305 OA 
BRANCH  16  17
HETATM   17  C   UNL     1     -11.037  13.839  69.095  1.00  0.00    -0.240 C  
BRANCH  17  18
HETATM   18  C   UNL     1     -11.728  15.174  68.785  1.00  0.00    -0.342 C  
HETATM   19  H   UNL     1     -12.547  16.625  69.825  1.00  0.00     0.000 HD 
HETATM   20  O   UNL     1     -12.119  15.798  70.017  1.00  0.00    -0.365 OA 
BRANCH  18  21
HETATM   21  C   UNL     1     -10.840  16.159  68.000  1.00  0.00    -0.333 C  
BRANCH  21  22
HETATM   22  N   UNL     1     -10.822  17.512  68.569  1.00  0.00    -0.263 NA 
HETATM   23  C   UNL     1      -9.960  18.480  67.857  1.00  0.00    -0.346 C  
HETATM   24  H   UNL     1     -10.567  17.475  69.557  1.00  0.00     0.000 HD 
HETATM   25  C   UNL     1     -10.011  19.797  68.656  1.00  0.00    -0.535 C  
HETATM   26  C   UNL     1     -10.480  18.767  66.438  1.00  0.00    -0.485 C  
HETATM   27  C   UNL     1      -8.498  18.007  67.799  1.00  0.00    -0.247 C  
ENDBRANCH  21  22
ENDBRANCH  18  21
ENDBRANCH  17  18
ENDBRANCH  16  17
ENDBRANCH  13  16
BRANCH  15  28
HETATM   28  C   UNL     1     -11.493  10.338  70.301  1.00  0.00    -0.317 C  
HETATM   29  O   UNL     1     -12.430  10.983  70.774  1.00  0.00    -0.344 OA 
HETATM   30  C   UNL     1     -10.758   9.348  71.165  1.00  0.00    -0.417 C  
ENDBRANCH  15  28
ENDBRANCH   8  10
ENDBRANCH   6   8
ENDBRANCH   3   6
ENDBRANCH   2   3
TORSDOF 11
ENDMDL
MODEL      188
REMARK 921   NORMALIZED FREE ENERGY PREDICTED BY IDOCK:   -4.20 KCAL/MOL
REMARK 922        TOTAL FREE ENERGY PREDICTED BY IDOCK:   -8.03 KCAL/MOL
REMARK 923 INTER-LIGAND FREE ENERGY PREDICTED BY IDOCK:   -6.03 KCAL/MOL
REMARK 924 INTRA-LIGAND FREE ENERGY PREDICTED BY IDOCK:   -1.99 KCAL/MOL
REMARK 927      BINDING AFFINITY PREDICTED BY RF-SCORE:    0.00 PKD
ROOT
HETATM    1  C   UNL     1      -7.627   3.972  66.377  1.00  0.00    -0.089 C  
HETATM    2  C   UNL     1      -7.745   5.489  66.440  1.00  0.00    -0.099 C  
ENDROOT
BRANCH   2   3
HETATM    3  N   UNL     1      -8.830   5.947  67.314  1.00  0.00    -0.108 N  
BRANCH   3   4
HETATM    4  C   UNL     1      -8.707   5.689  68.753  1.00  0.00    -0.106 C  
HETATM    5  C   UNL     1      -8.101   6.834  69.543  1.00  0.00    -0.126 C  
ENDBRANCH   3   4
BRANCH   3   6
HETATM    6  C   UNL     1      -9.796   6.773  66.740  1.00  0.00    -0.178 C  
HETATM    7  O   UNL     1     -10.971   6.747  67.103  1.00  0.00    -0.363 OA 
BRANCH   6   8
HETATM    8  N   UNL     1      -9.318   7.638  65.773  1.00  0.00    -0.400 N  
HETATM    9  H   UNL     1      -8.939   7.252  64.909  1.00  0.00     0.000 HD 
BRANCH   8  10
HETATM   10  C   UNL     1      -9.339   9.034  65.946  1.00  0.00    -0.242 A  
HETATM   11  C   UNL     1      -8.579   9.668  66.926  1.00  0.00    -0.132 A  
HETATM   12  C   UNL     1      -8.576  11.062  67.023  1.00  0.00    -0.140 A  
HETATM   13  C   UNL     1      -9.314  11.850  66.129  1.00  0.00    -0.219 A  
HETATM   14  C   UNL     1     -10.135   9.802  65.097  1.00  0.00    -0.054 A  
HETATM   15  C   UNL     1     -10.108  11.207  65.162  1.00  0.00    -0.335 A  
BRANCH  13  16
HETATM   16  O   UNL     1      -9.266  13.218  66.116  1.00  0.00    -0.131 OA 
BRANCH  16  17
HETATM   17  C   UNL     1      -8.829  13.877  67.316  1.00  0.00    -0.221 C  
BRANCH  17  18
HETATM   18  C   UNL     1      -9.962  14.770  67.839  1.00  0.00    -0.213 C  
HETATM   19  H   UNL     1     -11.443  15.792  67.053  1.00  0.00     0.000 HD 
HETATM   20  O   UNL     1     -10.741  15.239  66.729  1.00  0.00    -0.304 OA 
BRANCH  18  21
HETATM   21  C   UNL     1     -10.903  14.055  68.828  1.00  0.00    -0.263 C  
BRANCH  21  22
HETATM   22  N   UNL     1     -10.413  12.739  69.256  1.00  0.00    -0.419 NA 
HETATM   23  C   UNL     1     -11.461  11.718  69.467  1.00  0.00    -0.295 C  
HETATM   24  H   UNL     1      -9.840  12.833  70.094  1.00  0.00     0.000 HD 
HETATM   25  C   UNL     1     -10.755  10.453  69.992  1.00  0.00    -0.321 C  
HETATM   26  C   UNL     1     -12.172  11.351  68.152  1.00  0.00     0.227 C  
HETATM   27  C   UNL     1     -12.491  12.167  70.516  1.00  0.00    -0.282 C  
ENDBRANCH  21  22
ENDBRANCH  18  21
ENDBRANCH  17  18
ENDBRANCH  16  17
ENDBRANCH  13  16
BRANCH  15  28
HETATM   28  C   UNL     1     -10.895  11.892  64.092  1.00  0.00    -0.356 C  
HETATM   29  O   UNL     1     -10.397  12.023  62.972  1.00  0.00    -0.333 OA 
HETATM   30  C   UNL     1     -12.300  12.371  64.344  1.00  0.00    -0.532 C  
ENDBRANCH  15  28
ENDBRANCH   8  10
ENDBRANCH   6   8
ENDBRANCH   3   6
ENDBRANCH   2   3
TORSDOF 11
ENDMDL
MODEL      189
REMARK 921   NORMALIZED FREE ENERGY PREDICTED BY IDOCK:   -4.17 KCAL/MOL
REMARK 922        TOTAL FREE ENERGY PREDICTED BY IDOCK:   -7.99 KCAL/MOL
REMARK 923 INTER-LIGAND FREE ENERGY PREDICTED BY IDOCK:   -7.14 KCAL/MOL
REMARK 924 INTRA-LIGAND FREE ENERGY PREDICTED BY IDOCK:   -0.85 KCAL/MOL
REMARK 927      BINDING AFFINITY PREDICTED BY RF-SCORE:    0.00 PKD
ROOT
HETATM    1  C   UNL     1      -9.960   4.103  65.400  1.00  0.00    -0.211 C  
HETATM    2  C   UNL     1     -10.124   5.240  66.399  1.00  0.00    -0.226 C  
ENDROOT
BRANCH   2   3
HETATM    3  N   UNL     1      -9.071   6.256  66.294  1.00  0.00    -0.154 N  
BRANCH   3   4
HETATM    4  C   UNL     1      -8.265   6.285  65.069  1.00  0.00    -0.132 C  
HETATM    5  C   UNL     1      -6.782   6.504  65.302  1.00  0.00    -0.043 C  
ENDBRANCH   3   4
BRANCH   3   6
HETATM    6  C   UNL     1      -9.052   7.247  67.275  1.00  0.00    -0.123 C  
HETATM    7  O   UNL     1      -8.076   7.421  68.004  1.00  0.00    -0.120 OA 
BRANCH   6   8
HETATM    8  N   UNL     1     -10.190   8.032  67.329  1.00  0.00    -0.246 N  
HETATM    9  H   UNL     1     -11.079   7.596  67.572  1.00  0.00     0.000 HD 
BRANCH   8  10
HETATM   10  C   UNL     1     -10.157   9.412  67.059  1.00  0.00    -0.240 A  
HETATM   11  C   UNL     1      -9.877  10.352  68.049  1.00  0.00    -0.170 A  
HETATM   12  C   UNL     1      -9.789  11.709  67.727  1.00  0.00    -0.186 A  
HETATM   13  C   UNL     1      -9.955  12.150  66.407  1.00  0.00    -0.225 A  
HETATM   14  C   UNL     1     -10.396   9.846  65.756  1.00  0.00    -0.155 A  
HETATM   15  C   UNL     1     -10.270  11.204  65.415  1.00  0.00    -0.327 A  
BRANCH  13  16
HETATM   16  O   UNL     1      -9.778  13.452  66.022  1.00  0.00    -0.273 OA 
BRANCH  16  17
HETATM   17  C   UNL     1     -10.717  14.422  66.513  1.00  0.00    -0.306 C  
BRANCH  17  18
HETATM   18  C   UNL     1      -9.948  15.607  67.112  1.00  0.00    -0.240 C  
HETATM   19  H   UNL     1      -8.062  16.093  67.367  1.00  0.00     0.000 HD 
HETATM   20  O   UNL     1      -8.539  15.359  66.997  1.00  0.00    -0.197 OA 
BRANCH  18  21
HETATM   21  C   UNL     1     -10.263  16.953  66.431  1.00  0.00    -0.321 C  
BRANCH  21  22
HETATM   22  N   UNL     1      -9.077  17.790  66.212  1.00  0.00    -0.443 NA 
HETATM   23  C   UNL     1      -9.250  19.221  66.540  1.00  0.00    -0.350 C  
HETATM   24  H   UNL     1      -8.747  17.688  65.252  1.00  0.00     0.000 HD 
HETATM   25  C   UNL     1      -7.936  19.930  66.160  1.00  0.00    -0.345 C  
HETATM   26  C   UNL     1      -9.484  19.434  68.046  1.00  0.00    -0.413 C  
HETATM   27  C   UNL     1     -10.394  19.858  65.733  1.00  0.00    -0.512 C  
ENDBRANCH  21  22
ENDBRANCH  18  21
ENDBRANCH  17  18
ENDBRANCH  16  17
ENDBRANCH  13  16
BRANCH  15  28
HETATM   28  C   UNL     1     -10.407  11.493  63.955  1.00  0.00    -0.371 C  
HETATM   29  O   UNL     1      -9.453  11.270  63.208  1.00  0.00    -0.288 OA 
HETATM   30  C   UNL     1     -11.705  11.995  63.379  1.00  0.00    -0.519 C  
ENDBRANCH  15  28
ENDBRANCH   8  10
ENDBRANCH   6   8
ENDBRANCH   3   6
ENDBRANCH   2   3
TORSDOF 11
ENDMDL
MODEL      190
REMARK 921   NORMALIZED FREE ENERGY PREDICTED BY IDOCK:   -4.11 KCAL/MOL
REMARK 922        TOTAL FREE ENERGY PREDICTED BY IDOCK:   -7.89 KCAL/MOL
REMARK 923 INTER-LIGAND FREE ENERGY PREDICTED BY IDOCK:   -6.77 KCAL/MOL
REMARK 924 INTRA-LIGAND FREE ENERGY PREDICTED BY IDOCK:   -1.12 KCAL/MOL
REMARK 927      BINDING AFFINITY PREDICTED BY RF-SCORE:    0.00 PKD
ROOT
HETATM    1  C   UNL     1     -11.158   6.158  70.847  1.00  0.00    -0.371 C  
HETATM    2  C   UNL     1     -11.237   6.139  69.327  1.00  0.00    -0.367 C  
ENDROOT
BRANCH   2   3
HETATM    3  N   UNL     1      -9.937   5.919  68.685  1.00  0.00    -0.139 N  
BRANCH   3   4
HETATM    4  C   UNL     1      -9.864   4.925  67.608  1.00  0.00    -0.161 C  
HETATM    5  C   UNL     1     -10.752   5.228  66.416  1.00  0.00    -0.290 C  
ENDBRANCH   3   4
BRANCH   3   6
HETATM    6  C   UNL     1      -8.917   6.815  69.003  1.00  0.00    -0.131 C  
HETATM    7  O   UNL     1      -8.174   6.638  69.967  1.00  0.00    -0.125 OA 
BRANCH   6   8
HETATM    8  N   UNL     1      -8.789   7.880  68.130  1.00  0.00    -0.126 N  
HETATM    9  H   UNL     1      -8.117   7.815  67.365  1.00  0.00     0.000 HD 
BRANCH   8  10
HETATM   10  C   UNL     1      -9.555   9.052  68.266  1.00  0.00    -0.145 A  
HETATM   11  C   UNL     1      -9.822   9.619  69.510  1.00  0.00    -0.219 A  
HETATM   12  C   UNL     1     -10.532  10.820  69.599  1.00  0.00    -0.183 A  
HETATM   13  C   UNL     1     -10.969  11.487  68.447  1.00  0.00    -0.221 A  
HETATM   14  C   UNL     1     -10.048   9.668  67.117  1.00  0.00    -0.276 A  
HETATM   15  C   UNL     1     -10.729  10.896  67.194  1.00  0.00    -0.320 A  
BRANCH  13  16
HETATM   16  O   UNL     1     -11.578  12.714  68.474  1.00  0.00    -0.278 OA 
BRANCH  16  17
HETATM   17  C   UNL     1     -12.140  13.147  69.723  1.00  0.00    -0.270 C  
BRANCH  17  18
HETATM   18  C   UNL     1     -12.227  14.679  69.730  1.00  0.00    -0.302 C  
HETATM   19  H   UNL     1     -12.309  16.092  71.092  1.00  0.00     0.000 HD 
HETATM   20  O   UNL     1     -12.255  15.143  71.088  1.00  0.00    -0.282 OA 
BRANCH  18  21
HETATM   21  C   UNL     1     -11.053  15.366  69.005  1.00  0.00    -0.268 C  
BRANCH  21  22
HETATM   22  N   UNL     1     -11.265  15.519  67.561  1.00  0.00    -0.306 NA 
HETATM   23  C   UNL     1     -10.051  15.841  66.780  1.00  0.00    -0.271 C  
HETATM   24  H   UNL     1     -11.991  16.214  67.384  1.00  0.00     0.000 HD 
HETATM   25  C   UNL     1     -10.500  16.046  65.320  1.00  0.00    -0.384 C  
HETATM   26  C   UNL     1      -9.036  14.685  66.805  1.00  0.00    -0.287 C  
HETATM   27  C   UNL     1      -9.386  17.138  67.267  1.00  0.00    -0.242 C  
ENDBRANCH  21  22
ENDBRANCH  18  21
ENDBRANCH  17  18
ENDBRANCH  16  17
ENDBRANCH  13  16
BRANCH  15  28
HETATM   28  C   UNL     1     -11.061  11.505  65.870  1.00  0.00    -0.214 C  
HETATM   29  O   UNL     1     -10.355  11.242  64.895  1.00  0.00    -0.271 OA 
HETATM   30  C   UNL     1     -12.270  12.385  65.699  1.00  0.00    -0.322 C  
ENDBRANCH  15  28
ENDBRANCH   8  10
ENDBRANCH   6   8
ENDBRANCH   3   6
ENDBRANCH   2   3
TORSDOF 11
ENDMDL
MODEL      191
REMARK 921   NORMALIZED FREE ENERGY PREDICTED BY IDOCK:   -4.11 KCAL/MOL
REMARK 922        TOTAL FREE ENERGY PREDICTED BY IDOCK:   -7.89 KCAL/MOL
REMARK 923 INTER-LIGAND FREE ENERGY PREDICTED BY IDOCK:   -6.79 KCAL/MOL
REMARK 924 INTRA-LIGAND FREE ENERGY PREDICTED BY IDOCK:   -1.10 KCAL/MOL
REMARK 927      BINDING AFFINITY PREDICTED BY RF-SCORE:    0.00 PKD
ROOT
HETATM    1  C   UNL     1     -10.015  20.169  66.480  1.00  0.00    -0.586 C  
HETATM    2  C   UNL     1     -10.516  18.864  67.082  1.00  0.00    -0.438 C  
ENDROOT
BRANCH   2   3
HETATM    3  N   UNL     1      -9.670  17.713  66.751  1.00  0.00    -0.287 N  
BRANCH   3   4
HETATM    4  C   UNL     1      -8.244  17.792  67.083  1.00  0.00    -0.219 C  
HETATM    5  C   UNL     1      -7.402  16.677  66.490  1.00  0.00    -0.273 C  
ENDBRANCH   3   4
BRANCH   3   6
HETATM    6  C   UNL     1     -10.321  16.552  66.335  1.00  0.00    -0.311 C  
HETATM    7  O   UNL     1     -10.290  16.173  65.165  1.00  0.00    -0.560 OA 
BRANCH   6   8
HETATM    8  N   UNL     1     -10.959  15.852  67.343  1.00  0.00    -0.296 N  
HETATM    9  H   UNL     1     -11.614  16.346  67.949  1.00  0.00     0.000 HD 
BRANCH   8  10
HETATM   10  C   UNL     1     -10.732  14.481  67.557  1.00  0.00    -0.276 A  
HETATM   11  C   UNL     1     -11.769  13.550  67.550  1.00  0.00    -0.403 A  
HETATM   12  C   UNL     1     -11.495  12.188  67.701  1.00  0.00    -0.399 A  
HETATM   13  C   UNL     1     -10.179  11.728  67.839  1.00  0.00    -0.191 A  
HETATM   14  C   UNL     1      -9.425  14.043  67.767  1.00  0.00    -0.209 A  
HETATM   15  C   UNL     1      -9.136  12.671  67.881  1.00  0.00    -0.200 A  
BRANCH  13  16
HETATM   16  O   UNL     1      -9.848  10.400  67.888  1.00  0.00    -0.151 OA 
BRANCH  16  17
HETATM   17  C   UNL     1     -10.892   9.469  68.214  1.00  0.00    -0.145 C  
BRANCH  17  18
HETATM   18  C   UNL     1     -10.517   8.084  67.669  1.00  0.00    -0.232 C  
HETATM   19  H   UNL     1      -9.497   7.388  66.141  1.00  0.00     0.000 HD 
HETATM   20  O   UNL     1      -9.730   8.245  66.479  1.00  0.00    -0.225 OA 
BRANCH  18  21
HETATM   21  C   UNL     1      -9.721   7.223  68.668  1.00  0.00    -0.146 C  
BRANCH  21  22
HETATM   22  N   UNL     1     -10.237   7.290  70.040  1.00  0.00    -0.197 NA 
HETATM   23  C   UNL     1      -9.205   7.419  71.092  1.00  0.00    -0.155 C  
HETATM   24  H   UNL     1     -10.834   6.485  70.231  1.00  0.00     0.000 HD 
HETATM   25  C   UNL     1      -9.940   7.383  72.446  1.00  0.00    -0.221 C  
HETATM   26  C   UNL     1      -8.459   8.761  70.994  1.00  0.00    -0.219 C  
HETATM   27  C   UNL     1      -8.203   6.254  71.055  1.00  0.00    -0.123 C  
ENDBRANCH  21  22
ENDBRANCH  18  21
ENDBRANCH  17  18
ENDBRANCH  16  17
ENDBRANCH  13  16
BRANCH  15  28
HETATM   28  C   UNL     1      -7.678  12.349  67.949  1.00  0.00    -0.135 C  
HETATM   29  O   UNL     1      -7.131  11.831  66.973  1.00  0.00    -0.137 OA 
HETATM   30  C   UNL     1      -6.860  12.697  69.165  1.00  0.00    -0.057 C  
ENDBRANCH  15  28
ENDBRANCH   8  10
ENDBRANCH   6   8
ENDBRANCH   3   6
ENDBRANCH   2   3
TORSDOF 11
ENDMDL
MODEL      192
REMARK 921   NORMALIZED FREE ENERGY PREDICTED BY IDOCK:   -4.11 KCAL/MOL
REMARK 922        TOTAL FREE ENERGY PREDICTED BY IDOCK:   -7.89 KCAL/MOL
REMARK 923 INTER-LIGAND FREE ENERGY PREDICTED BY IDOCK:   -6.64 KCAL/MOL
REMARK 924 INTRA-LIGAND FREE ENERGY PREDICTED BY IDOCK:   -1.25 KCAL/MOL
REMARK 927      BINDING AFFINITY PREDICTED BY RF-SCORE:    0.00 PKD
ROOT
HETATM    1  C   UNL     1     -10.508  16.926  69.302  1.00  0.00    -0.319 C  
HETATM    2  C   UNL     1     -10.163  15.534  69.815  1.00  0.00    -0.294 C  
ENDROOT
BRANCH   2   3
HETATM    3  N   UNL     1     -11.269  14.580  69.680  1.00  0.00    -0.259 N  
BRANCH   3   4
HETATM    4  C   UNL     1     -12.378  14.676  70.635  1.00  0.00    -0.331 C  
HETATM    5  C   UNL     1     -11.948  14.916  72.070  1.00  0.00    -0.428 C  
ENDBRANCH   3   4
BRANCH   3   6
HETATM    6  C   UNL     1     -11.281  13.788  68.532  1.00  0.00    -0.275 C  
HETATM    7  O   UNL     1     -10.625  14.080  67.534  1.00  0.00    -0.257 OA 
BRANCH   6   8
HETATM    8  N   UNL     1     -12.051  12.643  68.627  1.00  0.00    -0.203 N  
HETATM    9  H   UNL     1     -12.994  12.648  68.237  1.00  0.00     0.000 HD 
BRANCH   8  10
HETATM   10  C   UNL     1     -11.574  11.473  69.245  1.00  0.00    -0.322 A  
HETATM   11  C   UNL     1     -10.235  11.094  69.175  1.00  0.00    -0.163 A  
HETATM   12  C   UNL     1      -9.787   9.960  69.857  1.00  0.00    -0.285 A  
HETATM   13  C   UNL     1     -10.663   9.195  70.640  1.00  0.00    -0.254 A  
HETATM   14  C   UNL     1     -12.470  10.680  69.961  1.00  0.00    -0.294 A  
HETATM   15  C   UNL     1     -12.020   9.559  70.683  1.00  0.00    -0.266 A  
BRANCH  13  16
HETATM   16  O   UNL     1     -10.255   8.138  71.408  1.00  0.00    -0.188 OA 
BRANCH  16  17
HETATM   17  C   UNL     1      -9.204   8.375  72.358  1.00  0.00    -0.275 C  
BRANCH  17  18
HETATM   18  C   UNL     1      -9.421   7.473  73.581  1.00  0.00    -0.284 C  
HETATM   19  H   UNL     1     -10.943   6.947  74.706  1.00  0.00     0.000 HD 
HETATM   20  O   UNL     1     -10.808   7.505  73.948  1.00  0.00    -0.244 OA 
BRANCH  18  21
HETATM   21  C   UNL     1      -9.012   6.006  73.346  1.00  0.00    -0.129 C  
BRANCH  21  22
HETATM   22  N   UNL     1      -9.586   5.427  72.125  1.00  0.00    -0.153 NA 
HETATM   23  C   UNL     1      -8.734   4.429  71.444  1.00  0.00    -0.112 C  
HETATM   24  H   UNL     1      -9.850   6.167  71.475  1.00  0.00     0.000 HD 
HETATM   25  C   UNL     1      -9.472   4.016  70.156  1.00  0.00    -0.258 C  
HETATM   26  C   UNL     1      -8.539   3.167  72.302  1.00  0.00    -0.093 C  
HETATM   27  C   UNL     1      -7.369   5.018  71.052  1.00  0.00    -0.072 C  
ENDBRANCH  21  22
ENDBRANCH  18  21
ENDBRANCH  17  18
ENDBRANCH  16  17
ENDBRANCH  13  16
BRANCH  15  28
HETATM   28  C   UNL     1     -13.069   8.901  71.521  1.00  0.00    -0.329 C  
HETATM   29  O   UNL     1     -13.223   7.681  71.440  1.00  0.00    -0.334 OA 
HETATM   30  C   UNL     1     -13.894   9.694  72.498  1.00  0.00    -0.216 C  
ENDBRANCH  15  28
ENDBRANCH   8  10
ENDBRANCH   6   8
ENDBRANCH   3   6
ENDBRANCH   2   3
TORSDOF 11
ENDMDL
MODEL      193
REMARK 921   NORMALIZED FREE ENERGY PREDICTED BY IDOCK:   -4.10 KCAL/MOL
REMARK 922        TOTAL FREE ENERGY PREDICTED BY IDOCK:   -7.87 KCAL/MOL
REMARK 923 INTER-LIGAND FREE ENERGY PREDICTED BY IDOCK:   -6.17 KCAL/MOL
REMARK 924 INTRA-LIGAND FREE ENERGY PREDICTED BY IDOCK:   -1.69 KCAL/MOL
REMARK 927      BINDING AFFINITY PREDICTED BY RF-SCORE:    0.00 PKD
ROOT
HETATM    1  C   UNL     1     -12.555  12.518  63.385  1.00  0.00    -0.424 C  
HETATM    2  C   UNL     1     -11.122  12.121  63.708  1.00  0.00    -0.436 C  
ENDROOT
BRANCH   2   3
HETATM    3  N   UNL     1     -10.750  12.388  65.101  1.00  0.00    -0.283 N  
BRANCH   3   4
HETATM    4  C   UNL     1     -11.555  13.356  65.853  1.00  0.00    -0.342 C  
HETATM    5  C   UNL     1     -12.009  12.866  67.215  1.00  0.00    -0.371 C  
ENDBRANCH   3   4
BRANCH   3   6
HETATM    6  C   UNL     1      -9.788  11.551  65.668  1.00  0.00    -0.236 C  
HETATM    7  O   UNL     1      -8.847  11.995  66.325  1.00  0.00    -0.171 OA 
BRANCH   6   8
HETATM    8  N   UNL     1     -10.004  10.200  65.467  1.00  0.00    -0.292 N  
HETATM    9  H   UNL     1     -10.367   9.887  64.567  1.00  0.00     0.000 HD 
BRANCH   8  10
HETATM   10  C   UNL     1      -9.739   9.247  66.466  1.00  0.00    -0.240 A  
HETATM   11  C   UNL     1     -10.604   9.040  67.538  1.00  0.00    -0.306 A  
HETATM   12  C   UNL     1     -10.338   8.037  68.475  1.00  0.00    -0.229 A  
HETATM   13  C   UNL     1      -9.217   7.207  68.346  1.00  0.00    -0.133 A  
HETATM   14  C   UNL     1      -8.581   8.476  66.366  1.00  0.00    -0.136 A  
HETATM   15  C   UNL     1      -8.327   7.439  67.282  1.00  0.00    -0.119 A  
BRANCH  13  16
HETATM   16  O   UNL     1      -8.966   6.147  69.175  1.00  0.00    -0.126 OA 
BRANCH  16  17
HETATM   17  C   UNL     1      -9.901   5.056  69.157  1.00  0.00    -0.192 C  
BRANCH  17  18
HETATM   18  C   UNL     1      -9.687   4.191  70.406  1.00  0.00    -0.201 C  
HETATM   19  H   UNL     1      -8.227   3.109  71.151  1.00  0.00     0.000 HD 
HETATM   20  O   UNL     1      -8.359   3.644  70.377  1.00  0.00    -0.056 OA 
BRANCH  18  21
HETATM   21  C   UNL     1      -9.867   4.962  71.728  1.00  0.00    -0.180 C  
BRANCH  21  22
HETATM   22  N   UNL     1     -10.806   6.086  71.627  1.00  0.00    -0.251 NA 
HETATM   23  C   UNL     1     -10.466   7.264  72.454  1.00  0.00    -0.229 C  
HETATM   24  H   UNL     1     -11.754   5.773  71.834  1.00  0.00     0.000 HD 
HETATM   25  C   UNL     1     -11.608   8.282  72.274  1.00  0.00    -0.449 C  
HETATM   26  C   UNL     1      -9.160   7.930  71.986  1.00  0.00    -0.198 C  
HETATM   27  C   UNL     1     -10.369   6.904  73.946  1.00  0.00    -0.398 C  
ENDBRANCH  21  22
ENDBRANCH  18  21
ENDBRANCH  17  18
ENDBRANCH  16  17
ENDBRANCH  13  16
BRANCH  15  28
HETATM   28  C   UNL     1      -7.128   6.606  66.957  1.00  0.00    -0.076 C  
HETATM   29  O   UNL     1      -6.103   6.743  67.626  1.00  0.00    -0.026 OA 
HETATM   30  C   UNL     1      -7.175   5.569  65.866  1.00  0.00    -0.072 C  
ENDBRANCH  15  28
ENDBRANCH   8  10
ENDBRANCH   6   8
ENDBRANCH   3   6
ENDBRANCH   2   3
TORSDOF 11
ENDMDL
MODEL      194
REMARK 921   NORMALIZED FREE ENERGY PREDICTED BY IDOCK:   -4.10 KCAL/MOL
REMARK 922        TOTAL FREE ENERGY PREDICTED BY IDOCK:   -7.86 KCAL/MOL
REMARK 923 INTER-LIGAND FREE ENERGY PREDICTED BY IDOCK:   -6.77 KCAL/MOL
REMARK 924 INTRA-LIGAND FREE ENERGY PREDICTED BY IDOCK:   -1.09 KCAL/MOL
REMARK 927      BINDING AFFINITY PREDICTED BY RF-SCORE:    0.00 PKD
ROOT
HETATM    1  C   UNL     1      -9.823   4.397  71.524  1.00  0.00    -0.259 C  
HETATM    2  C   UNL     1     -10.607   5.578  70.968  1.00  0.00    -0.230 C  
ENDROOT
BRANCH   2   3
HETATM    3  N   UNL     1      -9.749   6.619  70.391  1.00  0.00    -0.175 N  
BRANCH   3   4
HETATM    4  C   UNL     1      -8.975   7.459  71.311  1.00  0.00    -0.138 C  
HETATM    5  C   UNL     1      -8.661   8.844  70.778  1.00  0.00    -0.236 C  
ENDBRANCH   3   4
BRANCH   3   6
HETATM    6  C   UNL     1      -9.576   6.597  69.007  1.00  0.00    -0.133 C  
HETATM    7  O   UNL     1      -8.599   6.065  68.482  1.00  0.00    -0.112 OA 
BRANCH   6   8
HETATM    8  N   UNL     1     -10.603   7.179  68.286  1.00  0.00    -0.275 N  
HETATM    9  H   UNL     1     -11.531   6.757  68.319  1.00  0.00     0.000 HD 
BRANCH   8  10
HETATM   10  C   UNL     1     -10.405   8.333  67.507  1.00  0.00    -0.265 A  
HETATM   11  C   UNL     1     -10.965   9.562  67.852  1.00  0.00    -0.172 A  
HETATM   12  C   UNL     1     -10.691  10.700  67.089  1.00  0.00    -0.327 A  
HETATM   13  C   UNL     1      -9.835  10.638  65.981  1.00  0.00    -0.228 A  
HETATM   14  C   UNL     1      -9.611   8.244  66.365  1.00  0.00    -0.300 A  
HETATM   15  C   UNL     1      -9.298   9.391  65.614  1.00  0.00    -0.309 A  
BRANCH  13  16
HETATM   16  O   UNL     1      -9.454  11.740  65.263  1.00  0.00    -0.208 OA 
BRANCH  16  17
HETATM   17  C   UNL     1     -10.213  12.059  64.086  1.00  0.00    -0.339 C  
BRANCH  17  18
HETATM   18  C   UNL     1     -11.224  13.163  64.425  1.00  0.00    -0.371 C  
HETATM   19  H   UNL     1     -13.159  13.267  64.747  1.00  0.00     0.000 HD 
HETATM   20  O   UNL     1     -12.533  12.583  64.537  1.00  0.00    -0.464 OA 
BRANCH  18  21
HETATM   21  C   UNL     1     -10.907  13.907  65.736  1.00  0.00    -0.289 C  
BRANCH  21  22
HETATM   22  N   UNL     1      -9.610  14.594  65.721  1.00  0.00    -0.494 NA 
HETATM   23  C   UNL     1      -9.579  15.891  66.430  1.00  0.00    -0.287 C  
HETATM   24  H   UNL     1      -9.285  14.711  64.761  1.00  0.00     0.000 HD 
HETATM   25  C   UNL     1      -8.170  16.481  66.222  1.00  0.00    -0.360 C  
HETATM   26  C   UNL     1      -9.799  15.717  67.943  1.00  0.00    -0.217 C  
HETATM   27  C   UNL     1     -10.607  16.880  65.857  1.00  0.00    -0.239 C  
ENDBRANCH  21  22
ENDBRANCH  18  21
ENDBRANCH  17  18
ENDBRANCH  16  17
ENDBRANCH  13  16
BRANCH  15  28
HETATM   28  C   UNL     1      -8.316   9.161  64.511  1.00  0.00    -0.168 C  
HETATM   29  O   UNL     1      -8.699   8.625  63.469  1.00  0.00    -0.067 OA 
HETATM   30  C   UNL     1      -6.889   9.623  64.631  1.00  0.00    -0.109 C  
ENDBRANCH  15  28
ENDBRANCH   8  10
ENDBRANCH   6   8
ENDBRANCH   3   6
ENDBRANCH   2   3
TORSDOF 11
ENDMDL
MODEL      195
REMARK 921   NORMALIZED FREE ENERGY PREDICTED BY IDOCK:   -4.08 KCAL/MOL
REMARK 922        TOTAL FREE ENERGY PREDICTED BY IDOCK:   -7.84 KCAL/MOL
REMARK 923 INTER-LIGAND FREE ENERGY PREDICTED BY IDOCK:   -6.50 KCAL/MOL
REMARK 924 INTRA-LIGAND FREE ENERGY PREDICTED BY IDOCK:   -1.34 KCAL/MOL
REMARK 927      BINDING AFFINITY PREDICTED BY RF-SCORE:    0.00 PKD
ROOT
HETATM    1  C   UNL     1     -11.647  16.014  68.596  1.00  0.00    -0.343 C  
HETATM    2  C   UNL     1     -11.005  14.857  67.841  1.00  0.00    -0.286 C  
ENDROOT
BRANCH   2   3
HETATM    3  N   UNL     1     -11.370  14.823  66.421  1.00  0.00    -0.348 N  
BRANCH   3   4
HETATM    4  C   UNL     1     -10.618  15.679  65.498  1.00  0.00    -0.404 C  
HETATM    5  C   UNL     1      -9.151  15.842  65.854  1.00  0.00    -0.304 C  
ENDBRANCH   3   4
BRANCH   3   6
HETATM    6  C   UNL     1     -12.265  13.829  66.025  1.00  0.00    -0.457 C  
HETATM    7  O   UNL     1     -13.084  14.013  65.125  1.00  0.00    -0.776 OA 
BRANCH   6   8
HETATM    8  N   UNL     1     -12.126  12.625  66.691  1.00  0.00    -0.301 N  
HETATM    9  H   UNL     1     -12.719  12.435  67.497  1.00  0.00     0.000 HD 
BRANCH   8  10
HETATM   10  C   UNL     1     -11.190  11.655  66.288  1.00  0.00    -0.271 A  
HETATM   11  C   UNL     1     -10.619  11.661  65.018  1.00  0.00    -0.342 A  
HETATM   12  C   UNL     1      -9.644  10.719  64.678  1.00  0.00    -0.320 A  
HETATM   13  C   UNL     1      -9.203   9.769  65.609  1.00  0.00    -0.199 A  
HETATM   14  C   UNL     1     -10.813  10.669  67.200  1.00  0.00    -0.328 A  
HETATM   15  C   UNL     1      -9.804   9.742  66.880  1.00  0.00    -0.256 A  
BRANCH  13  16
HETATM   16  O   UNL     1      -8.181   8.892  65.362  1.00  0.00    -0.115 OA 
BRANCH  16  17
HETATM   17  C   UNL     1      -8.106   8.315  64.048  1.00  0.00    -0.128 C  
BRANCH  17  18
HETATM   18  C   UNL     1      -7.681   6.846  64.169  1.00  0.00    -0.116 C  
HETATM   19  H   UNL     1      -6.028   5.876  64.600  1.00  0.00     0.000 HD 
HETATM   20  O   UNL     1      -6.291   6.786  64.524  1.00  0.00    -0.037 OA 
BRANCH  18  21
HETATM   21  C   UNL     1      -8.486   6.056  65.220  1.00  0.00    -0.131 C  
BRANCH  21  22
HETATM   22  N   UNL     1      -7.891   4.758  65.559  1.00  0.00    -0.093 NA 
HETATM   23  C   UNL     1      -7.963   4.390  66.989  1.00  0.00    -0.101 C  
HETATM   24  H   UNL     1      -6.925   4.718  65.234  1.00  0.00     0.000 HD 
HETATM   25  C   UNL     1      -7.214   3.052  67.146  1.00  0.00    -0.058 C  
HETATM   26  C   UNL     1      -9.416   4.174  67.449  1.00  0.00    -0.223 C  
HETATM   27  C   UNL     1      -7.276   5.436  67.883  1.00  0.00    -0.072 C  
ENDBRANCH  21  22
ENDBRANCH  18  21
ENDBRANCH  17  18
ENDBRANCH  16  17
ENDBRANCH  13  16
BRANCH  15  28
HETATM   28  C   UNL     1      -9.405   8.847  68.010  1.00  0.00    -0.142 C  
HETATM   29  O   UNL     1      -8.384   9.107  68.649  1.00  0.00    -0.122 OA 
HETATM   30  C   UNL     1     -10.257   7.673  68.410  1.00  0.00    -0.226 C  
ENDBRANCH  15  28
ENDBRANCH   8  10
ENDBRANCH   6   8
ENDBRANCH   3   6
ENDBRANCH   2   3
TORSDOF 11
ENDMDL
MODEL      196
REMARK 921   NORMALIZED FREE ENERGY PREDICTED BY IDOCK:   -4.07 KCAL/MOL
REMARK 922        TOTAL FREE ENERGY PREDICTED BY IDOCK:   -7.82 KCAL/MOL
REMARK 923 INTER-LIGAND FREE ENERGY PREDICTED BY IDOCK:   -6.67 KCAL/MOL
REMARK 924 INTRA-LIGAND FREE ENERGY PREDICTED BY IDOCK:   -1.15 KCAL/MOL
REMARK 927      BINDING AFFINITY PREDICTED BY RF-SCORE:    0.00 PKD
ROOT
HETATM    1  C   UNL     1     -12.156  13.009  63.761  1.00  0.00    -0.574 C  
HETATM    2  C   UNL     1     -12.407  13.417  65.206  1.00  0.00    -0.469 C  
ENDROOT
BRANCH   2   3
HETATM    3  N   UNL     1     -11.215  13.955  65.870  1.00  0.00    -0.295 N  
BRANCH   3   4
HETATM    4  C   UNL     1     -10.332  14.830  65.090  1.00  0.00    -0.410 C  
HETATM    5  C   UNL     1      -9.966  16.127  65.786  1.00  0.00    -0.370 C  
ENDBRANCH   3   4
BRANCH   3   6
HETATM    6  C   UNL     1     -11.120  13.763  67.248  1.00  0.00    -0.304 C  
HETATM    7  O   UNL     1     -11.905  14.291  68.033  1.00  0.00    -0.332 OA 
BRANCH   6   8
HETATM    8  N   UNL     1     -10.108  12.908  67.645  1.00  0.00    -0.217 N  
HETATM    9  H   UNL     1      -9.161  13.275  67.742  1.00  0.00     0.000 HD 
BRANCH   8  10
HETATM   10  C   UNL     1     -10.345  11.549  67.918  1.00  0.00    -0.183 A  
HETATM   11  C   UNL     1     -10.253  10.570  66.931  1.00  0.00    -0.280 A  
HETATM   12  C   UNL     1     -10.431   9.223  67.255  1.00  0.00    -0.334 A  
HETATM   13  C   UNL     1     -10.681   8.826  68.576  1.00  0.00    -0.060 A  
HETATM   14  C   UNL     1     -10.665  11.174  69.222  1.00  0.00    -0.241 A  
HETATM   15  C   UNL     1     -10.807   9.817  69.565  1.00  0.00    -0.264 A  
BRANCH  13  16
HETATM   16  O   UNL     1     -10.761   7.515  68.964  1.00  0.00    -0.207 OA 
BRANCH  16  17
HETATM   17  C   UNL     1     -10.531   6.512  67.962  1.00  0.00    -0.216 C  
BRANCH  17  18
HETATM   18  C   UNL     1      -9.408   5.579  68.435  1.00  0.00    -0.111 C  
HETATM   19  H   UNL     1      -9.277   3.732  69.091  1.00  0.00     0.000 HD 
HETATM   20  O   UNL     1      -9.973   4.310  68.798  1.00  0.00    -0.099 OA 
BRANCH  18  21
HETATM   21  C   UNL     1      -8.316   5.341  67.374  1.00  0.00    -0.106 C  
BRANCH  21  22
HETATM   22  N   UNL     1      -8.401   6.256  66.230  1.00  0.00    -0.117 NA 
HETATM   23  C   UNL     1      -7.484   5.949  65.112  1.00  0.00    -0.079 C  
HETATM   24  H   UNL     1      -8.269   7.219  66.539  1.00  0.00     0.000 HD 
HETATM   25  C   UNL     1      -7.666   7.065  64.064  1.00  0.00    -0.116 C  
HETATM   26  C   UNL     1      -7.832   4.609  64.441  1.00  0.00    -0.087 C  
HETATM   27  C   UNL     1      -6.014   5.947  65.565  1.00  0.00    -0.025 C  
ENDBRANCH  21  22
ENDBRANCH  18  21
ENDBRANCH  17  18
ENDBRANCH  16  17
ENDBRANCH  13  16
BRANCH  15  28
HETATM   28  C   UNL     1     -10.999   9.565  71.026  1.00  0.00    -0.353 C  
HETATM   29  O   UNL     1     -10.049   9.153  71.694  1.00  0.00    -0.327 OA 
HETATM   30  C   UNL     1     -12.313   9.858  71.700  1.00  0.00    -0.496 C  
ENDBRANCH  15  28
ENDBRANCH   8  10
ENDBRANCH   6   8
ENDBRANCH   3   6
ENDBRANCH   2   3
TORSDOF 11
ENDMDL
MODEL      197
REMARK 921   NORMALIZED FREE ENERGY PREDICTED BY IDOCK:   -4.06 KCAL/MOL
REMARK 922        TOTAL FREE ENERGY PREDICTED BY IDOCK:   -7.80 KCAL/MOL
REMARK 923 INTER-LIGAND FREE ENERGY PREDICTED BY IDOCK:   -6.65 KCAL/MOL
REMARK 924 INTRA-LIGAND FREE ENERGY PREDICTED BY IDOCK:   -1.15 KCAL/MOL
REMARK 927      BINDING AFFINITY PREDICTED BY RF-SCORE:    0.00 PKD
ROOT
HETATM    1  C   UNL     1     -12.085  14.184  68.903  1.00  0.00    -0.339 C  
HETATM    2  C   UNL     1     -11.246  14.817  67.801  1.00  0.00    -0.313 C  
ENDROOT
BRANCH   2   3
HETATM    3  N   UNL     1     -11.330  14.095  66.527  1.00  0.00    -0.330 N  
BRANCH   3   4
HETATM    4  C   UNL     1     -12.661  13.725  66.033  1.00  0.00    -0.408 C  
HETATM    5  C   UNL     1     -12.657  12.618  64.996  1.00  0.00    -0.504 C  
ENDBRANCH   3   4
BRANCH   3   6
HETATM    6  C   UNL     1     -10.156  13.997  65.780  1.00  0.00    -0.327 C  
HETATM    7  O   UNL     1     -10.084  14.413  64.625  1.00  0.00    -0.293 OA 
BRANCH   6   8
HETATM    8  N   UNL     1      -9.086  13.438  66.455  1.00  0.00    -0.459 N  
HETATM    9  H   UNL     1      -8.267  14.014  66.646  1.00  0.00     0.000 HD 
BRANCH   8  10
HETATM   10  C   UNL     1      -9.093  12.099  66.884  1.00  0.00    -0.203 A  
HETATM   11  C   UNL     1      -9.538  11.063  66.066  1.00  0.00    -0.249 A  
HETATM   12  C   UNL     1      -9.468   9.738  66.505  1.00  0.00    -0.228 A  
HETATM   13  C   UNL     1      -8.931   9.421  67.760  1.00  0.00    -0.122 A  
HETATM   14  C   UNL     1      -8.624  11.803  68.164  1.00  0.00    -0.160 A  
HETATM   15  C   UNL     1      -8.514  10.470  68.599  1.00  0.00    -0.138 A  
BRANCH  13  16
HETATM   16  O   UNL     1      -8.746   8.136  68.196  1.00  0.00    -0.135 OA 
BRANCH  16  17
HETATM   17  C   UNL     1      -9.865   7.239  68.110  1.00  0.00    -0.149 C  
BRANCH  17  18
HETATM   18  C   UNL     1     -10.469   7.057  69.509  1.00  0.00    -0.220 C  
HETATM   19  H   UNL     1     -11.973   6.062  70.288  1.00  0.00     0.000 HD 
HETATM   20  O   UNL     1     -11.599   6.176  69.422  1.00  0.00    -0.372 OA 
BRANCH  18  21
HETATM   21  C   UNL     1      -9.479   6.479  70.538  1.00  0.00    -0.166 C  
BRANCH  21  22
HETATM   22  N   UNL     1      -9.727   5.069  70.862  1.00  0.00    -0.177 NA 
HETATM   23  C   UNL     1      -9.891   4.776  72.302  1.00  0.00    -0.168 C  
HETATM   24  H   UNL     1      -8.993   4.482  70.465  1.00  0.00     0.000 HD 
HETATM   25  C   UNL     1     -10.051   3.249  72.433  1.00  0.00    -0.226 C  
HETATM   26  C   UNL     1     -11.157   5.435  72.876  1.00  0.00    -0.360 C  
HETATM   27  C   UNL     1      -8.658   5.204  73.115  1.00  0.00    -0.110 C  
ENDBRANCH  21  22
ENDBRANCH  18  21
ENDBRANCH  17  18
ENDBRANCH  16  17
ENDBRANCH  13  16
BRANCH  15  28
HETATM   28  C   UNL     1      -7.855  10.306  69.931  1.00  0.00    -0.104 C  
HETATM   29  O   UNL     1      -8.424   9.649  70.804  1.00  0.00    -0.245 OA 
HETATM   30  C   UNL     1      -6.490  10.880  70.199  1.00  0.00    -0.145 C  
ENDBRANCH  15  28
ENDBRANCH   8  10
ENDBRANCH   6   8
ENDBRANCH   3   6
ENDBRANCH   2   3
TORSDOF 11
ENDMDL
MODEL      198
REMARK 921   NORMALIZED FREE ENERGY PREDICTED BY IDOCK:   -4.05 KCAL/MOL
REMARK 922        TOTAL FREE ENERGY PREDICTED BY IDOCK:   -7.79 KCAL/MOL
REMARK 923 INTER-LIGAND FREE ENERGY PREDICTED BY IDOCK:   -6.54 KCAL/MOL
REMARK 924 INTRA-LIGAND FREE ENERGY PREDICTED BY IDOCK:   -1.25 KCAL/MOL
REMARK 927      BINDING AFFINITY PREDICTED BY RF-SCORE:    0.00 PKD
ROOT
HETATM    1  C   UNL     1      -9.284  11.004  63.245  1.00  0.00    -0.283 C  
HETATM    2  C   UNL     1     -10.406  12.007  63.477  1.00  0.00    -0.461 C  
ENDROOT
BRANCH   2   3
HETATM    3  N   UNL     1     -11.020  11.887  64.804  1.00  0.00    -0.303 N  
BRANCH   3   4
HETATM    4  C   UNL     1     -12.292  12.581  65.036  1.00  0.00    -0.453 C  
HETATM    5  C   UNL     1     -12.221  13.682  66.078  1.00  0.00    -0.492 C  
ENDBRANCH   3   4
BRANCH   3   6
HETATM    6  C   UNL     1     -10.456  10.959  65.678  1.00  0.00    -0.208 C  
HETATM    7  O   UNL     1     -10.510   9.748  65.464  1.00  0.00    -0.072 OA 
BRANCH   6   8
HETATM    8  N   UNL     1      -9.806  11.509  66.768  1.00  0.00    -0.200 N  
HETATM    9  H   UNL     1      -9.253  12.356  66.637  1.00  0.00     0.000 HD 
BRANCH   8  10
HETATM   10  C   UNL     1      -9.885  10.937  68.050  1.00  0.00    -0.171 A  
HETATM   11  C   UNL     1     -11.091  10.832  68.739  1.00  0.00    -0.312 A  
HETATM   12  C   UNL     1     -11.139  10.198  69.983  1.00  0.00    -0.368 A  
HETATM   13  C   UNL     1      -9.988   9.635  70.552  1.00  0.00    -0.254 A  
HETATM   14  C   UNL     1      -8.720  10.446  68.638  1.00  0.00    -0.138 A  
HETATM   15  C   UNL     1      -8.765   9.772  69.871  1.00  0.00    -0.238 A  
BRANCH  13  16
HETATM   16  O   UNL     1     -10.000   8.915  71.717  1.00  0.00    -0.300 OA 
BRANCH  16  17
HETATM   17  C   UNL     1     -11.127   8.056  71.953  1.00  0.00    -0.276 C  
BRANCH  17  18
HETATM   18  C   UNL     1     -10.687   6.596  71.788  1.00  0.00    -0.227 C  
HETATM   19  H   UNL     1     -11.240   4.855  72.513  1.00  0.00     0.000 HD 
HETATM   20  O   UNL     1     -11.512   5.760  72.615  1.00  0.00    -0.296 OA 
BRANCH  18  21
HETATM   21  C   UNL     1     -10.777   6.085  70.337  1.00  0.00    -0.292 C  
BRANCH  21  22
HETATM   22  N   UNL     1      -9.651   6.508  69.497  1.00  0.00    -0.146 NA 
HETATM   23  C   UNL     1      -9.747   6.115  68.075  1.00  0.00    -0.120 C  
HETATM   24  H   UNL     1      -8.771   6.178  69.894  1.00  0.00     0.000 HD 
HETATM   25  C   UNL     1      -8.442   6.571  67.394  1.00  0.00    -0.119 C  
HETATM   26  C   UNL     1     -10.919   6.817  67.368  1.00  0.00    -0.407 C  
HETATM   27  C   UNL     1      -9.869   4.591  67.912  1.00  0.00    -0.162 C  
ENDBRANCH  21  22
ENDBRANCH  18  21
ENDBRANCH  17  18
ENDBRANCH  16  17
ENDBRANCH  13  16
BRANCH  15  28
HETATM   28  C   UNL     1      -7.464   9.172  70.298  1.00  0.00    -0.099 C  
HETATM   29  O   UNL     1      -7.292   7.959  70.172  1.00  0.00    -0.067 OA 
HETATM   30  C   UNL     1      -6.346  10.033  70.824  1.00  0.00    -0.074 C  
ENDBRANCH  15  28
ENDBRANCH   8  10
ENDBRANCH   6   8
ENDBRANCH   3   6
ENDBRANCH   2   3
TORSDOF 11
ENDMDL
MODEL      199
REMARK 921   NORMALIZED FREE ENERGY PREDICTED BY IDOCK:   -4.05 KCAL/MOL
REMARK 922        TOTAL FREE ENERGY PREDICTED BY IDOCK:   -7.79 KCAL/MOL
REMARK 923 INTER-LIGAND FREE ENERGY PREDICTED BY IDOCK:   -6.22 KCAL/MOL
REMARK 924 INTRA-LIGAND FREE ENERGY PREDICTED BY IDOCK:   -1.57 KCAL/MOL
REMARK 927      BINDING AFFINITY PREDICTED BY RF-SCORE:    0.00 PKD
ROOT
HETATM    1  C   UNL     1     -11.900  11.779  63.819  1.00  0.00    -0.484 C  
HETATM    2  C   UNL     1     -10.451  11.771  64.284  1.00  0.00    -0.325 C  
ENDROOT
BRANCH   2   3
HETATM    3  N   UNL     1     -10.297  11.369  65.686  1.00  0.00    -0.248 N  
BRANCH   3   4
HETATM    4  C   UNL     1     -11.212  11.953  66.672  1.00  0.00    -0.328 C  
HETATM    5  C   UNL     1     -10.536  12.834  67.707  1.00  0.00    -0.231 C  
ENDBRANCH   3   4
BRANCH   3   6
HETATM    6  C   UNL     1      -9.431  10.307  65.946  1.00  0.00    -0.190 C  
HETATM    7  O   UNL     1      -8.251  10.489  66.243  1.00  0.00    -0.135 OA 
BRANCH   6   8
HETATM    8  N   UNL     1     -10.013   9.055  65.883  1.00  0.00    -0.436 N  
HETATM    9  H   UNL     1     -10.215   8.649  64.969  1.00  0.00     0.000 HD 
BRANCH   8  10
HETATM   10  C   UNL     1     -10.336   8.324  67.040  1.00  0.00    -0.323 A  
HETATM   11  C   UNL     1     -10.623   6.961  66.997  1.00  0.00    -0.403 A  
HETATM   12  C   UNL     1     -10.875   6.257  68.178  1.00  0.00    -0.401 A  
HETATM   13  C   UNL     1     -10.821   6.894  69.425  1.00  0.00    -0.249 A  
HETATM   14  C   UNL     1     -10.351   8.985  68.268  1.00  0.00    -0.252 A  
HETATM   15  C   UNL     1     -10.564   8.276  69.464  1.00  0.00    -0.216 A  
BRANCH  13  16
HETATM   16  O   UNL     1     -10.958   6.231  70.615  1.00  0.00    -0.268 OA 
BRANCH  16  17
HETATM   17  C   UNL     1     -10.166   5.048  70.808  1.00  0.00    -0.229 C  
BRANCH  17  18
HETATM   18  C   UNL     1      -9.066   5.343  71.837  1.00  0.00    -0.138 C  
HETATM   19  H   UNL     1      -8.325   4.448  73.421  1.00  0.00     0.000 HD 
HETATM   20  O   UNL     1      -9.006   4.265  72.784  1.00  0.00    -0.106 OA 
BRANCH  18  21
HETATM   21  C   UNL     1      -7.669   5.521  71.212  1.00  0.00    -0.108 C  
BRANCH  21  22
HETATM   22  N   UNL     1      -7.678   6.302  69.969  1.00  0.00    -0.099 NA 
HETATM   23  C   UNL     1      -6.396   6.954  69.629  1.00  0.00    -0.039 C  
HETATM   24  H   UNL     1      -8.428   6.994  69.994  1.00  0.00     0.000 HD 
HETATM   25  C   UNL     1      -6.641   7.785  68.354  1.00  0.00    -0.054 C  
HETATM   26  C   UNL     1      -5.299   5.921  69.316  1.00  0.00    -0.004 C  
HETATM   27  C   UNL     1      -5.925   7.904  70.742  1.00  0.00    -0.033 C  
ENDBRANCH  21  22
ENDBRANCH  18  21
ENDBRANCH  17  18
ENDBRANCH  16  17
ENDBRANCH  13  16
BRANCH  15  28
HETATM   28  C   UNL     1     -10.400   9.093  70.705  1.00  0.00    -0.258 C  
HETATM   29  O   UNL     1     -11.304   9.860  71.042  1.00  0.00    -0.342 OA 
HETATM   30  C   UNL     1      -9.179   8.951  71.574  1.00  0.00    -0.322 C  
ENDBRANCH  15  28
ENDBRANCH   8  10
ENDBRANCH   6   8
ENDBRANCH   3   6
ENDBRANCH   2   3
TORSDOF 11
ENDMDL
MODEL      200
REMARK 921   NORMALIZED FREE ENERGY PREDICTED BY IDOCK:   -4.04 KCAL/MOL
REMARK 922        TOTAL FREE ENERGY PREDICTED BY IDOCK:   -7.78 KCAL/MOL
REMARK 923 INTER-LIGAND FREE ENERGY PREDICTED BY IDOCK:   -6.47 KCAL/MOL
REMARK 924 INTRA-LIGAND FREE ENERGY PREDICTED BY IDOCK:   -1.31 KCAL/MOL
REMARK 927      BINDING AFFINITY PREDICTED BY RF-SCORE:    0.00 PKD
ROOT
HETATM    1  C   UNL     1     -12.219  11.923  63.531  1.00  0.00    -0.591 C  
HETATM    2  C   UNL     1     -12.402  12.845  64.729  1.00  0.00    -0.459 C  
ENDROOT
BRANCH   2   3
HETATM    3  N   UNL     1     -11.232  12.882  65.612  1.00  0.00    -0.289 N  
BRANCH   3   4
HETATM    4  C   UNL     1     -10.193  13.880  65.333  1.00  0.00    -0.337 C  
HETATM    5  C   UNL     1     -10.725  15.276  65.063  1.00  0.00    -0.461 C  
ENDBRANCH   3   4
BRANCH   3   6
HETATM    6  C   UNL     1     -11.291  12.107  66.770  1.00  0.00    -0.342 C  
HETATM    7  O   UNL     1     -12.286  12.095  67.494  1.00  0.00    -0.474 OA 
BRANCH   6   8
HETATM    8  N   UNL     1     -10.168  11.335  67.008  1.00  0.00    -0.209 N  
HETATM    9  H   UNL     1      -9.258  11.679  66.703  1.00  0.00     0.000 HD 
BRANCH   8  10
HETATM   10  C   UNL     1     -10.245  10.090  67.659  1.00  0.00    -0.204 A  
HETATM   11  C   UNL     1     -10.659   8.936  66.998  1.00  0.00    -0.279 A  
HETATM   12  C   UNL     1     -10.659   7.706  67.661  1.00  0.00    -0.294 A  
HETATM   13  C   UNL     1     -10.223   7.602  68.989  1.00  0.00    -0.206 A  
HETATM   14  C   UNL     1      -9.878  10.012  69.002  1.00  0.00    -0.203 A  
HETATM   15  C   UNL     1      -9.837   8.773  69.665  1.00  0.00    -0.183 A  
BRANCH  13  16
HETATM   16  O   UNL     1     -10.106   6.408  69.650  1.00  0.00    -0.166 OA 
BRANCH  16  17
HETATM   17  C   UNL     1      -9.801   5.243  68.866  1.00  0.00    -0.164 C  
BRANCH  17  18
HETATM   18  C   UNL     1      -8.286   5.003  68.893  1.00  0.00    -0.083 C  
HETATM   19  H   UNL     1      -6.671   6.088  68.628  1.00  0.00     0.000 HD 
HETATM   20  O   UNL     1      -7.609   6.237  68.611  1.00  0.00    -0.089 OA 
BRANCH  18  21
HETATM   21  C   UNL     1      -7.772   4.463  70.242  1.00  0.00    -0.052 C  
BRANCH  21  22
HETATM   22  N   UNL     1      -8.009   5.375  71.367  1.00  0.00    -0.112 NA 
HETATM   23  C   UNL     1      -8.590   4.746  72.572  1.00  0.00    -0.116 C  
HETATM   24  H   UNL     1      -8.587   6.161  71.067  1.00  0.00     0.000 HD 
HETATM   25  C   UNL     1      -8.840   5.876  73.590  1.00  0.00    -0.124 C  
HETATM   26  C   UNL     1      -7.619   3.739  73.213  1.00  0.00    -0.073 C  
HETATM   27  C   UNL     1      -9.934   4.064  72.268  1.00  0.00    -0.236 C  
ENDBRANCH  21  22
ENDBRANCH  18  21
ENDBRANCH  17  18
ENDBRANCH  16  17
ENDBRANCH  13  16
BRANCH  15  28
HETATM   28  C   UNL     1      -9.281   8.830  71.051  1.00  0.00    -0.222 C  
HETATM   29  O   UNL     1     -10.056   8.843  72.009  1.00  0.00    -0.332 OA 
HETATM   30  C   UNL     1      -7.795   8.817  71.295  1.00  0.00    -0.167 C  
ENDBRANCH  15  28
ENDBRANCH   8  10
ENDBRANCH   6   8
ENDBRANCH   3   6
ENDBRANCH   2   3
TORSDOF 11
ENDMDL
MODEL      201
REMARK 921   NORMALIZED FREE ENERGY PREDICTED BY IDOCK:   -4.04 KCAL/MOL
REMARK 922        TOTAL FREE ENERGY PREDICTED BY IDOCK:   -7.77 KCAL/MOL
REMARK 923 INTER-LIGAND FREE ENERGY PREDICTED BY IDOCK:   -6.34 KCAL/MOL
REMARK 924 INTRA-LIGAND FREE ENERGY PREDICTED BY IDOCK:   -1.43 KCAL/MOL
REMARK 927      BINDING AFFINITY PREDICTED BY RF-SCORE:    0.00 PKD
ROOT
HETATM    1  C   UNL     1     -10.400   6.386  73.996  1.00  0.00    -0.340 C  
HETATM    2  C   UNL     1     -10.914   6.498  72.567  1.00  0.00    -0.248 C  
ENDROOT
BRANCH   2   3
HETATM    3  N   UNL     1      -9.846   6.716  71.586  1.00  0.00    -0.167 N  
BRANCH   3   4
HETATM    4  C   UNL     1      -9.198   5.536  71.003  1.00  0.00    -0.148 C  
HETATM    5  C   UNL     1     -10.032   4.816  69.961  1.00  0.00    -0.314 C  
ENDBRANCH   3   4
BRANCH   3   6
HETATM    6  C   UNL     1      -9.669   8.021  71.127  1.00  0.00    -0.160 C  
HETATM    7  O   UNL     1     -10.179   8.985  71.696  1.00  0.00    -0.317 OA 
BRANCH   6   8
HETATM    8  N   UNL     1      -8.849   8.140  70.019  1.00  0.00    -0.138 N  
HETATM    9  H   UNL     1      -8.060   7.502  69.918  1.00  0.00     0.000 HD 
BRANCH   8  10
HETATM   10  C   UNL     1      -9.071   9.113  69.029  1.00  0.00    -0.143 A  
HETATM   11  C   UNL     1     -10.062   8.969  68.060  1.00  0.00    -0.234 A  
HETATM   12  C   UNL     1     -10.295   9.989  67.133  1.00  0.00    -0.300 A  
HETATM   13  C   UNL     1      -9.559  11.181  67.171  1.00  0.00    -0.173 A  
HETATM   14  C   UNL     1      -8.283  10.264  69.032  1.00  0.00    -0.139 A  
HETATM   15  C   UNL     1      -8.537  11.311  68.128  1.00  0.00    -0.150 A  
BRANCH  13  16
HETATM   16  O   UNL     1      -9.816  12.249  66.354  1.00  0.00    -0.219 OA 
BRANCH  16  17
HETATM   17  C   UNL     1     -11.171  12.435  65.912  1.00  0.00    -0.336 C  
BRANCH  17  18
HETATM   18  C   UNL     1     -11.309  13.831  65.292  1.00  0.00    -0.304 C  
HETATM   19  H   UNL     1     -12.628  15.286  65.345  1.00  0.00     0.000 HD 
HETATM   20  O   UNL     1     -12.543  14.420  65.729  1.00  0.00    -0.397 OA 
BRANCH  18  21
HETATM   21  C   UNL     1     -10.156  14.786  65.659  1.00  0.00    -0.366 C  
BRANCH  21  22
HETATM   22  N   UNL     1     -10.271  15.351  67.009  1.00  0.00    -0.257 NA 
HETATM   23  C   UNL     1      -9.605  16.657  67.201  1.00  0.00    -0.241 C  
HETATM   24  H   UNL     1      -9.936  14.680  67.701  1.00  0.00     0.000 HD 
HETATM   25  C   UNL     1      -9.766  17.027  68.688  1.00  0.00    -0.282 C  
HETATM   26  C   UNL     1     -10.271  17.763  66.364  1.00  0.00    -0.365 C  
HETATM   27  C   UNL     1      -8.103  16.584  66.881  1.00  0.00    -0.254 C  
ENDBRANCH  21  22
ENDBRANCH  18  21
ENDBRANCH  17  18
ENDBRANCH  16  17
ENDBRANCH  13  16
BRANCH  15  28
HETATM   28  C   UNL     1      -7.710  12.537  68.353  1.00  0.00    -0.136 C  
HETATM   29  O   UNL     1      -8.276  13.610  68.567  1.00  0.00    -0.150 OA 
HETATM   30  C   UNL     1      -6.207  12.468  68.376  1.00  0.00    -0.058 C  
ENDBRANCH  15  28
ENDBRANCH   8  10
ENDBRANCH   6   8
ENDBRANCH   3   6
ENDBRANCH   2   3
TORSDOF 11
ENDMDL
MODEL      202
REMARK 921   NORMALIZED FREE ENERGY PREDICTED BY IDOCK:   -4.02 KCAL/MOL
REMARK 922        TOTAL FREE ENERGY PREDICTED BY IDOCK:   -7.74 KCAL/MOL
REMARK 923 INTER-LIGAND FREE ENERGY PREDICTED BY IDOCK:   -6.71 KCAL/MOL
REMARK 924 INTRA-LIGAND FREE ENERGY PREDICTED BY IDOCK:   -1.04 KCAL/MOL
REMARK 927      BINDING AFFINITY PREDICTED BY RF-SCORE:    0.00 PKD
ROOT
HETATM    1  C   UNL     1     -10.192  17.169  69.154  1.00  0.00    -0.284 C  
HETATM    2  C   UNL     1     -10.169  15.650  69.048  1.00  0.00    -0.225 C  
ENDROOT
BRANCH   2   3
HETATM    3  N   UNL     1     -11.440  15.085  68.584  1.00  0.00    -0.295 N  
BRANCH   3   4
HETATM    4  C   UNL     1     -12.564  15.058  69.526  1.00  0.00     0.008 C  
HETATM    5  C   UNL     1     -12.254  14.383  70.849  1.00  0.00    -0.413 C  
ENDBRANCH   3   4
BRANCH   3   6
HETATM    6  C   UNL     1     -11.545  14.805  67.222  1.00  0.00    -0.369 C  
HETATM    7  O   UNL     1     -11.042  15.534  66.367  1.00  0.00    -0.283 OA 
BRANCH   6   8
HETATM    8  N   UNL     1     -12.217  13.634  66.921  1.00  0.00    -0.384 N  
HETATM    9  H   UNL     1     -13.219  13.672  66.739  1.00  0.00     0.000 HD 
BRANCH   8  10
HETATM   10  C   UNL     1     -11.559  12.392  66.859  1.00  0.00    -0.370 A  
HETATM   11  C   UNL     1     -11.596  11.483  67.913  1.00  0.00    -0.352 A  
HETATM   12  C   UNL     1     -10.985  10.233  67.788  1.00  0.00    -0.360 A  
HETATM   13  C   UNL     1     -10.344   9.858  66.599  1.00  0.00    -0.205 A  
HETATM   14  C   UNL     1     -10.862  12.061  65.698  1.00  0.00    -0.325 A  
HETATM   15  C   UNL     1     -10.278  10.790  65.548  1.00  0.00    -0.330 A  
BRANCH  13  16
HETATM   16  O   UNL     1      -9.820   8.611  66.388  1.00  0.00    -0.250 OA 
BRANCH  16  17
HETATM   17  C   UNL     1      -9.481   7.830  67.546  1.00  0.00    -0.141 C  
BRANCH  17  18
HETATM   18  C   UNL     1     -10.174   6.464  67.450  1.00  0.00    -0.178 C  
HETATM   19  H   UNL     1     -11.827   5.763  66.654  1.00  0.00     0.000 HD 
HETATM   20  O   UNL     1     -11.398   6.609  66.714  1.00  0.00    -0.270 OA 
BRANCH  18  21
HETATM   21  C   UNL     1      -9.316   5.385  66.762  1.00  0.00    -0.134 C  
BRANCH  21  22
HETATM   22  N   UNL     1      -9.812   5.000  65.435  1.00  0.00    -0.362 NA 
HETATM   23  C   UNL     1      -8.764   4.743  64.424  1.00  0.00    -0.149 C  
HETATM   24  H   UNL     1     -10.470   5.699  65.089  1.00  0.00     0.000 HD 
HETATM   25  C   UNL     1      -9.486   4.445  63.096  1.00  0.00    -0.080 C  
HETATM   26  C   UNL     1      -7.914   3.512  64.787  1.00  0.00    -0.089 C  
HETATM   27  C   UNL     1      -7.858   5.968  64.217  1.00  0.00    -0.113 C  
ENDBRANCH  21  22
ENDBRANCH  18  21
ENDBRANCH  17  18
ENDBRANCH  16  17
ENDBRANCH  13  16
BRANCH  15  28
HETATM   28  C   UNL     1      -9.699  10.530  64.194  1.00  0.00    -0.327 C  
HETATM   29  O   UNL     1     -10.367  10.802  63.194  1.00  0.00    -0.255 OA 
HETATM   30  C   UNL     1      -8.301   9.996  64.035  1.00  0.00    -0.170 C  
ENDBRANCH  15  28
ENDBRANCH   8  10
ENDBRANCH   6   8
ENDBRANCH   3   6
ENDBRANCH   2   3
TORSDOF 11
ENDMDL
MODEL      203
REMARK 921   NORMALIZED FREE ENERGY PREDICTED BY IDOCK:   -4.01 KCAL/MOL
REMARK 922        TOTAL FREE ENERGY PREDICTED BY IDOCK:   -7.73 KCAL/MOL
REMARK 923 INTER-LIGAND FREE ENERGY PREDICTED BY IDOCK:   -7.03 KCAL/MOL
REMARK 924 INTRA-LIGAND FREE ENERGY PREDICTED BY IDOCK:   -0.70 KCAL/MOL
REMARK 927      BINDING AFFINITY PREDICTED BY RF-SCORE:    0.00 PKD
ROOT
HETATM    1  C   UNL     1     -10.541   5.859  68.780  1.00  0.00    -0.340 C  
HETATM    2  C   UNL     1      -9.989   7.271  68.923  1.00  0.00    -0.166 C  
ENDROOT
BRANCH   2   3
HETATM    3  N   UNL     1     -10.152   7.820  70.274  1.00  0.00    -0.194 N  
BRANCH   3   4
HETATM    4  C   UNL     1     -11.165   7.212  71.143  1.00  0.00    -0.262 C  
HETATM    5  C   UNL     1     -12.428   8.038  71.302  1.00  0.00    -0.270 C  
ENDBRANCH   3   4
BRANCH   3   6
HETATM    6  C   UNL     1      -9.193   8.738  70.700  1.00  0.00    -0.196 C  
HETATM    7  O   UNL     1      -9.150   9.140  71.862  1.00  0.00    -0.354 OA 
BRANCH   6   8
HETATM    8  N   UNL     1      -8.285   9.121  69.730  1.00  0.00    -0.118 N  
HETATM    9  H   UNL     1      -7.437   8.569  69.602  1.00  0.00     0.000 HD 
BRANCH   8  10
HETATM   10  C   UNL     1      -8.495  10.249  68.916  1.00  0.00    -0.138 A  
HETATM   11  C   UNL     1      -7.521  10.717  68.037  1.00  0.00    -0.090 A  
HETATM   12  C   UNL     1      -7.792  11.801  67.197  1.00  0.00    -0.166 A  
HETATM   13  C   UNL     1      -9.048  12.422  67.203  1.00  0.00    -0.199 A  
HETATM   14  C   UNL     1      -9.724  10.904  68.984  1.00  0.00    -0.181 A  
HETATM   15  C   UNL     1     -10.019  11.970  68.115  1.00  0.00    -0.203 A  
BRANCH  13  16
HETATM   16  O   UNL     1      -9.398  13.418  66.331  1.00  0.00    -0.244 OA 
BRANCH  16  17
HETATM   17  C   UNL     1      -9.001  14.759  66.663  1.00  0.00    -0.255 C  
BRANCH  17  18
HETATM   18  C   UNL     1     -10.200  15.698  66.476  1.00  0.00    -0.283 C  
HETATM   19  H   UNL     1     -11.735  16.274  67.559  1.00  0.00     0.000 HD 
HETATM   20  O   UNL     1     -10.992  15.692  67.674  1.00  0.00    -0.311 OA 
BRANCH  18  21
HETATM   21  C   UNL     1      -9.801  17.153  66.163  1.00  0.00    -0.262 C  
BRANCH  21  22
HETATM   22  N   UNL     1      -8.915  17.747  67.170  1.00  0.00    -0.242 NA 
HETATM   23  C   UNL     1      -9.197  19.162  67.496  1.00  0.00    -0.296 C  
HETATM   24  H   UNL     1      -7.940  17.639  66.890  1.00  0.00     0.000 HD 
HETATM   25  C   UNL     1      -8.114  19.615  68.494  1.00  0.00    -0.339 C  
HETATM   26  C   UNL     1     -10.566  19.327  68.178  1.00  0.00    -0.367 C  
HETATM   27  C   UNL     1      -9.114  20.061  66.252  1.00  0.00    -0.402 C  
ENDBRANCH  21  22
ENDBRANCH  18  21
ENDBRANCH  17  18
ENDBRANCH  16  17
ENDBRANCH  13  16
BRANCH  15  28
HETATM   28  C   UNL     1     -11.425  12.470  68.203  1.00  0.00    -0.319 C  
HETATM   29  O   UNL     1     -12.194  12.267  67.261  1.00  0.00    -0.485 OA 
HETATM   30  C   UNL     1     -11.928  13.164  69.440  1.00  0.00    -0.347 C  
ENDBRANCH  15  28
ENDBRANCH   8  10
ENDBRANCH   6   8
ENDBRANCH   3   6
ENDBRANCH   2   3
TORSDOF 11
ENDMDL
MODEL      204
REMARK 921   NORMALIZED FREE ENERGY PREDICTED BY IDOCK:   -4.00 KCAL/MOL
REMARK 922        TOTAL FREE ENERGY PREDICTED BY IDOCK:   -7.71 KCAL/MOL
REMARK 923 INTER-LIGAND FREE ENERGY PREDICTED BY IDOCK:   -6.35 KCAL/MOL
REMARK 924 INTRA-LIGAND FREE ENERGY PREDICTED BY IDOCK:   -1.35 KCAL/MOL
REMARK 927      BINDING AFFINITY PREDICTED BY RF-SCORE:    0.00 PKD
ROOT
HETATM    1  C   UNL     1      -7.114   7.381  68.584  1.00  0.00    -0.084 C  
HETATM    2  C   UNL     1      -7.423   7.422  70.074  1.00  0.00    -0.084 C  
ENDROOT
BRANCH   2   3
HETATM    3  N   UNL     1      -8.856   7.314  70.369  1.00  0.00    -0.149 N  
BRANCH   3   4
HETATM    4  C   UNL     1      -9.438   5.971  70.460  1.00  0.00    -0.168 C  
HETATM    5  C   UNL     1     -10.558   5.844  71.476  1.00  0.00    -0.300 C  
ENDBRANCH   3   4
BRANCH   3   6
HETATM    6  C   UNL     1      -9.512   8.486  70.743  1.00  0.00    -0.178 C  
HETATM    7  O   UNL     1      -9.172   9.135  71.732  1.00  0.00    -0.338 OA 
BRANCH   6   8
HETATM    8  N   UNL     1     -10.535   8.873  69.897  1.00  0.00    -0.209 N  
HETATM    9  H   UNL     1     -11.456   8.450  70.009  1.00  0.00     0.000 HD 
BRANCH   8  10
HETATM   10  C   UNL     1     -10.343   9.832  68.885  1.00  0.00    -0.210 A  
HETATM   11  C   UNL     1     -11.265  10.016  67.858  1.00  0.00    -0.169 A  
HETATM   12  C   UNL     1     -11.071  11.023  66.909  1.00  0.00    -0.280 A  
HETATM   13  C   UNL     1      -9.964  11.880  66.981  1.00  0.00    -0.202 A  
HETATM   14  C   UNL     1      -9.200  10.630  68.927  1.00  0.00    -0.189 A  
HETATM   15  C   UNL     1      -9.016  11.671  67.999  1.00  0.00    -0.176 A  
BRANCH  13  16
HETATM   16  O   UNL     1      -9.781  12.945  66.140  1.00  0.00    -0.266 OA 
BRANCH  16  17
HETATM   17  C   UNL     1     -10.864  13.288  65.261  1.00  0.00    -0.301 C  
BRANCH  17  18
HETATM   18  C   UNL     1     -11.608  14.502  65.833  1.00  0.00    -0.349 C  
HETATM   19  H   UNL     1     -13.415  14.870  66.509  1.00  0.00     0.000 HD 
HETATM   20  O   UNL     1     -12.954  14.119  66.155  1.00  0.00    -0.280 OA 
BRANCH  18  21
HETATM   21  C   UNL     1     -10.952  15.087  67.099  1.00  0.00    -0.329 C  
BRANCH  21  22
HETATM   22  N   UNL     1     -11.921  15.544  68.102  1.00  0.00    -0.424 NA 
HETATM   23  C   UNL     1     -11.713  15.008  69.464  1.00  0.00    -0.322 C  
HETATM   24  H   UNL     1     -12.872  15.349  67.789  1.00  0.00     0.000 HD 
HETATM   25  C   UNL     1     -12.873  15.533  70.334  1.00  0.00    -0.327 C  
HETATM   26  C   UNL     1     -10.396  15.511  70.079  1.00  0.00    -0.315 C  
HETATM   27  C   UNL     1     -11.752  13.471  69.484  1.00  0.00    -0.382 C  
ENDBRANCH  21  22
ENDBRANCH  18  21
ENDBRANCH  17  18
ENDBRANCH  16  17
ENDBRANCH  13  16
BRANCH  15  28
HETATM   28  C   UNL     1      -7.823  12.532  68.264  1.00  0.00    -0.144 C  
HETATM   29  O   UNL     1      -7.991  13.668  68.711  1.00  0.00    -0.117 OA 
HETATM   30  C   UNL     1      -6.427  12.015  68.045  1.00  0.00    -0.061 C  
ENDBRANCH  15  28
ENDBRANCH   8  10
ENDBRANCH   6   8
ENDBRANCH   3   6
ENDBRANCH   2   3
TORSDOF 11
ENDMDL
MODEL      205
REMARK 921   NORMALIZED FREE ENERGY PREDICTED BY IDOCK:   -3.98 KCAL/MOL
REMARK 922        TOTAL FREE ENERGY PREDICTED BY IDOCK:   -7.67 KCAL/MOL
REMARK 923 INTER-LIGAND FREE ENERGY PREDICTED BY IDOCK:   -6.10 KCAL/MOL
REMARK 924 INTRA-LIGAND FREE ENERGY PREDICTED BY IDOCK:   -1.57 KCAL/MOL
REMARK 927      BINDING AFFINITY PREDICTED BY RF-SCORE:    0.00 PKD
ROOT
HETATM    1  C   UNL     1     -11.538   6.437  70.087  1.00  0.00    -0.449 C  
HETATM    2  C   UNL     1     -10.569   7.477  69.540  1.00  0.00    -0.236 C  
ENDROOT
BRANCH   2   3
HETATM    3  N   UNL     1     -10.346   8.597  70.460  1.00  0.00    -0.196 N  
BRANCH   3   4
HETATM    4  C   UNL     1     -11.468   9.030  71.299  1.00  0.00    -0.320 C  
HETATM    5  C   UNL     1     -12.052  10.376  70.914  1.00  0.00    -0.477 C  
ENDBRANCH   3   4
BRANCH   3   6
HETATM    6  C   UNL     1      -9.029   9.031  70.617  1.00  0.00    -0.220 C  
HETATM    7  O   UNL     1      -8.511   9.147  71.726  1.00  0.00    -0.340 OA 
BRANCH   6   8
HETATM    8  N   UNL     1      -8.356   9.276  69.434  1.00  0.00    -0.120 N  
HETATM    9  H   UNL     1      -7.809   8.525  69.013  1.00  0.00     0.000 HD 
BRANCH   8  10
HETATM   10  C   UNL     1      -8.402  10.528  68.796  1.00  0.00    -0.136 A  
HETATM   11  C   UNL     1      -9.452  10.891  67.956  1.00  0.00    -0.167 A  
HETATM   12  C   UNL     1      -9.495  12.169  67.393  1.00  0.00    -0.179 A  
HETATM   13  C   UNL     1      -8.501  13.117  67.675  1.00  0.00    -0.194 A  
HETATM   14  C   UNL     1      -7.369  11.436  69.027  1.00  0.00    -0.108 A  
HETATM   15  C   UNL     1      -7.423  12.738  68.496  1.00  0.00    -0.120 A  
BRANCH  13  16
HETATM   16  O   UNL     1      -8.549  14.411  67.233  1.00  0.00    -0.192 OA 
BRANCH  16  17
HETATM   17  C   UNL     1      -9.790  15.119  67.389  1.00  0.00    -0.224 C  
BRANCH  17  18
HETATM   18  C   UNL     1     -10.049  15.959  66.131  1.00  0.00    -0.315 C  
HETATM   19  H   UNL     1      -8.998  17.154  64.979  1.00  0.00     0.000 HD 
HETATM   20  O   UNL     1      -8.837  16.634  65.758  1.00  0.00    -0.493 OA 
BRANCH  18  21
HETATM   21  C   UNL     1     -10.536  15.131  64.926  1.00  0.00    -0.319 C  
BRANCH  21  22
HETATM   22  N   UNL     1     -11.208  13.883  65.306  1.00  0.00    -0.304 NA 
HETATM   23  C   UNL     1     -11.452  12.939  64.195  1.00  0.00    -0.396 C  
HETATM   24  H   UNL     1     -12.082  14.088  65.792  1.00  0.00     0.000 HD 
HETATM   25  C   UNL     1     -12.237  11.749  64.783  1.00  0.00     0.042 C  
HETATM   26  C   UNL     1     -10.136  12.395  63.611  1.00  0.00    -0.302 C  
HETATM   27  C   UNL     1     -12.301  13.575  63.082  1.00  0.00     0.019 C  
ENDBRANCH  21  22
ENDBRANCH  18  21
ENDBRANCH  17  18
ENDBRANCH  16  17
ENDBRANCH  13  16
BRANCH  15  28
HETATM   28  C   UNL     1      -6.324  13.640  68.954  1.00  0.00    -0.097 C  
HETATM   29  O   UNL     1      -6.379  14.127  70.085  1.00  0.00    -0.149 OA 
HETATM   30  C   UNL     1      -5.129  13.917  68.081  1.00  0.00    -0.112 C  
ENDBRANCH  15  28
ENDBRANCH   8  10
ENDBRANCH   6   8
ENDBRANCH   3   6
ENDBRANCH   2   3
TORSDOF 11
ENDMDL
MODEL      206
REMARK 921   NORMALIZED FREE ENERGY PREDICTED BY IDOCK:   -3.97 KCAL/MOL
REMARK 922        TOTAL FREE ENERGY PREDICTED BY IDOCK:   -7.65 KCAL/MOL
REMARK 923 INTER-LIGAND FREE ENERGY PREDICTED BY IDOCK:   -6.56 KCAL/MOL
REMARK 924 INTRA-LIGAND FREE ENERGY PREDICTED BY IDOCK:   -1.09 KCAL/MOL
REMARK 927      BINDING AFFINITY PREDICTED BY RF-SCORE:    0.00 PKD
ROOT
HETATM    1  C   UNL     1     -10.379   6.137  70.440  1.00  0.00    -0.269 C  
HETATM    2  C   UNL     1     -10.089   5.542  69.069  1.00  0.00    -0.205 C  
ENDROOT
BRANCH   2   3
HETATM    3  N   UNL     1      -9.325   6.442  68.200  1.00  0.00    -0.110 N  
BRANCH   3   4
HETATM    4  C   UNL     1      -7.862   6.420  68.305  1.00  0.00    -0.105 C  
HETATM    5  C   UNL     1      -7.170   5.608  67.226  1.00  0.00    -0.075 C  
ENDBRANCH   3   4
BRANCH   3   6
HETATM    6  C   UNL     1     -10.034   7.100  67.195  1.00  0.00    -0.209 C  
HETATM    7  O   UNL     1     -11.023   6.599  66.662  1.00  0.00    -0.274 OA 
BRANCH   6   8
HETATM    8  N   UNL     1      -9.561   8.362  66.884  1.00  0.00    -0.184 N  
HETATM    9  H   UNL     1      -8.869   8.461  66.141  1.00  0.00     0.000 HD 
BRANCH   8  10
HETATM   10  C   UNL     1     -10.005   9.512  67.560  1.00  0.00    -0.186 A  
HETATM   11  C   UNL     1      -9.989  10.772  66.965  1.00  0.00    -0.236 A  
HETATM   12  C   UNL     1     -10.500  11.879  67.647  1.00  0.00    -0.232 A  
HETATM   13  C   UNL     1     -11.058  11.746  68.926  1.00  0.00    -0.243 A  
HETATM   14  C   UNL     1     -10.490   9.379  68.861  1.00  0.00    -0.236 A  
HETATM   15  C   UNL     1     -11.042  10.481  69.539  1.00  0.00    -0.320 A  
BRANCH  13  16
HETATM   16  O   UNL     1     -11.663  12.777  69.593  1.00  0.00    -0.304 OA 
BRANCH  16  17
HETATM   17  C   UNL     1     -12.032  13.936  68.828  1.00  0.00    -0.358 C  
BRANCH  17  18
HETATM   18  C   UNL     1     -11.512  15.193  69.539  1.00  0.00    -0.296 C  
HETATM   19  H   UNL     1      -9.919  15.679  70.581  1.00  0.00     0.000 HD 
HETATM   20  O   UNL     1     -10.242  14.901  70.141  1.00  0.00    -0.046 OA 
BRANCH  18  21
HETATM   21  C   UNL     1     -11.340  16.405  68.603  1.00  0.00    -0.289 C  
BRANCH  21  22
HETATM   22  N   UNL     1      -9.973  16.937  68.579  1.00  0.00    -0.260 NA 
HETATM   23  C   UNL     1      -9.348  17.001  67.241  1.00  0.00    -0.237 C  
HETATM   24  H   UNL     1      -9.378  16.410  69.220  1.00  0.00     0.000 HD 
HETATM   25  C   UNL     1      -7.903  17.498  67.444  1.00  0.00    -0.217 C  
HETATM   26  C   UNL     1     -10.068  18.005  66.324  1.00  0.00    -0.363 C  
HETATM   27  C   UNL     1      -9.293  15.619  66.570  1.00  0.00    -0.305 C  
ENDBRANCH  21  22
ENDBRANCH  18  21
ENDBRANCH  17  18
ENDBRANCH  16  17
ENDBRANCH  13  16
BRANCH  15  28
HETATM   28  C   UNL     1     -11.657  10.150  70.861  1.00  0.00    -0.372 C  
HETATM   29  O   UNL     1     -10.927   9.806  71.792  1.00  0.00    -0.147 OA 
HETATM   30  C   UNL     1     -13.139  10.285  71.085  1.00  0.00    -0.481 C  
ENDBRANCH  15  28
ENDBRANCH   8  10
ENDBRANCH   6   8
ENDBRANCH   3   6
ENDBRANCH   2   3
TORSDOF 11
ENDMDL
MODEL      207
REMARK 921   NORMALIZED FREE ENERGY PREDICTED BY IDOCK:   -3.97 KCAL/MOL
REMARK 922        TOTAL FREE ENERGY PREDICTED BY IDOCK:   -7.65 KCAL/MOL
REMARK 923 INTER-LIGAND FREE ENERGY PREDICTED BY IDOCK:   -5.87 KCAL/MOL
REMARK 924 INTRA-LIGAND FREE ENERGY PREDICTED BY IDOCK:   -1.78 KCAL/MOL
REMARK 927      BINDING AFFINITY PREDICTED BY RF-SCORE:    0.00 PKD
ROOT
HETATM    1  C   UNL     1      -9.518  16.233  68.183  1.00  0.00    -0.215 C  
HETATM    2  C   UNL     1      -9.541  14.793  68.676  1.00  0.00    -0.218 C  
ENDROOT
BRANCH   2   3
HETATM    3  N   UNL     1     -10.736  14.057  68.252  1.00  0.00    -0.247 N  
BRANCH   3   4
HETATM    4  C   UNL     1     -12.017  14.409  68.875  1.00  0.00    -0.302 C  
HETATM    5  C   UNL     1     -12.184  13.895  70.292  1.00  0.00    -0.428 C  
ENDBRANCH   3   4
BRANCH   3   6
HETATM    6  C   UNL     1     -10.602  13.222  67.143  1.00  0.00    -0.258 C  
HETATM    7  O   UNL     1      -9.724  13.398  66.299  1.00  0.00    -0.280 OA 
BRANCH   6   8
HETATM    8  N   UNL     1     -11.499  12.171  67.097  1.00  0.00    -0.335 N  
HETATM    9  H   UNL     1     -12.474  12.363  66.867  1.00  0.00     0.000 HD 
BRANCH   8  10
HETATM   10  C   UNL     1     -11.109  10.845  67.358  1.00  0.00    -0.307 A  
HETATM   11  C   UNL     1     -10.637  10.003  66.353  1.00  0.00    -0.138 A  
HETATM   12  C   UNL     1     -10.196   8.714  66.664  1.00  0.00    -0.343 A  
HETATM   13  C   UNL     1     -10.197   8.249  67.986  1.00  0.00    -0.214 A  
HETATM   14  C   UNL     1     -11.183  10.370  68.666  1.00  0.00    -0.305 A  
HETATM   15  C   UNL     1     -10.705   9.088  68.994  1.00  0.00    -0.163 A  
BRANCH  13  16
HETATM   16  O   UNL     1      -9.682   7.036  68.357  1.00  0.00    -0.138 OA 
BRANCH  16  17
HETATM   17  C   UNL     1     -10.569   5.906  68.337  1.00  0.00    -0.250 C  
BRANCH  17  18
HETATM   18  C   UNL     1     -10.076   4.900  67.288  1.00  0.00    -0.168 C  
HETATM   19  H   UNL     1     -10.566   4.410  65.450  1.00  0.00     0.000 HD 
HETATM   20  O   UNL     1     -10.871   5.033  66.100  1.00  0.00    -0.294 OA 
BRANCH  18  21
HETATM   21  C   UNL     1      -8.595   5.085  66.905  1.00  0.00    -0.105 C  
BRANCH  21  22
HETATM   22  N   UNL     1      -8.400   5.857  65.672  1.00  0.00    -0.137 NA 
HETATM   23  C   UNL     1      -7.045   6.421  65.492  1.00  0.00    -0.065 C  
HETATM   24  H   UNL     1      -9.100   6.597  65.605  1.00  0.00     0.000 HD 
HETATM   25  C   UNL     1      -7.077   7.259  64.199  1.00  0.00    -0.067 C  
HETATM   26  C   UNL     1      -5.988   5.317  65.315  1.00  0.00    -0.025 C  
HETATM   27  C   UNL     1      -6.653   7.346  66.657  1.00  0.00    -0.053 C  
ENDBRANCH  21  22
ENDBRANCH  18  21
ENDBRANCH  17  18
ENDBRANCH  16  17
ENDBRANCH  13  16
BRANCH  15  28
HETATM   28  C   UNL     1     -10.711   8.780  70.457  1.00  0.00    -0.223 C  
HETATM   29  O   UNL     1     -11.688   8.209  70.945  1.00  0.00    -0.283 OA 
HETATM   30  C   UNL     1      -9.526   9.104  71.326  1.00  0.00    -0.313 C  
ENDBRANCH  15  28
ENDBRANCH   8  10
ENDBRANCH   6   8
ENDBRANCH   3   6
ENDBRANCH   2   3
TORSDOF 11
ENDMDL
MODEL      208
REMARK 921   NORMALIZED FREE ENERGY PREDICTED BY IDOCK:   -3.97 KCAL/MOL
REMARK 922        TOTAL FREE ENERGY PREDICTED BY IDOCK:   -7.65 KCAL/MOL
REMARK 923 INTER-LIGAND FREE ENERGY PREDICTED BY IDOCK:   -6.21 KCAL/MOL
REMARK 924 INTRA-LIGAND FREE ENERGY PREDICTED BY IDOCK:   -1.43 KCAL/MOL
REMARK 927      BINDING AFFINITY PREDICTED BY RF-SCORE:    0.00 PKD
ROOT
HETATM    1  C   UNL     1      -6.771   4.486  67.639  1.00  0.00    -0.048 C  
HETATM    2  C   UNL     1      -8.173   4.077  67.210  1.00  0.00    -0.099 C  
ENDROOT
BRANCH   2   3
HETATM    3  N   UNL     1      -9.215   4.984  67.703  1.00  0.00    -0.117 N  
BRANCH   3   4
HETATM    4  C   UNL     1      -9.320   5.186  69.152  1.00  0.00    -0.124 C  
HETATM    5  C   UNL     1     -10.680   5.669  69.618  1.00  0.00    -0.398 C  
ENDBRANCH   3   4
BRANCH   3   6
HETATM    6  C   UNL     1      -9.893   5.743  66.749  1.00  0.00    -0.162 C  
HETATM    7  O   UNL     1     -11.072   5.534  66.470  1.00  0.00    -0.179 OA 
BRANCH   6   8
HETATM    8  N   UNL     1      -9.147   6.761  66.183  1.00  0.00    -0.250 N  
HETATM    9  H   UNL     1      -8.527   6.545  65.403  1.00  0.00     0.000 HD 
BRANCH   8  10
HETATM   10  C   UNL     1      -9.219   8.085  66.651  1.00  0.00    -0.180 A  
HETATM   11  C   UNL     1      -9.753   9.114  65.878  1.00  0.00    -0.336 A  
HETATM   12  C   UNL     1      -9.867  10.404  66.404  1.00  0.00    -0.266 A  
HETATM   13  C   UNL     1      -9.472  10.686  67.718  1.00  0.00    -0.153 A  
HETATM   14  C   UNL     1      -8.754   8.369  67.935  1.00  0.00    -0.138 A  
HETATM   15  C   UNL     1      -8.901   9.654  68.486  1.00  0.00    -0.124 A  
BRANCH  13  16
HETATM   16  O   UNL     1      -9.656  11.905  68.314  1.00  0.00    -0.192 OA 
BRANCH  16  17
HETATM   17  C   UNL     1      -8.614  12.882  68.160  1.00  0.00    -0.188 C  
BRANCH  17  18
HETATM   18  C   UNL     1      -9.218  14.285  68.300  1.00  0.00    -0.197 C  
HETATM   19  H   UNL     1      -8.685  15.985  69.128  1.00  0.00     0.000 HD 
HETATM   20  O   UNL     1      -8.311  15.116  69.041  1.00  0.00    -0.182 OA 
BRANCH  18  21
HETATM   21  C   UNL     1      -9.511  14.968  66.950  1.00  0.00    -0.238 C  
BRANCH  21  22
HETATM   22  N   UNL     1      -9.671  14.023  65.838  1.00  0.00    -0.460 NA 
HETATM   23  C   UNL     1     -11.005  14.025  65.201  1.00  0.00    -0.353 C  
HETATM   24  H   UNL     1      -9.428  13.079  66.141  1.00  0.00     0.000 HD 
HETATM   25  C   UNL     1     -10.992  12.915  64.131  1.00  0.00    -0.442 C  
HETATM   26  C   UNL     1     -11.295  15.360  64.493  1.00  0.00    -0.321 C  
HETATM   27  C   UNL     1     -12.121  13.710  66.210  1.00  0.00    -0.477 C  
ENDBRANCH  21  22
ENDBRANCH  18  21
ENDBRANCH  17  18
ENDBRANCH  16  17
ENDBRANCH  13  16
BRANCH  15  28
HETATM   28  C   UNL     1      -8.495   9.764  69.920  1.00  0.00    -0.201 C  
HETATM   29  O   UNL     1      -9.323   9.516  70.798  1.00  0.00    -0.245 OA 
HETATM   30  C   UNL     1      -7.082  10.116  70.304  1.00  0.00    -0.146 C  
ENDBRANCH  15  28
ENDBRANCH   8  10
ENDBRANCH   6   8
ENDBRANCH   3   6
ENDBRANCH   2   3
TORSDOF 11
ENDMDL
MODEL      209
REMARK 921   NORMALIZED FREE ENERGY PREDICTED BY IDOCK:   -3.96 KCAL/MOL
REMARK 922        TOTAL FREE ENERGY PREDICTED BY IDOCK:   -7.65 KCAL/MOL
REMARK 923 INTER-LIGAND FREE ENERGY PREDICTED BY IDOCK:   -7.18 KCAL/MOL
REMARK 924 INTRA-LIGAND FREE ENERGY PREDICTED BY IDOCK:   -0.47 KCAL/MOL
REMARK 927      BINDING AFFINITY PREDICTED BY RF-SCORE:    0.00 PKD
ROOT
HETATM    1  C   UNL     1     -10.449   6.099  70.457  1.00  0.00    -0.291 C  
HETATM    2  C   UNL     1     -10.398   5.368  69.122  1.00  0.00    -0.230 C  
ENDROOT
BRANCH   2   3
HETATM    3  N   UNL     1      -9.507   6.007  68.148  1.00  0.00    -0.114 N  
BRANCH   3   4
HETATM    4  C   UNL     1      -8.061   5.850  68.336  1.00  0.00    -0.109 C  
HETATM    5  C   UNL     1      -7.673   4.771  69.329  1.00  0.00    -0.063 C  
ENDBRANCH   3   4
BRANCH   3   6
HETATM    6  C   UNL     1     -10.102   6.540  67.005  1.00  0.00    -0.179 C  
HETATM    7  O   UNL     1     -11.198   6.153  66.602  1.00  0.00    -0.232 OA 
BRANCH   6   8
HETATM    8  N   UNL     1      -9.383   7.553  66.397  1.00  0.00    -0.246 N  
HETATM    9  H   UNL     1      -8.746   7.319  65.636  1.00  0.00     0.000 HD 
BRANCH   8  10
HETATM   10  C   UNL     1      -9.505   8.896  66.797  1.00  0.00    -0.187 A  
HETATM   11  C   UNL     1      -8.941   9.369  67.979  1.00  0.00    -0.128 A  
HETATM   12  C   UNL     1      -9.028  10.724  68.309  1.00  0.00    -0.143 A  
HETATM   13  C   UNL     1      -9.660  11.637  67.453  1.00  0.00    -0.166 A  
HETATM   14  C   UNL     1     -10.200   9.781  65.972  1.00  0.00    -0.263 A  
HETATM   15  C   UNL     1     -10.259  11.152  66.277  1.00  0.00    -0.286 A  
BRANCH  13  16
HETATM   16  O   UNL     1      -9.683  12.987  67.679  1.00  0.00    -0.202 OA 
BRANCH  16  17
HETATM   17  C   UNL     1     -10.035  13.432  68.999  1.00  0.00     0.169 C  
BRANCH  17  18
HETATM   18  C   UNL     1     -11.100  14.532  68.889  1.00  0.00    -0.256 C  
HETATM   19  H   UNL     1     -12.312  15.202  67.497  1.00  0.00     0.000 HD 
HETATM   20  O   UNL     1     -11.653  14.521  67.564  1.00  0.00    -0.347 OA 
BRANCH  18  21
HETATM   21  C   UNL     1     -12.253  14.376  69.900  1.00  0.00    -0.340 C  
BRANCH  21  22
HETATM   22  N   UNL     1     -11.963  14.962  71.214  1.00  0.00    -0.321 NA 
HETATM   23  C   UNL     1     -13.045  14.826  72.213  1.00  0.00    -0.356 C  
HETATM   24  H   UNL     1     -11.700  15.942  71.112  1.00  0.00     0.000 HD 
HETATM   25  C   UNL     1     -12.582  15.575  73.478  1.00  0.00    -0.672 C  
HETATM   26  C   UNL     1     -13.285  13.355  72.595  1.00  0.00    -0.436 C  
HETATM   27  C   UNL     1     -14.355  15.466  71.725  1.00  0.00    -0.639 C  
ENDBRANCH  21  22
ENDBRANCH  18  21
ENDBRANCH  17  18
ENDBRANCH  16  17
ENDBRANCH  13  16
BRANCH  15  28
HETATM   28  C   UNL     1     -10.906  11.993  65.224  1.00  0.00    -0.294 C  
HETATM   29  O   UNL     1     -11.954  12.585  65.489  1.00  0.00    -0.420 OA 
HETATM   30  C   UNL     1     -10.271  12.171  63.870  1.00  0.00    -0.426 C  
ENDBRANCH  15  28
ENDBRANCH   8  10
ENDBRANCH   6   8
ENDBRANCH   3   6
ENDBRANCH   2   3
TORSDOF 11
ENDMDL
MODEL      210
REMARK 921   NORMALIZED FREE ENERGY PREDICTED BY IDOCK:   -3.94 KCAL/MOL
REMARK 922        TOTAL FREE ENERGY PREDICTED BY IDOCK:   -7.61 KCAL/MOL
REMARK 923 INTER-LIGAND FREE ENERGY PREDICTED BY IDOCK:   -6.50 KCAL/MOL
REMARK 924 INTRA-LIGAND FREE ENERGY PREDICTED BY IDOCK:   -1.11 KCAL/MOL
REMARK 927      BINDING AFFINITY PREDICTED BY RF-SCORE:    0.00 PKD
ROOT
HETATM    1  C   UNL     1     -10.515  19.630  67.118  1.00  0.00    -0.595 C  
HETATM    2  C   UNL     1     -10.437  18.293  67.841  1.00  0.00    -0.388 C  
ENDROOT
BRANCH   2   3
HETATM    3  N   UNL     1      -9.645  17.292  67.118  1.00  0.00    -0.250 N  
BRANCH   3   4
HETATM    4  C   UNL     1      -8.213  17.201  67.420  1.00  0.00    -0.182 C  
HETATM    5  C   UNL     1      -7.312  17.820  66.367  1.00  0.00    -0.310 C  
ENDBRANCH   3   4
BRANCH   3   6
HETATM    6  C   UNL     1     -10.351  16.365  66.351  1.00  0.00    -0.313 C  
HETATM    7  O   UNL     1     -10.176  16.258  65.137  1.00  0.00    -0.566 OA 
BRANCH   6   8
HETATM    8  N   UNL     1     -11.219  15.561  67.066  1.00  0.00    -0.239 N  
HETATM    9  H   UNL     1     -12.161  15.901  67.258  1.00  0.00     0.000 HD 
BRANCH   8  10
HETATM   10  C   UNL     1     -10.842  14.291  67.538  1.00  0.00    -0.280 A  
HETATM   11  C   UNL     1     -11.779  13.305  67.835  1.00  0.00    -0.395 A  
HETATM   12  C   UNL     1     -11.361  12.034  68.238  1.00  0.00    -0.342 A  
HETATM   13  C   UNL     1      -9.999  11.716  68.329  1.00  0.00    -0.201 A  
HETATM   14  C   UNL     1      -9.485  14.011  67.695  1.00  0.00    -0.210 A  
HETATM   15  C   UNL     1      -9.054  12.723  68.062  1.00  0.00    -0.207 A  
BRANCH  13  16
HETATM   16  O   UNL     1      -9.538  10.460  68.619  1.00  0.00    -0.152 OA 
BRANCH  16  17
HETATM   17  C   UNL     1     -10.503   9.398  68.682  1.00  0.00    -0.209 C  
BRANCH  17  18
HETATM   18  C   UNL     1      -9.954   8.177  67.931  1.00  0.00    -0.182 C  
HETATM   19  H   UNL     1     -10.515   7.081  66.401  1.00  0.00     0.000 HD 
HETATM   20  O   UNL     1     -10.855   7.837  66.866  1.00  0.00    -0.311 OA 
BRANCH  18  21
HETATM   21  C   UNL     1      -8.553   8.402  67.331  1.00  0.00    -0.124 C  
BRANCH  21  22
HETATM   22  N   UNL     1      -8.449   8.008  65.921  1.00  0.00    -0.136 NA 
HETATM   23  C   UNL     1      -7.963   9.066  65.009  1.00  0.00    -0.123 C  
HETATM   24  H   UNL     1      -9.343   7.643  65.591  1.00  0.00     0.000 HD 
HETATM   25  C   UNL     1      -8.012   8.484  63.583  1.00  0.00    -0.161 C  
HETATM   26  C   UNL     1      -6.505   9.452  65.312  1.00  0.00    -0.074 C  
HETATM   27  C   UNL     1      -8.860  10.313  65.053  1.00  0.00    -0.209 C  
ENDBRANCH  21  22
ENDBRANCH  18  21
ENDBRANCH  17  18
ENDBRANCH  16  17
ENDBRANCH  13  16
BRANCH  15  28
HETATM   28  C   UNL     1      -7.571  12.536  68.042  1.00  0.00    -0.127 C  
HETATM   29  O   UNL     1      -6.906  13.114  67.180  1.00  0.00    -0.107 OA 
HETATM   30  C   UNL     1      -6.878  11.703  69.085  1.00  0.00    -0.111 C  
ENDBRANCH  15  28
ENDBRANCH   8  10
ENDBRANCH   6   8
ENDBRANCH   3   6
ENDBRANCH   2   3
TORSDOF 11
ENDMDL
MODEL      211
REMARK 921   NORMALIZED FREE ENERGY PREDICTED BY IDOCK:   -3.94 KCAL/MOL
REMARK 922        TOTAL FREE ENERGY PREDICTED BY IDOCK:   -7.61 KCAL/MOL
REMARK 923 INTER-LIGAND FREE ENERGY PREDICTED BY IDOCK:   -6.29 KCAL/MOL
REMARK 924 INTRA-LIGAND FREE ENERGY PREDICTED BY IDOCK:   -1.31 KCAL/MOL
REMARK 927      BINDING AFFINITY PREDICTED BY RF-SCORE:    0.00 PKD
ROOT
HETATM    1  C   UNL     1      -7.085   6.768  68.973  1.00  0.00    -0.089 C  
HETATM    2  C   UNL     1      -7.596   5.361  68.699  1.00  0.00    -0.083 C  
ENDROOT
BRANCH   2   3
HETATM    3  N   UNL     1      -8.473   5.284  67.526  1.00  0.00    -0.106 N  
BRANCH   3   4
HETATM    4  C   UNL     1      -7.885   4.840  66.257  1.00  0.00    -0.099 C  
HETATM    5  C   UNL     1      -6.928   5.837  65.630  1.00  0.00    -0.068 C  
ENDBRANCH   3   4
BRANCH   3   6
HETATM    6  C   UNL     1      -9.841   5.439  67.749  1.00  0.00    -0.143 C  
HETATM    7  O   UNL     1     -10.416   4.872  68.677  1.00  0.00    -0.043 OA 
BRANCH   6   8
HETATM    8  N   UNL     1     -10.475   6.305  66.878  1.00  0.00    -0.255 N  
HETATM    9  H   UNL     1     -11.070   5.920  66.144  1.00  0.00     0.000 HD 
BRANCH   8  10
HETATM   10  C   UNL     1     -10.326   7.701  66.973  1.00  0.00    -0.330 A  
HETATM   11  C   UNL     1      -9.964   8.481  65.878  1.00  0.00     0.116 A  
HETATM   12  C   UNL     1      -9.889   9.872  65.997  1.00  0.00    -0.330 A  
HETATM   13  C   UNL     1     -10.198  10.510  67.206  1.00  0.00    -0.215 A  
HETATM   14  C   UNL     1     -10.565   8.318  68.201  1.00  0.00    -0.169 A  
HETATM   15  C   UNL     1     -10.531   9.719  68.320  1.00  0.00    -0.255 A  
BRANCH  13  16
HETATM   16  O   UNL     1     -10.241  11.872  67.348  1.00  0.00    -0.194 OA 
BRANCH  16  17
HETATM   17  C   UNL     1     -10.036  12.667  66.169  1.00  0.00    -0.261 C  
BRANCH  17  18
HETATM   18  C   UNL     1     -11.352  13.365  65.800  1.00  0.00    -0.305 C  
HETATM   19  H   UNL     1     -13.261  12.903  65.827  1.00  0.00     0.000 HD 
HETATM   20  O   UNL     1     -12.446  12.471  66.055  1.00  0.00    -0.565 OA 
BRANCH  18  21
HETATM   21  C   UNL     1     -11.597  14.670  66.581  1.00  0.00    -0.350 C  
BRANCH  21  22
HETATM   22  N   UNL     1     -12.263  14.464  67.873  1.00  0.00    -0.620 NA 
HETATM   23  C   UNL     1     -11.566  15.048  69.038  1.00  0.00    -0.319 C  
HETATM   24  H   UNL     1     -12.432  13.469  68.027  1.00  0.00     0.000 HD 
HETATM   25  C   UNL     1     -12.372  14.647  70.290  1.00  0.00    -0.406 C  
HETATM   26  C   UNL     1     -11.533  16.585  68.969  1.00  0.00    -0.109 C  
HETATM   27  C   UNL     1     -10.139  14.496  69.186  1.00  0.00    -0.145 C  
ENDBRANCH  21  22
ENDBRANCH  18  21
ENDBRANCH  17  18
ENDBRANCH  16  17
ENDBRANCH  13  16
BRANCH  15  28
HETATM   28  C   UNL     1     -10.956  10.237  69.656  1.00  0.00    -0.270 C  
HETATM   29  O   UNL     1     -10.284   9.955  70.650  1.00  0.00    -0.266 OA 
HETATM   30  C   UNL     1     -12.153  11.139  69.796  1.00  0.00    -0.414 C  
ENDBRANCH  15  28
ENDBRANCH   8  10
ENDBRANCH   6   8
ENDBRANCH   3   6
ENDBRANCH   2   3
TORSDOF 11
ENDMDL
MODEL      212
REMARK 921   NORMALIZED FREE ENERGY PREDICTED BY IDOCK:   -3.94 KCAL/MOL
REMARK 922        TOTAL FREE ENERGY PREDICTED BY IDOCK:   -7.61 KCAL/MOL
REMARK 923 INTER-LIGAND FREE ENERGY PREDICTED BY IDOCK:   -6.70 KCAL/MOL
REMARK 924 INTRA-LIGAND FREE ENERGY PREDICTED BY IDOCK:   -0.91 KCAL/MOL
REMARK 927      BINDING AFFINITY PREDICTED BY RF-SCORE:    0.00 PKD
ROOT
HETATM    1  C   UNL     1     -11.307   7.845  72.808  1.00  0.00    -0.453 C  
HETATM    2  C   UNL     1     -10.355   6.659  72.868  1.00  0.00    -0.213 C  
ENDROOT
BRANCH   2   3
HETATM    3  N   UNL     1      -9.436   6.599  71.726  1.00  0.00    -0.152 N  
BRANCH   3   4
HETATM    4  C   UNL     1      -8.211   5.805  71.872  1.00  0.00    -0.119 C  
HETATM    5  C   UNL     1      -7.323   5.796  70.642  1.00  0.00    -0.084 C  
ENDBRANCH   3   4
BRANCH   3   6
HETATM    6  C   UNL     1      -9.894   7.129  70.520  1.00  0.00    -0.179 C  
HETATM    7  O   UNL     1     -10.671   6.513  69.792  1.00  0.00    -0.223 OA 
BRANCH   6   8
HETATM    8  N   UNL     1      -9.439   8.404  70.238  1.00  0.00    -0.163 N  
HETATM    9  H   UNL     1      -8.806   8.859  70.895  1.00  0.00     0.000 HD 
BRANCH   8  10
HETATM   10  C   UNL     1      -9.824   9.092  69.073  1.00  0.00    -0.174 A  
HETATM   11  C   UNL     1     -10.904   9.971  69.057  1.00  0.00    -0.253 A  
HETATM   12  C   UNL     1     -11.215  10.685  67.897  1.00  0.00    -0.376 A  
HETATM   13  C   UNL     1     -10.438  10.553  66.738  1.00  0.00    -0.242 A  
HETATM   14  C   UNL     1      -9.087   8.896  67.905  1.00  0.00    -0.145 A  
HETATM   15  C   UNL     1      -9.368   9.640  66.745  1.00  0.00    -0.193 A  
BRANCH  13  16
HETATM   16  O   UNL     1     -10.636  11.304  65.610  1.00  0.00    -0.258 OA 
BRANCH  16  17
HETATM   17  C   UNL     1     -10.444  12.724  65.717  1.00  0.00    -0.276 C  
BRANCH  17  18
HETATM   18  C   UNL     1     -11.809  13.421  65.643  1.00  0.00    -0.370 C  
HETATM   19  H   UNL     1     -13.550  13.051  64.812  1.00  0.00     0.000 HD 
HETATM   20  O   UNL     1     -12.704  12.619  64.858  1.00  0.00    -0.648 OA 
BRANCH  18  21
HETATM   21  C   UNL     1     -12.453  13.663  67.022  1.00  0.00    -0.084 C  
BRANCH  21  22
HETATM   22  N   UNL     1     -12.089  14.952  67.621  1.00  0.00    -0.499 NA 
HETATM   23  C   UNL     1     -11.457  14.868  68.954  1.00  0.00    -0.299 C  
HETATM   24  H   UNL     1     -12.903  15.566  67.656  1.00  0.00     0.000 HD 
HETATM   25  C   UNL     1     -11.237  16.315  69.438  1.00  0.00    -0.311 C  
HETATM   26  C   UNL     1     -10.083  14.178  68.890  1.00  0.00    -0.155 C  
HETATM   27  C   UNL     1     -12.361  14.151  69.970  1.00  0.00    -0.403 C  
ENDBRANCH  21  22
ENDBRANCH  18  21
ENDBRANCH  17  18
ENDBRANCH  16  17
ENDBRANCH  13  16
BRANCH  15  28
HETATM   28  C   UNL     1      -8.400   9.430  65.626  1.00  0.00    -0.124 C  
HETATM   29  O   UNL     1      -8.681   8.630  64.732  1.00  0.00    -0.159 OA 
HETATM   30  C   UNL     1      -7.120  10.219  65.546  1.00  0.00    -0.142 C  
ENDBRANCH  15  28
ENDBRANCH   8  10
ENDBRANCH   6   8
ENDBRANCH   3   6
ENDBRANCH   2   3
TORSDOF 11
ENDMDL
MODEL      213
REMARK 921   NORMALIZED FREE ENERGY PREDICTED BY IDOCK:   -3.94 KCAL/MOL
REMARK 922        TOTAL FREE ENERGY PREDICTED BY IDOCK:   -7.61 KCAL/MOL
REMARK 923 INTER-LIGAND FREE ENERGY PREDICTED BY IDOCK:   -6.66 KCAL/MOL
REMARK 924 INTRA-LIGAND FREE ENERGY PREDICTED BY IDOCK:   -0.94 KCAL/MOL
REMARK 927      BINDING AFFINITY PREDICTED BY RF-SCORE:    0.00 PKD
ROOT
HETATM    1  C   UNL     1      -9.328  17.443  68.928  1.00  0.00    -0.183 C  
HETATM    2  C   UNL     1      -9.506  15.996  69.364  1.00  0.00    -0.226 C  
ENDROOT
BRANCH   2   3
HETATM    3  N   UNL     1     -10.913  15.590  69.458  1.00  0.00    -0.251 N  
BRANCH   3   4
HETATM    4  C   UNL     1     -11.681  16.042  70.623  1.00  0.00    -0.350 C  
HETATM    5  C   UNL     1     -11.630  15.097  71.809  1.00  0.00    -0.478 C  
ENDBRANCH   3   4
BRANCH   3   6
HETATM    6  C   UNL     1     -11.469  14.980  68.334  1.00  0.00    -0.323 C  
HETATM    7  O   UNL     1     -11.254  15.395  67.196  1.00  0.00    -0.326 OA 
BRANCH   6   8
HETATM    8  N   UNL     1     -12.237  13.862  68.603  1.00  0.00    -0.487 N  
HETATM    9  H   UNL     1     -13.149  13.983  69.044  1.00  0.00     0.000 HD 
BRANCH   8  10
HETATM   10  C   UNL     1     -11.799  12.564  68.286  1.00  0.00    -0.309 A  
HETATM   11  C   UNL     1     -11.373  12.220  67.005  1.00  0.00    -0.395 A  
HETATM   12  C   UNL     1     -10.883  10.937  66.746  1.00  0.00    -0.283 A  
HETATM   13  C   UNL     1     -10.788   9.981  67.766  1.00  0.00    -0.282 A  
HETATM   14  C   UNL     1     -11.779  11.599  69.292  1.00  0.00    -0.396 A  
HETATM   15  C   UNL     1     -11.251  10.318  69.050  1.00  0.00    -0.260 A  
BRANCH  13  16
HETATM   16  O   UNL     1     -10.222   8.746  67.589  1.00  0.00    -0.208 OA 
BRANCH  16  17
HETATM   17  C   UNL     1      -8.798   8.642  67.745  1.00  0.00    -0.136 C  
BRANCH  17  18
HETATM   18  C   UNL     1      -8.430   7.179  68.026  1.00  0.00    -0.122 C  
HETATM   19  H   UNL     1      -9.329   5.611  68.795  1.00  0.00     0.000 HD 
HETATM   20  O   UNL     1      -9.556   6.518  68.621  1.00  0.00    -0.126 OA 
BRANCH  18  21
HETATM   21  C   UNL     1      -8.014   6.395  66.766  1.00  0.00    -0.109 C  
BRANCH  21  22
HETATM   22  N   UNL     1      -9.152   5.934  65.961  1.00  0.00    -0.167 NA 
HETATM   23  C   UNL     1      -9.024   4.563  65.422  1.00  0.00    -0.141 C  
HETATM   24  H   UNL     1      -9.337   6.593  65.204  1.00  0.00     0.000 HD 
HETATM   25  C   UNL     1     -10.265   4.309  64.545  1.00  0.00    -0.103 C  
HETATM   26  C   UNL     1      -9.015   3.510  66.544  1.00  0.00    -0.154 C  
HETATM   27  C   UNL     1      -7.772   4.410  64.544  1.00  0.00    -0.081 C  
ENDBRANCH  21  22
ENDBRANCH  18  21
ENDBRANCH  17  18
ENDBRANCH  16  17
ENDBRANCH  13  16
BRANCH  15  28
HETATM   28  C   UNL     1     -11.157   9.447  70.262  1.00  0.00    -0.257 C  
HETATM   29  O   UNL     1     -12.143   8.795  70.609  1.00  0.00    -0.155 OA 
HETATM   30  C   UNL     1      -9.867   9.314  71.026  1.00  0.00    -0.355 C  
ENDBRANCH  15  28
ENDBRANCH   8  10
ENDBRANCH   6   8
ENDBRANCH   3   6
ENDBRANCH   2   3
TORSDOF 11
ENDMDL
MODEL      214
REMARK 921   NORMALIZED FREE ENERGY PREDICTED BY IDOCK:   -3.93 KCAL/MOL
REMARK 922        TOTAL FREE ENERGY PREDICTED BY IDOCK:   -7.59 KCAL/MOL
REMARK 923 INTER-LIGAND FREE ENERGY PREDICTED BY IDOCK:   -6.88 KCAL/MOL
REMARK 924 INTRA-LIGAND FREE ENERGY PREDICTED BY IDOCK:   -0.72 KCAL/MOL
REMARK 927      BINDING AFFINITY PREDICTED BY RF-SCORE:    0.00 PKD
ROOT
HETATM    1  C   UNL     1     -12.650  15.369  70.302  1.00  0.00    -0.377 C  
HETATM    2  C   UNL     1     -11.168  15.066  70.130  1.00  0.00    -0.260 C  
ENDROOT
BRANCH   2   3
HETATM    3  N   UNL     1     -10.754  14.994  68.725  1.00  0.00    -0.234 N  
BRANCH   3   4
HETATM    4  C   UNL     1     -11.067  16.135  67.858  1.00  0.00    -0.293 C  
HETATM    5  C   UNL     1      -9.853  16.919  67.396  1.00  0.00    -0.261 C  
ENDBRANCH   3   4
BRANCH   3   6
HETATM    6  C   UNL     1      -9.914  13.939  68.369  1.00  0.00    -0.233 C  
HETATM    7  O   UNL     1      -8.689  14.027  68.451  1.00  0.00    -0.176 OA 
BRANCH   6   8
HETATM    8  N   UNL     1     -10.567  12.790  67.962  1.00  0.00    -0.220 N  
HETATM    9  H   UNL     1     -10.957  12.751  67.020  1.00  0.00     0.000 HD 
BRANCH   8  10
HETATM   10  C   UNL     1     -10.711  11.675  68.807  1.00  0.00    -0.219 A  
HETATM   11  C   UNL     1      -9.825  10.601  68.770  1.00  0.00    -0.196 A  
HETATM   12  C   UNL     1      -9.963   9.542  69.671  1.00  0.00    -0.220 A  
HETATM   13  C   UNL     1     -10.974   9.547  70.642  1.00  0.00    -0.306 A  
HETATM   14  C   UNL     1     -11.765  11.658  69.720  1.00  0.00    -0.425 A  
HETATM   15  C   UNL     1     -11.888  10.615  70.656  1.00  0.00    -0.463 A  
BRANCH  13  16
HETATM   16  O   UNL     1     -11.089   8.587  71.611  1.00  0.00    -0.253 OA 
BRANCH  16  17
HETATM   17  C   UNL     1     -10.416   7.337  71.390  1.00  0.00    -0.203 C  
BRANCH  17  18
HETATM   18  C   UNL     1      -9.098   7.333  72.176  1.00  0.00    -0.132 C  
HETATM   19  H   UNL     1      -8.428   8.151  73.831  1.00  0.00     0.000 HD 
HETATM   20  O   UNL     1      -9.244   8.154  73.344  1.00  0.00    -0.265 OA 
BRANCH  18  21
HETATM   21  C   UNL     1      -8.650   5.927  72.621  1.00  0.00    -0.119 C  
BRANCH  21  22
HETATM   22  N   UNL     1      -9.748   5.097  73.132  1.00  0.00    -0.147 NA 
HETATM   23  C   UNL     1      -9.624   3.651  72.852  1.00  0.00    -0.126 C  
HETATM   24  H   UNL     1     -10.643   5.446  72.787  1.00  0.00     0.000 HD 
HETATM   25  C   UNL     1     -10.904   2.980  73.386  1.00  0.00    -0.307 C  
HETATM   26  C   UNL     1      -8.423   3.031  73.587  1.00  0.00    -0.073 C  
HETATM   27  C   UNL     1      -9.523   3.369  71.344  1.00  0.00    -0.224 C  
ENDBRANCH  21  22
ENDBRANCH  18  21
ENDBRANCH  17  18
ENDBRANCH  16  17
ENDBRANCH  13  16
BRANCH  15  28
HETATM   28  C   UNL     1     -12.974  10.813  71.664  1.00  0.00    -0.476 C  
HETATM   29  O   UNL     1     -13.648   9.843  72.017  1.00  0.00    -0.384 OA 
HETATM   30  C   UNL     1     -13.219  12.159  72.291  1.00  0.00    -0.286 C  
ENDBRANCH  15  28
ENDBRANCH   8  10
ENDBRANCH   6   8
ENDBRANCH   3   6
ENDBRANCH   2   3
TORSDOF 11
ENDMDL
MODEL      215
REMARK 921   NORMALIZED FREE ENERGY PREDICTED BY IDOCK:   -3.91 KCAL/MOL
REMARK 922        TOTAL FREE ENERGY PREDICTED BY IDOCK:   -7.56 KCAL/MOL
REMARK 923 INTER-LIGAND FREE ENERGY PREDICTED BY IDOCK:   -6.32 KCAL/MOL
REMARK 924 INTRA-LIGAND FREE ENERGY PREDICTED BY IDOCK:   -1.23 KCAL/MOL
REMARK 927      BINDING AFFINITY PREDICTED BY RF-SCORE:    0.00 PKD
ROOT
HETATM    1  C   UNL     1      -8.580   8.530  71.507  1.00  0.00    -0.236 C  
HETATM    2  C   UNL     1      -9.866   8.397  70.703  1.00  0.00    -0.181 C  
ENDROOT
BRANCH   2   3
HETATM    3  N   UNL     1      -9.686   7.667  69.444  1.00  0.00    -0.163 N  
BRANCH   3   4
HETATM    4  C   UNL     1     -10.158   6.279  69.382  1.00  0.00    -0.176 C  
HETATM    5  C   UNL     1     -10.790   5.892  68.058  1.00  0.00    -0.321 C  
ENDBRANCH   3   4
BRANCH   3   6
HETATM    6  C   UNL     1      -9.270   8.408  68.339  1.00  0.00    -0.135 C  
HETATM    7  O   UNL     1      -8.091   8.448  67.990  1.00  0.00    -0.120 OA 
BRANCH   6   8
HETATM    8  N   UNL     1     -10.286   9.051  67.656  1.00  0.00    -0.226 N  
HETATM    9  H   UNL     1     -11.130   8.530  67.422  1.00  0.00     0.000 HD 
BRANCH   8  10
HETATM   10  C   UNL     1     -10.189  10.402  67.275  1.00  0.00    -0.211 A  
HETATM   11  C   UNL     1      -9.725  11.384  68.148  1.00  0.00    -0.194 A  
HETATM   12  C   UNL     1      -9.582  12.704  67.711  1.00  0.00    -0.197 A  
HETATM   13  C   UNL     1      -9.877  13.063  66.388  1.00  0.00    -0.270 A  
HETATM   14  C   UNL     1     -10.555  10.760  65.978  1.00  0.00    -0.224 A  
HETATM   15  C   UNL     1     -10.377  12.077  65.519  1.00  0.00    -0.298 A  
BRANCH  13  16
HETATM   16  O   UNL     1      -9.657  14.316  65.883  1.00  0.00    -0.274 OA 
BRANCH  16  17
HETATM   17  C   UNL     1     -10.190  15.430  66.617  1.00  0.00    -0.277 C  
BRANCH  17  18
HETATM   18  C   UNL     1      -9.219  16.613  66.509  1.00  0.00    -0.270 C  
HETATM   19  H   UNL     1      -9.345  18.570  66.631  1.00  0.00     0.000 HD 
HETATM   20  O   UNL     1      -9.946  17.837  66.698  1.00  0.00    -0.306 OA 
BRANCH  18  21
HETATM   21  C   UNL     1      -8.072  16.565  67.537  1.00  0.00    -0.154 C  
BRANCH  21  22
HETATM   22  N   UNL     1      -7.296  15.320  67.491  1.00  0.00    -0.179 NA 
HETATM   23  C   UNL     1      -6.101  15.294  68.361  1.00  0.00    -0.105 C  
HETATM   24  H   UNL     1      -7.035  15.103  66.529  1.00  0.00     0.000 HD 
HETATM   25  C   UNL     1      -5.387  13.953  68.101  1.00  0.00    -0.119 C  
HETATM   26  C   UNL     1      -6.480  15.346  69.851  1.00  0.00    -0.155 C  
HETATM   27  C   UNL     1      -5.125  16.433  68.024  1.00  0.00    -0.116 C  
ENDBRANCH  21  22
ENDBRANCH  18  21
ENDBRANCH  17  18
ENDBRANCH  16  17
ENDBRANCH  13  16
BRANCH  15  28
HETATM   28  C   UNL     1     -10.671  12.272  64.066  1.00  0.00    -0.396 C  
HETATM   29  O   UNL     1      -9.835  11.918  63.232  1.00  0.00    -0.407 OA 
HETATM   30  C   UNL     1     -11.988  12.838  63.608  1.00  0.00    -0.616 C  
ENDBRANCH  15  28
ENDBRANCH   8  10
ENDBRANCH   6   8
ENDBRANCH   3   6
ENDBRANCH   2   3
TORSDOF 11
ENDMDL
MODEL      216
REMARK 921   NORMALIZED FREE ENERGY PREDICTED BY IDOCK:   -3.90 KCAL/MOL
REMARK 922        TOTAL FREE ENERGY PREDICTED BY IDOCK:   -7.54 KCAL/MOL
REMARK 923 INTER-LIGAND FREE ENERGY PREDICTED BY IDOCK:   -6.26 KCAL/MOL
REMARK 924 INTRA-LIGAND FREE ENERGY PREDICTED BY IDOCK:   -1.28 KCAL/MOL
REMARK 927      BINDING AFFINITY PREDICTED BY RF-SCORE:    0.00 PKD
ROOT
HETATM    1  C   UNL     1      -6.202  14.604  68.947  1.00  0.00    -0.087 C  
HETATM    2  C   UNL     1      -7.304  15.614  69.236  1.00  0.00    -0.207 C  
ENDROOT
BRANCH   2   3
HETATM    3  N   UNL     1      -8.139  15.907  68.067  1.00  0.00    -0.139 N  
BRANCH   3   4
HETATM    4  C   UNL     1      -7.485  15.973  66.755  1.00  0.00    -0.183 C  
HETATM    5  C   UNL     1      -7.153  17.379  66.293  1.00  0.00    -0.330 C  
ENDBRANCH   3   4
BRANCH   3   6
HETATM    6  C   UNL     1      -9.521  15.897  68.260  1.00  0.00    -0.201 C  
HETATM    7  O   UNL     1     -10.217  16.883  68.025  1.00  0.00    -0.282 OA 
BRANCH   6   8
HETATM    8  N   UNL     1     -10.036  14.688  68.692  1.00  0.00    -0.232 N  
HETATM    9  H   UNL     1     -10.516  14.649  69.591  1.00  0.00     0.000 HD 
BRANCH   8  10
HETATM   10  C   UNL     1      -9.919  13.513  67.928  1.00  0.00    -0.245 A  
HETATM   11  C   UNL     1      -9.458  12.318  68.477  1.00  0.00    -0.115 A  
HETATM   12  C   UNL     1      -9.419  11.156  67.702  1.00  0.00    -0.173 A  
HETATM   13  C   UNL     1      -9.860  11.159  66.372  1.00  0.00    -0.211 A  
HETATM   14  C   UNL     1     -10.293  13.546  66.585  1.00  0.00    -0.271 A  
HETATM   15  C   UNL     1     -10.293  12.373  65.809  1.00  0.00    -0.289 A  
BRANCH  13  16
HETATM   16  O   UNL     1      -9.938  10.029  65.603  1.00  0.00    -0.272 OA 
BRANCH  16  17
HETATM   17  C   UNL     1      -8.827   9.120  65.647  1.00  0.00    -0.185 C  
BRANCH  17  18
HETATM   18  C   UNL     1      -9.339   7.719  66.006  1.00  0.00    -0.037 C  
HETATM   19  H   UNL     1      -8.538   6.006  66.539  1.00  0.00     0.000 HD 
HETATM   20  O   UNL     1      -8.220   6.874  66.316  1.00  0.00    -0.107 OA 
BRANCH  18  21
HETATM   21  C   UNL     1     -10.307   7.705  67.204  1.00  0.00    -0.315 C  
BRANCH  21  22
HETATM   22  N   UNL     1     -10.373   6.408  67.889  1.00  0.00    -0.167 NA 
HETATM   23  C   UNL     1     -10.112   6.453  69.344  1.00  0.00    -0.173 C  
HETATM   24  H   UNL     1      -9.746   5.741  67.440  1.00  0.00     0.000 HD 
HETATM   25  C   UNL     1     -10.141   4.998  69.849  1.00  0.00    -0.344 C  
HETATM   26  C   UNL     1     -11.205   7.236  70.094  1.00  0.00    -0.264 C  
HETATM   27  C   UNL     1      -8.729   7.046  69.657  1.00  0.00    -0.141 C  
ENDBRANCH  21  22
ENDBRANCH  18  21
ENDBRANCH  17  18
ENDBRANCH  16  17
ENDBRANCH  13  16
BRANCH  15  28
HETATM   28  C   UNL     1     -10.862  12.539  64.436  1.00  0.00    -0.342 C  
HETATM   29  O   UNL     1     -10.095  12.697  63.485  1.00  0.00    -0.392 OA 
HETATM   30  C   UNL     1     -12.346  12.459  64.194  1.00  0.00    -0.558 C  
ENDBRANCH  15  28
ENDBRANCH   8  10
ENDBRANCH   6   8
ENDBRANCH   3   6
ENDBRANCH   2   3
TORSDOF 11
ENDMDL
MODEL      217
REMARK 921   NORMALIZED FREE ENERGY PREDICTED BY IDOCK:   -3.90 KCAL/MOL
REMARK 922        TOTAL FREE ENERGY PREDICTED BY IDOCK:   -7.54 KCAL/MOL
REMARK 923 INTER-LIGAND FREE ENERGY PREDICTED BY IDOCK:   -5.98 KCAL/MOL
REMARK 924 INTRA-LIGAND FREE ENERGY PREDICTED BY IDOCK:   -1.56 KCAL/MOL
REMARK 927      BINDING AFFINITY PREDICTED BY RF-SCORE:    0.00 PKD
ROOT
HETATM    1  C   UNL     1     -11.424  15.568  68.283  1.00  0.00    -0.359 C  
HETATM    2  C   UNL     1     -10.954  14.853  69.542  1.00  0.00    -0.273 C  
ENDROOT
BRANCH   2   3
HETATM    3  N   UNL     1     -11.685  13.609  69.805  1.00  0.00    -0.299 N  
BRANCH   3   4
HETATM    4  C   UNL     1     -12.760  13.643  70.803  1.00  0.00    -0.268 C  
HETATM    5  C   UNL     1     -12.952  12.342  71.559  1.00  0.00    -0.390 C  
ENDBRANCH   3   4
BRANCH   3   6
HETATM    6  C   UNL     1     -11.443  12.540  68.943  1.00  0.00    -0.307 C  
HETATM    7  O   UNL     1     -12.250  12.208  68.076  1.00  0.00    -0.419 OA 
BRANCH   6   8
HETATM    8  N   UNL     1     -10.217  11.923  69.116  1.00  0.00    -0.417 N  
HETATM    9  H   UNL     1      -9.377  12.498  69.164  1.00  0.00     0.000 HD 
BRANCH   8  10
HETATM   10  C   UNL     1     -10.096  10.526  69.228  1.00  0.00    -0.224 A  
HETATM   11  C   UNL     1      -9.627   9.738  68.179  1.00  0.00    -0.158 A  
HETATM   12  C   UNL     1      -9.459   8.362  68.351  1.00  0.00    -0.145 A  
HETATM   13  C   UNL     1      -9.734   7.749  69.581  1.00  0.00    -0.172 A  
HETATM   14  C   UNL     1     -10.443   9.918  70.434  1.00  0.00    -0.347 A  
HETATM   15  C   UNL     1     -10.240   8.540  70.629  1.00  0.00    -0.230 A  
BRANCH  13  16
HETATM   16  O   UNL     1      -9.490   6.426  69.834  1.00  0.00    -0.153 OA 
BRANCH  16  17
HETATM   17  C   UNL     1     -10.508   5.482  69.463  1.00  0.00    -0.297 C  
BRANCH  17  18
HETATM   18  C   UNL     1     -10.007   4.643  68.279  1.00  0.00    -0.062 C  
HETATM   19  H   UNL     1     -10.178   4.702  66.323  1.00  0.00     0.000 HD 
HETATM   20  O   UNL     1     -10.488   5.221  67.056  1.00  0.00    -0.237 OA 
BRANCH  18  21
HETATM   21  C   UNL     1      -8.471   4.545  68.200  1.00  0.00    -0.094 C  
BRANCH  21  22
HETATM   22  N   UNL     1      -7.883   5.394  67.158  1.00  0.00    -0.100 NA 
HETATM   23  C   UNL     1      -7.002   4.692  66.200  1.00  0.00    -0.066 C  
HETATM   24  H   UNL     1      -7.386   6.179  67.582  1.00  0.00     0.000 HD 
HETATM   25  C   UNL     1      -6.424   5.764  65.255  1.00  0.00    -0.042 C  
HETATM   26  C   UNL     1      -7.784   3.681  65.345  1.00  0.00    -0.085 C  
HETATM   27  C   UNL     1      -5.832   3.991  66.909  1.00  0.00    -0.023 C  
ENDBRANCH  21  22
ENDBRANCH  18  21
ENDBRANCH  17  18
ENDBRANCH  16  17
ENDBRANCH  13  16
BRANCH  15  28
HETATM   28  C   UNL     1     -10.517   8.063  72.019  1.00  0.00    -0.246 C  
HETATM   29  O   UNL     1      -9.626   8.139  72.867  1.00  0.00    -0.257 OA 
HETATM   30  C   UNL     1     -11.877   7.549  72.409  1.00  0.00    -0.305 C  
ENDBRANCH  15  28
ENDBRANCH   8  10
ENDBRANCH   6   8
ENDBRANCH   3   6
ENDBRANCH   2   3
TORSDOF 11
ENDMDL
MODEL      218
REMARK 921   NORMALIZED FREE ENERGY PREDICTED BY IDOCK:   -3.90 KCAL/MOL
REMARK 922        TOTAL FREE ENERGY PREDICTED BY IDOCK:   -7.54 KCAL/MOL
REMARK 923 INTER-LIGAND FREE ENERGY PREDICTED BY IDOCK:   -6.34 KCAL/MOL
REMARK 924 INTRA-LIGAND FREE ENERGY PREDICTED BY IDOCK:   -1.20 KCAL/MOL
REMARK 927      BINDING AFFINITY PREDICTED BY RF-SCORE:    0.00 PKD
ROOT
HETATM    1  C   UNL     1     -11.818  14.837  68.265  1.00  0.00    -0.316 C  
HETATM    2  C   UNL     1     -11.912  13.496  67.551  1.00  0.00    -0.346 C  
ENDROOT
BRANCH   2   3
HETATM    3  N   UNL     1     -11.518  13.565  66.140  1.00  0.00    -0.317 N  
BRANCH   3   4
HETATM    4  C   UNL     1     -12.580  13.694  65.136  1.00  0.00    -0.430 C  
HETATM    5  C   UNL     1     -12.220  13.137  63.772  1.00  0.00    -0.528 C  
ENDBRANCH   3   4
BRANCH   3   6
HETATM    6  C   UNL     1     -10.157  13.711  65.872  1.00  0.00    -0.310 C  
HETATM    7  O   UNL     1      -9.582  14.792  65.995  1.00  0.00    -0.299 OA 
BRANCH   6   8
HETATM    8  N   UNL     1      -9.511  12.545  65.502  1.00  0.00    -0.447 N  
HETATM    9  H   UNL     1      -9.290  12.394  64.519  1.00  0.00     0.000 HD 
BRANCH   8  10
HETATM   10  C   UNL     1      -9.152  11.562  66.442  1.00  0.00    -0.200 A  
HETATM   11  C   UNL     1      -8.675  11.891  67.709  1.00  0.00    -0.158 A  
HETATM   12  C   UNL     1      -8.390  10.886  68.637  1.00  0.00    -0.148 A  
HETATM   13  C   UNL     1      -8.599   9.535  68.326  1.00  0.00    -0.120 A  
HETATM   14  C   UNL     1      -9.295  10.219  66.095  1.00  0.00    -0.211 A  
HETATM   15  C   UNL     1      -9.049   9.203  67.035  1.00  0.00    -0.147 A  
BRANCH  13  16
HETATM   16  O   UNL     1      -8.435   8.521  69.231  1.00  0.00    -0.124 OA 
BRANCH  16  17
HETATM   17  C   UNL     1      -7.231   8.522  70.016  1.00  0.00    -0.051 C  
BRANCH  17  18
HETATM   18  C   UNL     1      -7.565   8.075  71.446  1.00  0.00    -0.080 C  
HETATM   19  H   UNL     1      -8.707   8.722  72.906  1.00  0.00     0.000 HD 
HETATM   20  O   UNL     1      -8.500   8.999  72.021  1.00  0.00    -0.368 OA 
BRANCH  18  21
HETATM   21  C   UNL     1      -8.168   6.659  71.524  1.00  0.00    -0.112 C  
BRANCH  21  22
HETATM   22  N   UNL     1      -8.060   5.906  70.268  1.00  0.00    -0.105 NA 
HETATM   23  C   UNL     1      -9.044   4.816  70.105  1.00  0.00    -0.104 C  
HETATM   24  H   UNL     1      -7.112   5.545  70.155  1.00  0.00     0.000 HD 
HETATM   25  C   UNL     1      -8.707   4.103  68.780  1.00  0.00    -0.128 C  
HETATM   26  C   UNL     1     -10.480   5.357  69.998  1.00  0.00    -0.373 C  
HETATM   27  C   UNL     1      -8.951   3.787  71.244  1.00  0.00    -0.160 C  
ENDBRANCH  21  22
ENDBRANCH  18  21
ENDBRANCH  17  18
ENDBRANCH  16  17
ENDBRANCH  13  16
BRANCH  15  28
HETATM   28  C   UNL     1      -9.391   7.826  66.564  1.00  0.00    -0.189 C  
HETATM   29  O   UNL     1      -8.574   7.207  65.880  1.00  0.00    -0.146 OA 
HETATM   30  C   UNL     1     -10.687   7.169  66.957  1.00  0.00    -0.420 C  
ENDBRANCH  15  28
ENDBRANCH   8  10
ENDBRANCH   6   8
ENDBRANCH   3   6
ENDBRANCH   2   3
TORSDOF 11
ENDMDL
MODEL      219
REMARK 921   NORMALIZED FREE ENERGY PREDICTED BY IDOCK:   -3.89 KCAL/MOL
REMARK 922        TOTAL FREE ENERGY PREDICTED BY IDOCK:   -7.53 KCAL/MOL
REMARK 923 INTER-LIGAND FREE ENERGY PREDICTED BY IDOCK:   -6.05 KCAL/MOL
REMARK 924 INTRA-LIGAND FREE ENERGY PREDICTED BY IDOCK:   -1.48 KCAL/MOL
REMARK 927      BINDING AFFINITY PREDICTED BY RF-SCORE:    0.00 PKD
ROOT
HETATM    1  C   UNL     1     -11.775  13.976  70.011  1.00  0.00    -0.349 C  
HETATM    2  C   UNL     1     -12.631  13.180  70.986  1.00  0.00    -0.312 C  
ENDROOT
BRANCH   2   3
HETATM    3  N   UNL     1     -12.455  11.729  70.858  1.00  0.00    -0.363 N  
BRANCH   3   4
HETATM    4  C   UNL     1     -13.082  10.870  71.868  1.00  0.00    -0.432 C  
HETATM    5  C   UNL     1     -13.424   9.476  71.377  1.00  0.00    -0.405 C  
ENDBRANCH   3   4
BRANCH   3   6
HETATM    6  C   UNL     1     -11.881  11.267  69.674  1.00  0.00    -0.360 C  
HETATM    7  O   UNL     1     -12.521  11.195  68.626  1.00  0.00    -0.463 OA 
BRANCH   6   8
HETATM    8  N   UNL     1     -10.540  10.940  69.770  1.00  0.00    -0.444 N  
HETATM    9  H   UNL     1      -9.844  11.679  69.679  1.00  0.00     0.000 HD 
BRANCH   8  10
HETATM   10  C   UNL     1     -10.109   9.619  69.988  1.00  0.00    -0.252 A  
HETATM   11  C   UNL     1      -9.684   9.177  71.239  1.00  0.00    -0.351 A  
HETATM   12  C   UNL     1      -9.326   7.840  71.430  1.00  0.00    -0.165 A  
HETATM   13  C   UNL     1      -9.408   6.914  70.382  1.00  0.00    -0.159 A  
HETATM   14  C   UNL     1     -10.125   8.723  68.919  1.00  0.00    -0.210 A  
HETATM   15  C   UNL     1      -9.804   7.368  69.111  1.00  0.00    -0.168 A  
BRANCH  13  16
HETATM   16  O   UNL     1      -9.167   5.575  70.541  1.00  0.00    -0.143 OA 
BRANCH  16  17
HETATM   17  C   UNL     1     -10.043   4.844  71.415  1.00  0.00    -0.198 C  
BRANCH  17  18
HETATM   18  C   UNL     1      -9.377   3.515  71.796  1.00  0.00    -0.131 C  
HETATM   19  H   UNL     1      -9.982   1.715  72.297  1.00  0.00     0.000 HD 
HETATM   20  O   UNL     1     -10.394   2.538  72.061  1.00  0.00    -0.119 OA 
BRANCH  18  21
HETATM   21  C   UNL     1      -8.441   2.960  70.704  1.00  0.00    -0.057 C  
BRANCH  21  22
HETATM   22  N   UNL     1      -9.060   2.905  69.374  1.00  0.00    -0.119 NA 
HETATM   23  C   UNL     1      -8.110   2.848  68.243  1.00  0.00    -0.061 C  
HETATM   24  H   UNL     1      -9.704   3.687  69.253  1.00  0.00     0.000 HD 
HETATM   25  C   UNL     1      -8.950   2.886  66.951  1.00  0.00    -0.176 C  
HETATM   26  C   UNL     1      -7.303   1.538  68.244  1.00  0.00    -0.043 C  
HETATM   27  C   UNL     1      -7.158   4.055  68.235  1.00  0.00    -0.055 C  
ENDBRANCH  21  22
ENDBRANCH  18  21
ENDBRANCH  17  18
ENDBRANCH  16  17
ENDBRANCH  13  16
BRANCH  15  28
HETATM   28  C   UNL     1     -10.014   6.505  67.909  1.00  0.00    -0.131 C  
HETATM   29  O   UNL     1     -10.976   5.736  67.882  1.00  0.00    -0.232 OA 
HETATM   30  C   UNL     1      -9.103   6.602  66.714  1.00  0.00    -0.154 C  
ENDBRANCH  15  28
ENDBRANCH   8  10
ENDBRANCH   6   8
ENDBRANCH   3   6
ENDBRANCH   2   3
TORSDOF 11
ENDMDL
MODEL      220
REMARK 921   NORMALIZED FREE ENERGY PREDICTED BY IDOCK:   -3.88 KCAL/MOL
REMARK 922        TOTAL FREE ENERGY PREDICTED BY IDOCK:   -7.51 KCAL/MOL
REMARK 923 INTER-LIGAND FREE ENERGY PREDICTED BY IDOCK:   -6.37 KCAL/MOL
REMARK 924 INTRA-LIGAND FREE ENERGY PREDICTED BY IDOCK:   -1.14 KCAL/MOL
REMARK 927      BINDING AFFINITY PREDICTED BY RF-SCORE:    0.00 PKD
ROOT
HETATM    1  C   UNL     1     -10.619  16.412  65.454  1.00  0.00    -0.338 C  
HETATM    2  C   UNL     1     -10.999  15.471  66.589  1.00  0.00    -0.248 C  
ENDROOT
BRANCH   2   3
HETATM    3  N   UNL     1      -9.886  15.188  67.501  1.00  0.00    -0.219 N  
BRANCH   3   4
HETATM    4  C   UNL     1     -10.012  15.628  68.895  1.00  0.00    -0.215 C  
HETATM    5  C   UNL     1     -11.271  15.144  69.591  1.00  0.00    -0.288 C  
ENDBRANCH   3   4
BRANCH   3   6
HETATM    6  C   UNL     1      -8.882  14.344  67.028  1.00  0.00    -0.237 C  
HETATM    7  O   UNL     1      -7.695  14.666  67.055  1.00  0.00    -0.146 OA 
BRANCH   6   8
HETATM    8  N   UNL     1      -9.325  13.116  66.572  1.00  0.00    -0.347 N  
HETATM    9  H   UNL     1      -9.272  12.910  65.575  1.00  0.00     0.000 HD 
BRANCH   8  10
HETATM   10  C   UNL     1      -9.847  12.142  67.442  1.00  0.00    -0.189 A  
HETATM   11  C   UNL     1     -11.209  11.859  67.503  1.00  0.00    -0.359 A  
HETATM   12  C   UNL     1     -11.681  10.839  68.334  1.00  0.00    -0.232 A  
HETATM   13  C   UNL     1     -10.799  10.066  69.101  1.00  0.00    -0.222 A  
HETATM   14  C   UNL     1      -8.966  11.429  68.256  1.00  0.00    -0.175 A  
HETATM   15  C   UNL     1      -9.427  10.375  69.064  1.00  0.00    -0.205 A  
BRANCH  13  16
HETATM   16  O   UNL     1     -11.197   8.991  69.850  1.00  0.00    -0.195 OA 
BRANCH  16  17
HETATM   17  C   UNL     1     -12.069   9.246  70.963  1.00  0.00    -0.280 C  
BRANCH  17  18
HETATM   18  C   UNL     1     -12.034   8.041  71.913  1.00  0.00    -0.314 C  
HETATM   19  H   UNL     1     -13.181   6.490  72.281  1.00  0.00     0.000 HD 
HETATM   20  O   UNL     1     -13.203   7.236  71.693  1.00  0.00    -0.367 OA 
BRANCH  18  21
HETATM   21  C   UNL     1     -10.789   7.151  71.735  1.00  0.00    -0.225 C  
BRANCH  21  22
HETATM   22  N   UNL     1     -10.917   5.831  72.363  1.00  0.00    -0.245 NA 
HETATM   23  C   UNL     1      -9.813   5.459  73.272  1.00  0.00    -0.162 C  
HETATM   24  H   UNL     1     -11.042   5.113  71.649  1.00  0.00     0.000 HD 
HETATM   25  C   UNL     1     -10.091   4.021  73.751  1.00  0.00    -0.185 C  
HETATM   26  C   UNL     1      -9.766   6.369  74.512  1.00  0.00    -0.329 C  
HETATM   27  C   UNL     1      -8.453   5.474  72.554  1.00  0.00    -0.118 C  
ENDBRANCH  21  22
ENDBRANCH  18  21
ENDBRANCH  17  18
ENDBRANCH  16  17
ENDBRANCH  13  16
BRANCH  15  28
HETATM   28  C   UNL     1      -8.348   9.610  69.760  1.00  0.00    -0.174 C  
HETATM   29  O   UNL     1      -8.472   9.353  70.959  1.00  0.00    -0.285 OA 
HETATM   30  C   UNL     1      -7.145   9.103  69.009  1.00  0.00    -0.067 C  
ENDBRANCH  15  28
ENDBRANCH   8  10
ENDBRANCH   6   8
ENDBRANCH   3   6
ENDBRANCH   2   3
TORSDOF 11
ENDMDL
MODEL      221
REMARK 921   NORMALIZED FREE ENERGY PREDICTED BY IDOCK:   -3.88 KCAL/MOL
REMARK 922        TOTAL FREE ENERGY PREDICTED BY IDOCK:   -7.51 KCAL/MOL
REMARK 923 INTER-LIGAND FREE ENERGY PREDICTED BY IDOCK:   -6.47 KCAL/MOL
REMARK 924 INTRA-LIGAND FREE ENERGY PREDICTED BY IDOCK:   -1.03 KCAL/MOL
REMARK 927      BINDING AFFINITY PREDICTED BY RF-SCORE:    0.00 PKD
ROOT
HETATM    1  C   UNL     1      -8.625   4.034  68.507  1.00  0.00    -0.115 C  
HETATM    2  C   UNL     1      -9.254   4.243  67.137  1.00  0.00    -0.150 C  
ENDROOT
BRANCH   2   3
HETATM    3  N   UNL     1      -8.440   5.081  66.250  1.00  0.00    -0.112 N  
BRANCH   3   4
HETATM    4  C   UNL     1      -7.806   4.440  65.093  1.00  0.00    -0.086 C  
HETATM    5  C   UNL     1      -6.685   3.480  65.447  1.00  0.00    -0.041 C  
ENDBRANCH   3   4
BRANCH   3   6
HETATM    6  C   UNL     1      -8.497   6.459  66.457  1.00  0.00    -0.118 C  
HETATM    7  O   UNL     1      -7.487   7.127  66.671  1.00  0.00    -0.084 OA 
BRANCH   6   8
HETATM    8  N   UNL     1      -9.764   7.007  66.360  1.00  0.00    -0.376 N  
HETATM    9  H   UNL     1     -10.472   6.520  65.811  1.00  0.00     0.000 HD 
BRANCH   8  10
HETATM   10  C   UNL     1     -10.103   8.214  66.996  1.00  0.00    -0.280 A  
HETATM   11  C   UNL     1     -10.349   9.383  66.279  1.00  0.00    -0.211 A  
HETATM   12  C   UNL     1     -10.748  10.546  66.943  1.00  0.00    -0.281 A  
HETATM   13  C   UNL     1     -10.932  10.558  68.332  1.00  0.00    -0.261 A  
HETATM   14  C   UNL     1     -10.212   8.232  68.386  1.00  0.00    -0.242 A  
HETATM   15  C   UNL     1     -10.651   9.387  69.058  1.00  0.00    -0.233 A  
BRANCH  13  16
HETATM   16  O   UNL     1     -11.419  11.639  69.017  1.00  0.00    -0.240 OA 
BRANCH  16  17
HETATM   17  C   UNL     1     -10.866  12.927  68.701  1.00  0.00    -0.258 C  
BRANCH  17  18
HETATM   18  C   UNL     1     -11.960  13.993  68.851  1.00  0.00    -0.352 C  
HETATM   19  H   UNL     1     -12.845  14.920  70.339  1.00  0.00     0.000 HD 
HETATM   20  O   UNL     1     -12.168  14.260  70.246  1.00  0.00    -0.301 OA 
BRANCH  18  21
HETATM   21  C   UNL     1     -11.628  15.321  68.144  1.00  0.00    -0.330 C  
BRANCH  21  22
HETATM   22  N   UNL     1     -10.213  15.452  67.777  1.00  0.00    -0.238 NA 
HETATM   23  C   UNL     1      -9.955  16.201  66.529  1.00  0.00    -0.280 C  
HETATM   24  H   UNL     1      -9.775  14.531  67.731  1.00  0.00     0.000 HD 
HETATM   25  C   UNL     1      -8.435  16.147  66.280  1.00  0.00    -0.357 C  
HETATM   26  C   UNL     1     -10.360  17.680  66.660  1.00  0.00    -0.333 C  
HETATM   27  C   UNL     1     -10.665  15.564  65.324  1.00  0.00    -0.440 C  
ENDBRANCH  21  22
ENDBRANCH  18  21
ENDBRANCH  17  18
ENDBRANCH  16  17
ENDBRANCH  13  16
BRANCH  15  28
HETATM   28  C   UNL     1     -10.862   9.206  70.527  1.00  0.00    -0.255 C  
HETATM   29  O   UNL     1      -9.972   9.549  71.308  1.00  0.00    -0.255 OA 
HETATM   30  C   UNL     1     -12.159   8.666  71.066  1.00  0.00    -0.247 C  
ENDBRANCH  15  28
ENDBRANCH   8  10
ENDBRANCH   6   8
ENDBRANCH   3   6
ENDBRANCH   2   3
TORSDOF 11
ENDMDL
MODEL      222
REMARK 921   NORMALIZED FREE ENERGY PREDICTED BY IDOCK:   -3.87 KCAL/MOL
REMARK 922        TOTAL FREE ENERGY PREDICTED BY IDOCK:   -7.49 KCAL/MOL
REMARK 923 INTER-LIGAND FREE ENERGY PREDICTED BY IDOCK:   -6.76 KCAL/MOL
REMARK 924 INTRA-LIGAND FREE ENERGY PREDICTED BY IDOCK:   -0.74 KCAL/MOL
REMARK 927      BINDING AFFINITY PREDICTED BY RF-SCORE:    0.00 PKD
ROOT
HETATM    1  C   UNL     1     -11.970   6.625  71.184  1.00  0.00    -0.412 C  
HETATM    2  C   UNL     1     -11.557   6.281  69.760  1.00  0.00    -0.260 C  
ENDROOT
BRANCH   2   3
HETATM    3  N   UNL     1     -10.144   6.564  69.485  1.00  0.00    -0.172 N  
BRANCH   3   4
HETATM    4  C   UNL     1      -9.152   5.564  69.893  1.00  0.00    -0.134 C  
HETATM    5  C   UNL     1      -9.638   4.130  69.804  1.00  0.00    -0.281 C  
ENDBRANCH   3   4
BRANCH   3   6
HETATM    6  C   UNL     1      -9.869   7.665  68.674  1.00  0.00    -0.171 C  
HETATM    7  O   UNL     1      -9.217   7.560  67.636  1.00  0.00    -0.128 OA 
BRANCH   6   8
HETATM    8  N   UNL     1     -10.418   8.857  69.109  1.00  0.00    -0.227 N  
HETATM    9  H   UNL     1     -11.063   8.845  69.898  1.00  0.00     0.000 HD 
BRANCH   8  10
HETATM   10  C   UNL     1     -10.115  10.085  68.494  1.00  0.00    -0.169 A  
HETATM   11  C   UNL     1      -9.062  10.888  68.928  1.00  0.00    -0.151 A  
HETATM   12  C   UNL     1      -8.751  12.070  68.250  1.00  0.00    -0.178 A  
HETATM   13  C   UNL     1      -9.470  12.460  67.113  1.00  0.00    -0.198 A  
HETATM   14  C   UNL     1     -10.884  10.500  67.408  1.00  0.00    -0.349 A  
HETATM   15  C   UNL     1     -10.554  11.667  66.696  1.00  0.00    -0.281 A  
BRANCH  13  16
HETATM   16  O   UNL     1      -9.143  13.552  66.354  1.00  0.00    -0.173 OA 
BRANCH  16  17
HETATM   17  C   UNL     1      -9.626  14.832  66.791  1.00  0.00    -0.254 C  
BRANCH  17  18
HETATM   18  C   UNL     1      -8.482  15.594  67.473  1.00  0.00    -0.167 C  
HETATM   19  H   UNL     1      -6.527  15.428  67.575  1.00  0.00     0.000 HD 
HETATM   20  O   UNL     1      -7.236  14.956  67.153  1.00  0.00    -0.165 OA 
BRANCH  18  21
HETATM   21  C   UNL     1      -8.392  17.075  67.055  1.00  0.00    -0.203 C  
BRANCH  21  22
HETATM   22  N   UNL     1      -9.484  17.900  67.583  1.00  0.00    -0.257 NA 
HETATM   23  C   UNL     1      -9.147  19.324  67.798  1.00  0.00    -0.306 C  
HETATM   24  H   UNL     1      -9.849  17.492  68.444  1.00  0.00     0.000 HD 
HETATM   25  C   UNL     1     -10.386  19.986  68.432  1.00  0.00    -0.465 C  
HETATM   26  C   UNL     1      -8.852  20.044  66.471  1.00  0.00    -0.414 C  
HETATM   27  C   UNL     1      -7.963  19.490  68.764  1.00  0.00    -0.362 C  
ENDBRANCH  21  22
ENDBRANCH  18  21
ENDBRANCH  17  18
ENDBRANCH  16  17
ENDBRANCH  13  16
BRANCH  15  28
HETATM   28  C   UNL     1     -11.376  11.897  65.469  1.00  0.00    -0.277 C  
HETATM   29  O   UNL     1     -11.085  11.300  64.431  1.00  0.00    -0.310 OA 
HETATM   30  C   UNL     1     -12.581  12.800  65.497  1.00  0.00    -0.292 C  
ENDBRANCH  15  28
ENDBRANCH   8  10
ENDBRANCH   6   8
ENDBRANCH   3   6
ENDBRANCH   2   3
TORSDOF 11
ENDMDL
MODEL      223
REMARK 921   NORMALIZED FREE ENERGY PREDICTED BY IDOCK:   -3.85 KCAL/MOL
REMARK 922        TOTAL FREE ENERGY PREDICTED BY IDOCK:   -7.45 KCAL/MOL
REMARK 923 INTER-LIGAND FREE ENERGY PREDICTED BY IDOCK:   -6.85 KCAL/MOL
REMARK 924 INTRA-LIGAND FREE ENERGY PREDICTED BY IDOCK:   -0.61 KCAL/MOL
REMARK 927      BINDING AFFINITY PREDICTED BY RF-SCORE:    0.00 PKD
ROOT
HETATM    1  C   UNL     1      -6.975   5.591  66.758  1.00  0.00    -0.065 C  
HETATM    2  C   UNL     1      -7.469   4.238  66.266  1.00  0.00    -0.085 C  
ENDROOT
BRANCH   2   3
HETATM    3  N   UNL     1      -8.911   4.213  65.998  1.00  0.00    -0.121 N  
BRANCH   3   4
HETATM    4  C   UNL     1      -9.348   4.022  64.611  1.00  0.00    -0.161 C  
HETATM    5  C   UNL     1      -8.304   4.387  63.572  1.00  0.00    -0.104 C  
ENDBRANCH   3   4
BRANCH   3   6
HETATM    6  C   UNL     1      -9.757   4.166  67.106  1.00  0.00    -0.186 C  
HETATM    7  O   UNL     1      -9.578   3.371  68.028  1.00  0.00    -0.182 OA 
BRANCH   6   8
HETATM    8  N   UNL     1     -10.775   5.102  67.097  1.00  0.00    -0.222 N  
HETATM    9  H   UNL     1     -11.604   4.925  66.531  1.00  0.00     0.000 HD 
BRANCH   8  10
HETATM   10  C   UNL     1     -10.701   6.290  67.846  1.00  0.00    -0.305 A  
HETATM   11  C   UNL     1     -10.530   7.534  67.243  1.00  0.00    -0.391 A  
HETATM   12  C   UNL     1     -10.527   8.698  68.016  1.00  0.00    -0.254 A  
HETATM   13  C   UNL     1     -10.717   8.643  69.404  1.00  0.00    -0.158 A  
HETATM   14  C   UNL     1     -10.818   6.216  69.234  1.00  0.00    -0.418 A  
HETATM   15  C   UNL     1     -10.855   7.385  70.016  1.00  0.00    -0.266 A  
BRANCH  13  16
HETATM   16  O   UNL     1     -10.825   9.758  70.192  1.00  0.00    -0.247 OA 
BRANCH  16  17
HETATM   17  C   UNL     1     -10.692  11.037  69.553  1.00  0.00    -0.183 C  
BRANCH  17  18
HETATM   18  C   UNL     1     -12.035  11.776  69.626  1.00  0.00    -0.312 C  
HETATM   19  H   UNL     1     -13.587  11.786  70.830  1.00  0.00     0.000 HD 
HETATM   20  O   UNL     1     -12.755  11.328  70.784  1.00  0.00    -0.318 OA 
BRANCH  18  21
HETATM   21  C   UNL     1     -11.891  13.309  69.705  1.00  0.00    -0.327 C  
BRANCH  21  22
HETATM   22  N   UNL     1     -10.582  13.798  69.257  1.00  0.00    -0.440 NA 
HETATM   23  C   UNL     1     -10.628  14.871  68.241  1.00  0.00    -0.240 C  
HETATM   24  H   UNL     1     -10.011  13.021  68.923  1.00  0.00     0.000 HD 
HETATM   25  C   UNL     1      -9.170  15.176  67.846  1.00  0.00    -0.184 C  
HETATM   26  C   UNL     1     -11.246  16.162  68.804  1.00  0.00    -0.365 C  
HETATM   27  C   UNL     1     -11.388  14.429  66.979  1.00  0.00    -0.357 C  
ENDBRANCH  21  22
ENDBRANCH  18  21
ENDBRANCH  17  18
ENDBRANCH  16  17
ENDBRANCH  13  16
BRANCH  15  28
HETATM   28  C   UNL     1     -11.137   7.151  71.465  1.00  0.00    -0.239 C  
HETATM   29  O   UNL     1     -11.699   6.109  71.807  1.00  0.00    -0.300 OA 
HETATM   30  C   UNL     1     -10.696   8.139  72.512  1.00  0.00    -0.419 C  
ENDBRANCH  15  28
ENDBRANCH   8  10
ENDBRANCH   6   8
ENDBRANCH   3   6
ENDBRANCH   2   3
TORSDOF 11
ENDMDL
MODEL      224
REMARK 921   NORMALIZED FREE ENERGY PREDICTED BY IDOCK:   -3.83 KCAL/MOL
REMARK 922        TOTAL FREE ENERGY PREDICTED BY IDOCK:   -7.42 KCAL/MOL
REMARK 923 INTER-LIGAND FREE ENERGY PREDICTED BY IDOCK:   -6.34 KCAL/MOL
REMARK 924 INTRA-LIGAND FREE ENERGY PREDICTED BY IDOCK:   -1.08 KCAL/MOL
REMARK 927      BINDING AFFINITY PREDICTED BY RF-SCORE:    0.00 PKD
ROOT
HETATM    1  C   UNL     1     -12.575  14.551  70.880  1.00  0.00    -0.414 C  
HETATM    2  C   UNL     1     -11.256  15.214  70.506  1.00  0.00    -0.280 C  
ENDROOT
BRANCH   2   3
HETATM    3  N   UNL     1     -11.002  15.218  69.061  1.00  0.00    -0.240 N  
BRANCH   3   4
HETATM    4  C   UNL     1     -11.145  16.489  68.343  1.00  0.00    -0.333 C  
HETATM    5  C   UNL     1     -10.141  17.552  68.749  1.00  0.00    -0.363 C  
ENDBRANCH   3   4
BRANCH   3   6
HETATM    6  C   UNL     1     -10.445  14.062  68.515  1.00  0.00    -0.249 C  
HETATM    7  O   UNL     1      -9.229  13.885  68.471  1.00  0.00    -0.198 OA 
BRANCH   6   8
HETATM    8  N   UNL     1     -11.365  13.128  68.073  1.00  0.00    -0.274 N  
HETATM    9  H   UNL     1     -12.223  13.453  67.628  1.00  0.00     0.000 HD 
BRANCH   8  10
HETATM   10  C   UNL     1     -11.153  11.746  68.220  1.00  0.00    -0.240 A  
HETATM   11  C   UNL     1     -10.821  10.931  67.140  1.00  0.00    -0.337 A  
HETATM   12  C   UNL     1     -10.553   9.574  67.337  1.00  0.00    -0.337 A  
HETATM   13  C   UNL     1     -10.589   9.009  68.619  1.00  0.00    -0.160 A  
HETATM   14  C   UNL     1     -11.263  11.181  69.490  1.00  0.00    -0.341 A  
HETATM   15  C   UNL     1     -10.957   9.825  69.704  1.00  0.00    -0.269 A  
BRANCH  13  16
HETATM   16  O   UNL     1     -10.236   7.712  68.880  1.00  0.00    -0.199 OA 
BRANCH  16  17
HETATM   17  C   UNL     1      -9.719   6.934  67.789  1.00  0.00    -0.129 C  
BRANCH  17  18
HETATM   18  C   UNL     1     -10.460   5.592  67.734  1.00  0.00    -0.211 C  
HETATM   19  H   UNL     1     -11.362   4.523  66.354  1.00  0.00     0.000 HD 
HETATM   20  O   UNL     1     -10.903   5.355  66.389  1.00  0.00    -0.284 OA 
BRANCH  18  21
HETATM   21  C   UNL     1      -9.602   4.394  68.183  1.00  0.00    -0.142 C  
BRANCH  21  22
HETATM   22  N   UNL     1      -8.277   4.778  68.684  1.00  0.00    -0.083 NA 
HETATM   23  C   UNL     1      -7.137   4.117  68.014  1.00  0.00    -0.059 C  
HETATM   24  H   UNL     1      -8.226   4.631  69.693  1.00  0.00     0.000 HD 
HETATM   25  C   UNL     1      -5.859   4.584  68.739  1.00  0.00    -0.025 C  
HETATM   26  C   UNL     1      -7.024   4.536  66.538  1.00  0.00    -0.062 C  
HETATM   27  C   UNL     1      -7.222   2.586  68.123  1.00  0.00    -0.048 C  
ENDBRANCH  21  22
ENDBRANCH  18  21
ENDBRANCH  17  18
ENDBRANCH  16  17
ENDBRANCH  13  16
BRANCH  15  28
HETATM   28  C   UNL     1     -10.975   9.405  71.139  1.00  0.00    -0.360 C  
HETATM   29  O   UNL     1      -9.906   9.249  71.731  1.00  0.00    -0.252 OA 
HETATM   30  C   UNL     1     -12.272   9.225  71.881  1.00  0.00    -0.448 C  
ENDBRANCH  15  28
ENDBRANCH   8  10
ENDBRANCH   6   8
ENDBRANCH   3   6
ENDBRANCH   2   3
TORSDOF 11
ENDMDL
MODEL      225
REMARK 921   NORMALIZED FREE ENERGY PREDICTED BY IDOCK:   -3.82 KCAL/MOL
REMARK 922        TOTAL FREE ENERGY PREDICTED BY IDOCK:   -7.41 KCAL/MOL
REMARK 923 INTER-LIGAND FREE ENERGY PREDICTED BY IDOCK:   -6.74 KCAL/MOL
REMARK 924 INTRA-LIGAND FREE ENERGY PREDICTED BY IDOCK:   -0.68 KCAL/MOL
REMARK 927      BINDING AFFINITY PREDICTED BY RF-SCORE:    0.00 PKD
ROOT
HETATM    1  C   UNL     1      -6.097  14.188  70.115  1.00  0.00    -0.158 C  
HETATM    2  C   UNL     1      -6.771  15.551  70.050  1.00  0.00    -0.052 C  
ENDROOT
BRANCH   2   3
HETATM    3  N   UNL     1      -6.205  16.426  69.017  1.00  0.00    -0.149 N  
BRANCH   3   4
HETATM    4  C   UNL     1      -5.164  17.377  69.419  1.00  0.00    -0.170 C  
HETATM    5  C   UNL     1      -5.666  18.790  69.655  1.00  0.00    -0.251 C  
ENDBRANCH   3   4
BRANCH   3   6
HETATM    6  C   UNL     1      -6.552  16.146  67.696  1.00  0.00    -0.155 C  
HETATM    7  O   UNL     1      -5.975  15.278  67.042  1.00  0.00    -0.206 OA 
BRANCH   6   8
HETATM    8  N   UNL     1      -7.611  16.888  67.205  1.00  0.00    -0.165 N  
HETATM    9  H   UNL     1      -7.463  17.872  66.982  1.00  0.00     0.000 HD 
BRANCH   8  10
HETATM   10  C   UNL     1      -8.884  16.325  67.003  1.00  0.00    -0.205 A  
HETATM   11  C   UNL     1      -9.284  15.827  65.766  1.00  0.00    -0.255 A  
HETATM   12  C   UNL     1     -10.533  15.217  65.622  1.00  0.00    -0.378 A  
HETATM   13  C   UNL     1     -11.396  15.072  66.716  1.00  0.00    -0.293 A  
HETATM   14  C   UNL     1      -9.763  16.253  68.083  1.00  0.00    -0.227 A  
HETATM   15  C   UNL     1     -11.005  15.606  67.957  1.00  0.00    -0.318 A  
BRANCH  13  16
HETATM   16  O   UNL     1     -12.583  14.393  66.653  1.00  0.00    -0.263 OA 
BRANCH  16  17
HETATM   17  C   UNL     1     -13.003  13.910  65.366  1.00  0.00    -0.326 C  
BRANCH  17  18
HETATM   18  C   UNL     1     -12.441  12.498  65.153  1.00  0.00    -0.379 C  
HETATM   19  H   UNL     1     -11.676  11.486  63.653  1.00  0.00     0.000 HD 
HETATM   20  O   UNL     1     -12.025  12.360  63.785  1.00  0.00    -0.426 OA 
BRANCH  18  21
HETATM   21  C   UNL     1     -11.242  12.168  66.062  1.00  0.00    -0.336 C  
BRANCH  21  22
HETATM   22  N   UNL     1     -11.613  11.434  67.278  1.00  0.00    -0.560 NA 
HETATM   23  C   UNL     1     -10.507  10.700  67.930  1.00  0.00    -0.208 C  
HETATM   24  H   UNL     1     -12.389  10.800  67.082  1.00  0.00     0.000 HD 
HETATM   25  C   UNL     1     -11.118   9.934  69.119  1.00  0.00    -0.197 C  
HETATM   26  C   UNL     1      -9.438  11.658  68.483  1.00  0.00    -0.175 C  
HETATM   27  C   UNL     1      -9.861   9.679  66.979  1.00  0.00    -0.249 C  
ENDBRANCH  21  22
ENDBRANCH  18  21
ENDBRANCH  17  18
ENDBRANCH  16  17
ENDBRANCH  13  16
BRANCH  15  28
HETATM   28  C   UNL     1     -11.769  15.476  69.236  1.00  0.00    -0.365 C  
HETATM   29  O   UNL     1     -12.401  16.445  69.658  1.00  0.00     0.115 OA 
HETATM   30  C   UNL     1     -11.820  14.169  69.982  1.00  0.00    -0.388 C  
ENDBRANCH  15  28
ENDBRANCH   8  10
ENDBRANCH   6   8
ENDBRANCH   3   6
ENDBRANCH   2   3
TORSDOF 11
ENDMDL
MODEL      226
REMARK 921   NORMALIZED FREE ENERGY PREDICTED BY IDOCK:   -3.82 KCAL/MOL
REMARK 922        TOTAL FREE ENERGY PREDICTED BY IDOCK:   -7.40 KCAL/MOL
REMARK 923 INTER-LIGAND FREE ENERGY PREDICTED BY IDOCK:   -6.27 KCAL/MOL
REMARK 924 INTRA-LIGAND FREE ENERGY PREDICTED BY IDOCK:   -1.14 KCAL/MOL
REMARK 927      BINDING AFFINITY PREDICTED BY RF-SCORE:    0.00 PKD
ROOT
HETATM    1  C   UNL     1     -11.233  12.424  63.778  1.00  0.00    -0.520 C  
HETATM    2  C   UNL     1     -10.328  13.185  64.737  1.00  0.00    -0.350 C  
ENDROOT
BRANCH   2   3
HETATM    3  N   UNL     1     -10.503  12.782  66.137  1.00  0.00    -0.263 N  
BRANCH   3   4
HETATM    4  C   UNL     1     -11.833  12.939  66.735  1.00  0.00    -0.385 C  
HETATM    5  C   UNL     1     -11.877  13.886  67.920  1.00  0.00    -0.413 C  
ENDBRANCH   3   4
BRANCH   3   6
HETATM    6  C   UNL     1      -9.447  12.091  66.730  1.00  0.00    -0.208 C  
HETATM    7  O   UNL     1      -8.712  12.617  67.565  1.00  0.00    -0.164 OA 
BRANCH   6   8
HETATM    8  N   UNL     1      -9.325  10.771  66.336  1.00  0.00    -0.170 N  
HETATM    9  H   UNL     1      -8.808  10.555  65.485  1.00  0.00     0.000 HD 
BRANCH   8  10
HETATM   10  C   UNL     1      -9.893   9.717  67.076  1.00  0.00    -0.193 A  
HETATM   11  C   UNL     1     -10.068   8.445  66.535  1.00  0.00    -0.317 A  
HETATM   12  C   UNL     1     -10.575   7.408  67.322  1.00  0.00    -0.393 A  
HETATM   13  C   UNL     1     -10.895   7.616  68.671  1.00  0.00     0.028 A  
HETATM   14  C   UNL     1     -10.276   9.955  68.395  1.00  0.00    -0.203 A  
HETATM   15  C   UNL     1     -10.750   8.908  69.206  1.00  0.00    -0.177 A  
BRANCH  13  16
HETATM   16  O   UNL     1     -11.297   6.613  69.511  1.00  0.00    -0.323 OA 
BRANCH  16  17
HETATM   17  C   UNL     1     -10.292   5.701  69.984  1.00  0.00    -0.275 C  
BRANCH  17  18
HETATM   18  C   UNL     1     -10.345   5.647  71.516  1.00  0.00    -0.222 C  
HETATM   19  H   UNL     1     -11.710   5.924  72.901  1.00  0.00     0.000 HD 
HETATM   20  O   UNL     1     -11.677   5.958  71.952  1.00  0.00    -0.255 OA 
BRANCH  18  21
HETATM   21  C   UNL     1      -9.950   4.276  72.098  1.00  0.00    -0.179 C  
BRANCH  21  22
HETATM   22  N   UNL     1      -8.579   3.870  71.764  1.00  0.00    -0.093 NA 
HETATM   23  C   UNL     1      -8.398   2.426  71.503  1.00  0.00    -0.062 C  
HETATM   24  H   UNL     1      -7.934   4.180  72.491  1.00  0.00     0.000 HD 
HETATM   25  C   UNL     1      -6.893   2.200  71.263  1.00  0.00    -0.031 C  
HETATM   26  C   UNL     1      -9.152   1.978  70.239  1.00  0.00    -0.161 C  
HETATM   27  C   UNL     1      -8.829   1.571  72.706  1.00  0.00    -0.065 C  
ENDBRANCH  21  22
ENDBRANCH  18  21
ENDBRANCH  17  18
ENDBRANCH  16  17
ENDBRANCH  13  16
BRANCH  15  28
HETATM   28  C   UNL     1     -10.975   9.285  70.635  1.00  0.00    -0.276 C  
HETATM   29  O   UNL     1     -12.106   9.616  70.998  1.00  0.00    -0.304 OA 
HETATM   30  C   UNL     1      -9.860   9.213  71.644  1.00  0.00    -0.295 C  
ENDBRANCH  15  28
ENDBRANCH   8  10
ENDBRANCH   6   8
ENDBRANCH   3   6
ENDBRANCH   2   3
TORSDOF 11
ENDMDL
MODEL      227
REMARK 921   NORMALIZED FREE ENERGY PREDICTED BY IDOCK:   -3.78 KCAL/MOL
REMARK 922        TOTAL FREE ENERGY PREDICTED BY IDOCK:   -7.33 KCAL/MOL
REMARK 923 INTER-LIGAND FREE ENERGY PREDICTED BY IDOCK:   -6.36 KCAL/MOL
REMARK 924 INTRA-LIGAND FREE ENERGY PREDICTED BY IDOCK:   -0.97 KCAL/MOL
REMARK 927      BINDING AFFINITY PREDICTED BY RF-SCORE:    0.00 PKD
ROOT
HETATM    1  C   UNL     1     -10.015  20.169  66.480  1.00  0.00    -0.586 C  
HETATM    2  C   UNL     1     -10.516  18.864  67.082  1.00  0.00    -0.438 C  
ENDROOT
BRANCH   2   3
HETATM    3  N   UNL     1      -9.670  17.713  66.751  1.00  0.00    -0.287 N  
BRANCH   3   4
HETATM    4  C   UNL     1      -8.244  17.792  67.083  1.00  0.00    -0.219 C  
HETATM    5  C   UNL     1      -7.396  16.699  66.458  1.00  0.00    -0.273 C  
ENDBRANCH   3   4
BRANCH   3   6
HETATM    6  C   UNL     1     -10.321  16.552  66.335  1.00  0.00    -0.311 C  
HETATM    7  O   UNL     1     -10.290  16.173  65.165  1.00  0.00    -0.560 OA 
BRANCH   6   8
HETATM    8  N   UNL     1     -10.959  15.852  67.343  1.00  0.00    -0.296 N  
HETATM    9  H   UNL     1     -11.614  16.346  67.949  1.00  0.00     0.000 HD 
BRANCH   8  10
HETATM   10  C   UNL     1     -10.732  14.481  67.557  1.00  0.00    -0.276 A  
HETATM   11  C   UNL     1     -11.769  13.550  67.550  1.00  0.00    -0.403 A  
HETATM   12  C   UNL     1     -11.495  12.188  67.701  1.00  0.00    -0.399 A  
HETATM   13  C   UNL     1     -10.179  11.728  67.839  1.00  0.00    -0.191 A  
HETATM   14  C   UNL     1      -9.425  14.043  67.767  1.00  0.00    -0.209 A  
HETATM   15  C   UNL     1      -9.136  12.671  67.881  1.00  0.00    -0.200 A  
BRANCH  13  16
HETATM   16  O   UNL     1      -9.848  10.400  67.888  1.00  0.00    -0.151 OA 
BRANCH  16  17
HETATM   17  C   UNL     1      -9.970   9.733  69.154  1.00  0.00    -0.189 C  
BRANCH  17  18
HETATM   18  C   UNL     1     -10.131   8.226  68.914  1.00  0.00    -0.199 C  
HETATM   19  H   UNL     1     -10.910   7.086  67.516  1.00  0.00     0.000 HD 
HETATM   20  O   UNL     1     -10.810   8.020  67.665  1.00  0.00    -0.170 OA 
BRANCH  18  21
HETATM   21  C   UNL     1      -8.794   7.461  68.874  1.00  0.00    -0.131 C  
BRANCH  21  22
HETATM   22  N   UNL     1      -8.597   6.690  67.640  1.00  0.00    -0.120 NA 
HETATM   23  C   UNL     1      -8.053   5.329  67.832  1.00  0.00    -0.099 C  
HETATM   24  H   UNL     1      -8.012   7.214  66.988  1.00  0.00     0.000 HD 
HETATM   25  C   UNL     1      -7.840   4.730  66.428  1.00  0.00    -0.099 C  
HETATM   26  C   UNL     1      -9.042   4.423  68.587  1.00  0.00    -0.171 C  
HETATM   27  C   UNL     1      -6.698   5.352  68.558  1.00  0.00    -0.054 C  
ENDBRANCH  21  22
ENDBRANCH  18  21
ENDBRANCH  17  18
ENDBRANCH  16  17
ENDBRANCH  13  16
BRANCH  15  28
HETATM   28  C   UNL     1      -7.678  12.349  67.949  1.00  0.00    -0.135 C  
HETATM   29  O   UNL     1      -7.131  11.831  66.973  1.00  0.00    -0.137 OA 
HETATM   30  C   UNL     1      -6.860  12.697  69.165  1.00  0.00    -0.057 C  
ENDBRANCH  15  28
ENDBRANCH   8  10
ENDBRANCH   6   8
ENDBRANCH   3   6
ENDBRANCH   2   3
TORSDOF 11
ENDMDL
MODEL      228
REMARK 921   NORMALIZED FREE ENERGY PREDICTED BY IDOCK:   -3.77 KCAL/MOL
REMARK 922        TOTAL FREE ENERGY PREDICTED BY IDOCK:   -7.33 KCAL/MOL
REMARK 923 INTER-LIGAND FREE ENERGY PREDICTED BY IDOCK:   -6.90 KCAL/MOL
REMARK 924 INTRA-LIGAND FREE ENERGY PREDICTED BY IDOCK:   -0.43 KCAL/MOL
REMARK 927      BINDING AFFINITY PREDICTED BY RF-SCORE:    0.00 PKD
ROOT
HETATM    1  C   UNL     1     -11.697  15.982  70.412  1.00  0.00    -0.326 C  
HETATM    2  C   UNL     1     -11.448  15.055  71.594  1.00  0.00    -0.313 C  
ENDROOT
BRANCH   2   3
HETATM    3  N   UNL     1     -12.682  14.631  72.264  1.00  0.00    -0.325 N  
BRANCH   3   4
HETATM    4  C   UNL     1     -13.331  15.583  73.172  1.00  0.00    -0.528 C  
HETATM    5  C   UNL     1     -12.380  16.560  73.837  1.00  0.00    -0.495 C  
ENDBRANCH   3   4
BRANCH   3   6
HETATM    6  C   UNL     1     -13.255  13.436  71.832  1.00  0.00    -0.431 C  
HETATM    7  O   UNL     1     -13.944  12.739  72.577  1.00  0.00    -0.499 OA 
BRANCH   6   8
HETATM    8  N   UNL     1     -13.021  13.127  70.505  1.00  0.00     0.070 N  
HETATM    9  H   UNL     1     -13.540  13.625  69.783  1.00  0.00     0.000 HD 
BRANCH   8  10
HETATM   10  C   UNL     1     -12.087  12.147  70.122  1.00  0.00    -0.290 A  
HETATM   11  C   UNL     1     -11.912  10.970  70.846  1.00  0.00    -0.391 A  
HETATM   12  C   UNL     1     -11.021   9.992  70.396  1.00  0.00    -0.384 A  
HETATM   13  C   UNL     1     -10.307  10.159  69.202  1.00  0.00    -0.219 A  
HETATM   14  C   UNL     1     -11.329  12.358  68.971  1.00  0.00    -0.336 A  
HETATM   15  C   UNL     1     -10.460  11.362  68.490  1.00  0.00    -0.223 A  
BRANCH  13  16
HETATM   16  O   UNL     1      -9.502   9.191  68.665  1.00  0.00    -0.142 OA 
BRANCH  16  17
HETATM   17  C   UNL     1      -8.102   9.242  68.983  1.00  0.00    -0.106 C  
BRANCH  17  18
HETATM   18  C   UNL     1      -7.416   7.986  68.429  1.00  0.00    -0.103 C  
HETATM   19  H   UNL     1      -6.762   6.284  69.160  1.00  0.00     0.000 HD 
HETATM   20  O   UNL     1      -7.187   7.062  69.503  1.00  0.00    -0.076 OA 
BRANCH  18  21
HETATM   21  C   UNL     1      -8.232   7.270  67.335  1.00  0.00    -0.116 C  
BRANCH  21  22
HETATM   22  N   UNL     1      -8.477   5.851  67.622  1.00  0.00    -0.105 NA 
HETATM   23  C   UNL     1      -9.487   5.203  66.758  1.00  0.00    -0.141 C  
HETATM   24  H   UNL     1      -8.724   5.729  68.604  1.00  0.00     0.000 HD 
HETATM   25  C   UNL     1      -9.658   3.761  67.275  1.00  0.00    -0.213 C  
HETATM   26  C   UNL     1      -9.019   5.128  65.294  1.00  0.00    -0.144 C  
HETATM   27  C   UNL     1     -10.849   5.911  66.842  1.00  0.00    -0.376 C  
ENDBRANCH  21  22
ENDBRANCH  18  21
ENDBRANCH  17  18
ENDBRANCH  16  17
ENDBRANCH  13  16
BRANCH  15  28
HETATM   28  C   UNL     1      -9.833  11.673  67.168  1.00  0.00    -0.188 C  
HETATM   29  O   UNL     1      -8.924  12.504  67.117  1.00  0.00    -0.186 OA 
HETATM   30  C   UNL     1     -10.255  10.950  65.918  1.00  0.00    -0.314 C  
ENDBRANCH  15  28
ENDBRANCH   8  10
ENDBRANCH   6   8
ENDBRANCH   3   6
ENDBRANCH   2   3
TORSDOF 11
ENDMDL
MODEL      229
REMARK 921   NORMALIZED FREE ENERGY PREDICTED BY IDOCK:   -3.76 KCAL/MOL
REMARK 922        TOTAL FREE ENERGY PREDICTED BY IDOCK:   -7.32 KCAL/MOL
REMARK 923 INTER-LIGAND FREE ENERGY PREDICTED BY IDOCK:   -6.42 KCAL/MOL
REMARK 924 INTRA-LIGAND FREE ENERGY PREDICTED BY IDOCK:   -0.90 KCAL/MOL
REMARK 927      BINDING AFFINITY PREDICTED BY RF-SCORE:    0.00 PKD
ROOT
HETATM    1  C   UNL     1      -7.149   4.429  68.958  1.00  0.00    -0.051 C  
HETATM    2  C   UNL     1      -7.212   5.516  70.023  1.00  0.00    -0.068 C  
ENDROOT
BRANCH   2   3
HETATM    3  N   UNL     1      -8.330   5.345  70.956  1.00  0.00    -0.117 N  
BRANCH   3   4
HETATM    4  C   UNL     1      -8.453   4.059  71.651  1.00  0.00    -0.094 C  
HETATM    5  C   UNL     1      -9.775   3.350  71.422  1.00  0.00    -0.234 C  
ENDBRANCH   3   4
BRANCH   3   6
HETATM    6  C   UNL     1      -9.070   6.485  71.268  1.00  0.00    -0.148 C  
HETATM    7  O   UNL     1      -8.771   7.216  72.211  1.00  0.00    -0.120 OA 
BRANCH   6   8
HETATM    8  N   UNL     1     -10.128   6.740  70.415  1.00  0.00    -0.183 N  
HETATM    9  H   UNL     1     -10.552   5.964  69.908  1.00  0.00     0.000 HD 
BRANCH   8  10
HETATM   10  C   UNL     1     -10.635   8.038  70.225  1.00  0.00    -0.231 A  
HETATM   11  C   UNL     1     -11.462   8.653  71.162  1.00  0.00    -0.332 A  
HETATM   12  C   UNL     1     -11.893   9.968  70.968  1.00  0.00    -0.476 A  
HETATM   13  C   UNL     1     -11.486  10.702  69.845  1.00  0.00    -0.317 A  
HETATM   14  C   UNL     1     -10.283   8.733  69.068  1.00  0.00    -0.218 A  
HETATM   15  C   UNL     1     -10.678  10.069  68.883  1.00  0.00    -0.243 A  
BRANCH  13  16
HETATM   16  O   UNL     1     -11.794  12.023  69.659  1.00  0.00    -0.308 OA 
BRANCH  16  17
HETATM   17  C   UNL     1     -12.181  12.783  70.816  1.00  0.00    -0.248 C  
BRANCH  17  18
HETATM   18  C   UNL     1     -12.524  14.214  70.384  1.00  0.00    -0.357 C  
HETATM   19  H   UNL     1     -12.480  15.997  71.208  1.00  0.00     0.000 HD 
HETATM   20  O   UNL     1     -12.267  15.110  71.476  1.00  0.00    -0.293 OA 
BRANCH  18  21
HETATM   21  C   UNL     1     -11.723  14.698  69.159  1.00  0.00    -0.309 C  
BRANCH  21  22
HETATM   22  N   UNL     1     -11.565  16.156  69.100  1.00  0.00    -0.324 NA 
HETATM   23  C   UNL     1     -10.417  16.630  68.299  1.00  0.00    -0.321 C  
HETATM   24  H   UNL     1     -11.520  16.543  70.043  1.00  0.00     0.000 HD 
HETATM   25  C   UNL     1     -10.379  18.165  68.437  1.00  0.00    -0.371 C  
HETATM   26  C   UNL     1     -10.588  16.295  66.807  1.00  0.00    -0.257 C  
HETATM   27  C   UNL     1      -9.086  16.065  68.818  1.00  0.00    -0.222 C  
ENDBRANCH  21  22
ENDBRANCH  18  21
ENDBRANCH  17  18
ENDBRANCH  16  17
ENDBRANCH  13  16
BRANCH  15  28
HETATM   28  C   UNL     1     -10.098  10.725  67.671  1.00  0.00    -0.176 C  
HETATM   29  O   UNL     1     -10.656  10.574  66.583  1.00  0.00    -0.241 OA 
HETATM   30  C   UNL     1      -8.883  11.608  67.771  1.00  0.00    -0.159 C  
ENDBRANCH  15  28
ENDBRANCH   8  10
ENDBRANCH   6   8
ENDBRANCH   3   6
ENDBRANCH   2   3
TORSDOF 11
ENDMDL
MODEL      230
REMARK 921   NORMALIZED FREE ENERGY PREDICTED BY IDOCK:   -3.74 KCAL/MOL
REMARK 922        TOTAL FREE ENERGY PREDICTED BY IDOCK:   -7.27 KCAL/MOL
REMARK 923 INTER-LIGAND FREE ENERGY PREDICTED BY IDOCK:   -5.43 KCAL/MOL
REMARK 924 INTRA-LIGAND FREE ENERGY PREDICTED BY IDOCK:   -1.83 KCAL/MOL
REMARK 927      BINDING AFFINITY PREDICTED BY RF-SCORE:    0.00 PKD
ROOT
HETATM    1  C   UNL     1     -10.883  16.941  68.781  1.00  0.00    -0.289 C  
HETATM    2  C   UNL     1     -10.211  15.587  68.961  1.00  0.00    -0.229 C  
ENDROOT
BRANCH   2   3
HETATM    3  N   UNL     1      -9.620  15.067  67.723  1.00  0.00    -0.202 N  
BRANCH   3   4
HETATM    4  C   UNL     1     -10.485  14.960  66.543  1.00  0.00    -0.297 C  
HETATM    5  C   UNL     1     -11.556  13.890  66.648  1.00  0.00    -0.392 C  
ENDBRANCH   3   4
BRANCH   3   6
HETATM    6  C   UNL     1      -8.235  14.908  67.704  1.00  0.00    -0.172 C  
HETATM    7  O   UNL     1      -7.480  15.716  68.243  1.00  0.00    -0.112 OA 
BRANCH   6   8
HETATM    8  N   UNL     1      -7.792  13.760  67.073  1.00  0.00    -0.368 N  
HETATM    9  H   UNL     1      -7.550  13.802  66.083  1.00  0.00     0.000 HD 
BRANCH   8  10
HETATM   10  C   UNL     1      -7.666  12.536  67.755  1.00  0.00    -0.142 A  
HETATM   11  C   UNL     1      -6.593  12.270  68.603  1.00  0.00    -0.078 A  
HETATM   12  C   UNL     1      -6.538  11.068  69.313  1.00  0.00    -0.091 A  
HETATM   13  C   UNL     1      -7.564  10.119  69.209  1.00  0.00    -0.117 A  
HETATM   14  C   UNL     1      -8.657  11.570  67.586  1.00  0.00    -0.135 A  
HETATM   15  C   UNL     1      -8.629  10.374  68.327  1.00  0.00    -0.128 A  
BRANCH  13  16
HETATM   16  O   UNL     1      -7.609   8.975  69.959  1.00  0.00    -0.059 OA 
BRANCH  16  17
HETATM   17  C   UNL     1      -7.148   9.055  71.317  1.00  0.00    -0.079 C  
BRANCH  17  18
HETATM   18  C   UNL     1      -7.950   8.069  72.177  1.00  0.00    -0.121 C  
HETATM   19  H   UNL     1      -9.682   8.076  73.105  1.00  0.00     0.000 HD 
HETATM   20  O   UNL     1      -9.185   8.687  72.572  1.00  0.00    -0.293 OA 
BRANCH  18  21
HETATM   21  C   UNL     1      -8.276   6.746  71.457  1.00  0.00    -0.111 C  
BRANCH  21  22
HETATM   22  N   UNL     1      -9.369   6.863  70.484  1.00  0.00    -0.159 NA 
HETATM   23  C   UNL     1     -10.417   5.826  70.591  1.00  0.00    -0.264 C  
HETATM   24  H   UNL     1      -8.994   6.887  69.535  1.00  0.00     0.000 HD 
HETATM   25  C   UNL     1     -11.411   6.073  69.439  1.00  0.00    -0.282 C  
HETATM   26  C   UNL     1     -11.193   5.936  71.915  1.00  0.00    -0.323 C  
HETATM   27  C   UNL     1      -9.838   4.411  70.435  1.00  0.00    -0.286 C  
ENDBRANCH  21  22
ENDBRANCH  18  21
ENDBRANCH  17  18
ENDBRANCH  16  17
ENDBRANCH  13  16
BRANCH  15  28
HETATM   28  C   UNL     1      -9.835   9.508  68.150  1.00  0.00    -0.155 C  
HETATM   29  O   UNL     1     -10.703   9.503  69.025  1.00  0.00    -0.222 OA 
HETATM   30  C   UNL     1     -10.029   8.690  66.902  1.00  0.00    -0.330 C  
ENDBRANCH  15  28
ENDBRANCH   8  10
ENDBRANCH   6   8
ENDBRANCH   3   6
ENDBRANCH   2   3
TORSDOF 11
ENDMDL
MODEL      231
REMARK 921   NORMALIZED FREE ENERGY PREDICTED BY IDOCK:   -3.72 KCAL/MOL
REMARK 922        TOTAL FREE ENERGY PREDICTED BY IDOCK:   -7.25 KCAL/MOL
REMARK 923 INTER-LIGAND FREE ENERGY PREDICTED BY IDOCK:   -6.13 KCAL/MOL
REMARK 924 INTRA-LIGAND FREE ENERGY PREDICTED BY IDOCK:   -1.12 KCAL/MOL
REMARK 927      BINDING AFFINITY PREDICTED BY RF-SCORE:    0.00 PKD
ROOT
HETATM    1  C   UNL     1      -9.764  10.158  64.753  1.00  0.00    -0.389 C  
HETATM    2  C   UNL     1      -9.516   9.147  65.864  1.00  0.00    -0.259 C  
ENDROOT
BRANCH   2   3
HETATM    3  N   UNL     1      -8.931   9.745  67.068  1.00  0.00    -0.137 N  
BRANCH   3   4
HETATM    4  C   UNL     1      -9.672   9.618  68.327  1.00  0.00    -0.146 C  
HETATM    5  C   UNL     1     -10.508   8.357  68.435  1.00  0.00    -0.208 C  
ENDBRANCH   3   4
BRANCH   3   6
HETATM    6  C   UNL     1      -7.619  10.210  66.967  1.00  0.00    -0.092 C  
HETATM    7  O   UNL     1      -6.657   9.513  67.288  1.00  0.00    -0.069 OA 
BRANCH   6   8
HETATM    8  N   UNL     1      -7.494  11.484  66.445  1.00  0.00    -0.352 N  
HETATM    9  H   UNL     1      -7.375  11.596  65.439  1.00  0.00     0.000 HD 
BRANCH   8  10
HETATM   10  C   UNL     1      -7.527  12.630  67.261  1.00  0.00    -0.109 A  
HETATM   11  C   UNL     1      -6.364  13.259  67.698  1.00  0.00    -0.161 A  
HETATM   12  C   UNL     1      -6.439  14.433  68.452  1.00  0.00    -0.102 A  
HETATM   13  C   UNL     1      -7.676  15.013  68.764  1.00  0.00    -0.141 A  
HETATM   14  C   UNL     1      -8.766  13.157  67.626  1.00  0.00    -0.192 A  
HETATM   15  C   UNL     1      -8.850  14.359  68.351  1.00  0.00    -0.182 A  
BRANCH  13  16
HETATM   16  O   UNL     1      -7.801  16.214  69.411  1.00  0.00    -0.233 OA 
BRANCH  16  17
HETATM   17  C   UNL     1      -6.593  16.914  69.748  1.00  0.00    -0.030 C  
BRANCH  17  18
HETATM   18  C   UNL     1      -6.462  18.150  68.849  1.00  0.00    -0.229 C  
HETATM   19  H   UNL     1      -6.022  18.497  66.966  1.00  0.00     0.000 HD 
HETATM   20  O   UNL     1      -6.103  17.731  67.523  1.00  0.00    -0.149 OA 
BRANCH  18  21
HETATM   21  C   UNL     1      -7.752  18.989  68.762  1.00  0.00    -0.347 C  
BRANCH  21  22
HETATM   22  N   UNL     1      -8.767  18.413  67.872  1.00  0.00    -0.278 NA 
HETATM   23  C   UNL     1      -9.298  19.335  66.846  1.00  0.00    -0.318 C  
HETATM   24  H   UNL     1      -9.532  18.018  68.420  1.00  0.00     0.000 HD 
HETATM   25  C   UNL     1     -10.399  18.572  66.085  1.00  0.00    -0.457 C  
HETATM   26  C   UNL     1      -8.215  19.740  65.831  1.00  0.00    -0.236 C  
HETATM   27  C   UNL     1      -9.926  20.589  67.476  1.00  0.00    -0.497 C  
ENDBRANCH  21  22
ENDBRANCH  18  21
ENDBRANCH  17  18
ENDBRANCH  16  17
ENDBRANCH  13  16
BRANCH  15  28
HETATM   28  C   UNL     1     -10.241  14.875  68.536  1.00  0.00    -0.235 C  
HETATM   29  O   UNL     1     -10.697  14.977  69.676  1.00  0.00    -0.252 OA 
HETATM   30  C   UNL     1     -11.068  15.321  67.359  1.00  0.00    -0.326 C  
ENDBRANCH  15  28
ENDBRANCH   8  10
ENDBRANCH   6   8
ENDBRANCH   3   6
ENDBRANCH   2   3
TORSDOF 11
ENDMDL
MODEL      232
REMARK 921   NORMALIZED FREE ENERGY PREDICTED BY IDOCK:   -3.72 KCAL/MOL
REMARK 922        TOTAL FREE ENERGY PREDICTED BY IDOCK:   -7.25 KCAL/MOL
REMARK 923 INTER-LIGAND FREE ENERGY PREDICTED BY IDOCK:   -5.98 KCAL/MOL
REMARK 924 INTRA-LIGAND FREE ENERGY PREDICTED BY IDOCK:   -1.27 KCAL/MOL
REMARK 927      BINDING AFFINITY PREDICTED BY RF-SCORE:    0.00 PKD
ROOT
HETATM    1  C   UNL     1     -11.913   6.813  70.088  1.00  0.00    -0.244 C  
HETATM    2  C   UNL     1     -10.951   7.804  69.448  1.00  0.00    -0.035 C  
ENDROOT
BRANCH   2   3
HETATM    3  N   UNL     1     -10.785   9.034  70.229  1.00  0.00    -0.221 N  
BRANCH   3   4
HETATM    4  C   UNL     1     -11.918   9.489  71.042  1.00  0.00    -0.328 C  
HETATM    5  C   UNL     1     -12.618  10.723  70.502  1.00  0.00    -0.421 C  
ENDBRANCH   3   4
BRANCH   3   6
HETATM    6  C   UNL     1      -9.497   9.565  70.303  1.00  0.00    -0.259 C  
HETATM    7  O   UNL     1      -8.912   9.706  71.376  1.00  0.00    -0.078 OA 
BRANCH   6   8
HETATM    8  N   UNL     1      -8.928   9.875  69.081  1.00  0.00    -0.157 N  
HETATM    9  H   UNL     1      -8.274   9.217  68.659  1.00  0.00     0.000 HD 
BRANCH   8  10
HETATM   10  C   UNL     1      -9.224  11.072  68.404  1.00  0.00    -0.175 A  
HETATM   11  C   UNL     1     -10.272  11.163  67.490  1.00  0.00    -0.216 A  
HETATM   12  C   UNL     1     -10.576  12.386  66.886  1.00  0.00    -0.251 A  
HETATM   13  C   UNL     1      -9.855  13.546  67.201  1.00  0.00    -0.245 A  
HETATM   14  C   UNL     1      -8.453  12.202  68.671  1.00  0.00    -0.005 A  
HETATM   15  C   UNL     1      -8.776  13.445  68.098  1.00  0.00    -0.179 A  
BRANCH  13  16
HETATM   16  O   UNL     1     -10.177  14.786  66.718  1.00  0.00    -0.259 OA 
BRANCH  16  17
HETATM   17  C   UNL     1     -11.564  15.159  66.720  1.00  0.00    -0.134 C  
BRANCH  17  18
HETATM   18  C   UNL     1     -11.928  15.730  68.097  1.00  0.00     0.123 C  
HETATM   19  H   UNL     1     -11.999  15.057  69.941  1.00  0.00     0.000 HD 
HETATM   20  O   UNL     1     -11.774  14.703  69.088  1.00  0.00    -0.278 OA 
BRANCH  18  21
HETATM   21  C   UNL     1     -11.065  16.939  68.510  1.00  0.00    -0.213 C  
BRANCH  21  22
HETATM   22  N   UNL     1     -10.513  17.681  67.370  1.00  0.00    -0.362 NA 
HETATM   23  C   UNL     1      -9.525  18.724  67.720  1.00  0.00    -0.301 C  
HETATM   24  H   UNL     1     -11.268  18.085  66.814  1.00  0.00     0.000 HD 
HETATM   25  C   UNL     1      -9.141  19.436  66.408  1.00  0.00    -0.397 C  
HETATM   26  C   UNL     1      -8.245  18.116  68.320  1.00  0.00    -0.300 C  
HETATM   27  C   UNL     1     -10.115  19.769  68.682  1.00  0.00    -0.546 C  
ENDBRANCH  21  22
ENDBRANCH  18  21
ENDBRANCH  17  18
ENDBRANCH  16  17
ENDBRANCH  13  16
BRANCH  15  28
HETATM   28  C   UNL     1      -7.953  14.590  68.597  1.00  0.00    -0.145 C  
HETATM   29  O   UNL     1      -8.211  15.079  69.697  1.00  0.00    -0.167 OA 
HETATM   30  C   UNL     1      -6.786  15.112  67.803  1.00  0.00    -0.185 C  
ENDBRANCH  15  28
ENDBRANCH   8  10
ENDBRANCH   6   8
ENDBRANCH   3   6
ENDBRANCH   2   3
TORSDOF 11
ENDMDL
MODEL      233
REMARK 921   NORMALIZED FREE ENERGY PREDICTED BY IDOCK:   -3.70 KCAL/MOL
REMARK 922        TOTAL FREE ENERGY PREDICTED BY IDOCK:   -7.22 KCAL/MOL
REMARK 923 INTER-LIGAND FREE ENERGY PREDICTED BY IDOCK:   -6.26 KCAL/MOL
REMARK 924 INTRA-LIGAND FREE ENERGY PREDICTED BY IDOCK:   -0.96 KCAL/MOL
REMARK 927      BINDING AFFINITY PREDICTED BY RF-SCORE:    0.00 PKD
ROOT
HETATM    1  C   UNL     1      -7.199   6.890  69.972  1.00  0.00    -0.080 C  
HETATM    2  C   UNL     1      -7.551   5.423  69.770  1.00  0.00    -0.070 C  
ENDROOT
BRANCH   2   3
HETATM    3  N   UNL     1      -8.459   5.197  68.641  1.00  0.00    -0.088 N  
BRANCH   3   4
HETATM    4  C   UNL     1      -7.881   4.725  67.379  1.00  0.00    -0.094 C  
HETATM    5  C   UNL     1      -7.245   5.815  66.537  1.00  0.00    -0.074 C  
ENDBRANCH   3   4
BRANCH   3   6
HETATM    6  C   UNL     1      -9.827   5.251  68.912  1.00  0.00    -0.164 C  
HETATM    7  O   UNL     1     -10.311   4.730  69.916  1.00  0.00    -0.238 OA 
BRANCH   6   8
HETATM    8  N   UNL     1     -10.572   5.965  67.991  1.00  0.00    -0.243 N  
HETATM    9  H   UNL     1     -11.209   5.462  67.375  1.00  0.00     0.000 HD 
BRANCH   8  10
HETATM   10  C   UNL     1     -10.477   7.364  67.880  1.00  0.00    -0.205 A  
HETATM   11  C   UNL     1     -10.141   7.989  66.681  1.00  0.00    -0.329 A  
HETATM   12  C   UNL     1     -10.122   9.383  66.595  1.00  0.00    -0.332 A  
HETATM   13  C   UNL     1     -10.460  10.180  67.697  1.00  0.00    -0.245 A  
HETATM   14  C   UNL     1     -10.744   8.145  69.004  1.00  0.00    -0.099 A  
HETATM   15  C   UNL     1     -10.765   9.549  68.916  1.00  0.00    -0.220 A  
BRANCH  13  16
HETATM   16  O   UNL     1     -10.555  11.545  67.637  1.00  0.00    -0.186 OA 
BRANCH  16  17
HETATM   17  C   UNL     1     -10.401  12.164  66.350  1.00  0.00    -0.218 C  
BRANCH  17  18
HETATM   18  C   UNL     1     -10.880  13.619  66.433  1.00  0.00    -0.290 C  
HETATM   19  H   UNL     1     -12.551  14.541  66.901  1.00  0.00     0.000 HD 
HETATM   20  O   UNL     1     -12.254  13.639  66.849  1.00  0.00    -0.399 OA 
BRANCH  18  21
HETATM   21  C   UNL     1     -10.062  14.482  67.412  1.00  0.00    -0.235 C  
BRANCH  21  22
HETATM   22  N   UNL     1      -8.936  15.180  66.779  1.00  0.00    -0.247 NA 
HETATM   23  C   UNL     1      -8.847  16.625  67.076  1.00  0.00    -0.199 C  
HETATM   24  H   UNL     1      -8.951  15.028  65.770  1.00  0.00     0.000 HD 
HETATM   25  C   UNL     1      -7.666  17.179  66.255  1.00  0.00    -0.350 C  
HETATM   26  C   UNL     1      -8.551  16.884  68.563  1.00  0.00    -0.251 C  
HETATM   27  C   UNL     1     -10.122  17.374  66.653  1.00  0.00    -0.317 C  
ENDBRANCH  21  22
ENDBRANCH  18  21
ENDBRANCH  17  18
ENDBRANCH  16  17
ENDBRANCH  13  16
BRANCH  15  28
HETATM   28  C   UNL     1     -11.215  10.241  70.162  1.00  0.00    -0.318 C  
HETATM   29  O   UNL     1     -10.826   9.823  71.254  1.00  0.00    -0.334 OA 
HETATM   30  C   UNL     1     -12.086  11.468  70.100  1.00  0.00    -0.432 C  
ENDBRANCH  15  28
ENDBRANCH   8  10
ENDBRANCH   6   8
ENDBRANCH   3   6
ENDBRANCH   2   3
TORSDOF 11
ENDMDL
MODEL      234
REMARK 921   NORMALIZED FREE ENERGY PREDICTED BY IDOCK:   -3.69 KCAL/MOL
REMARK 922        TOTAL FREE ENERGY PREDICTED BY IDOCK:   -7.19 KCAL/MOL
REMARK 923 INTER-LIGAND FREE ENERGY PREDICTED BY IDOCK:   -6.43 KCAL/MOL
REMARK 924 INTRA-LIGAND FREE ENERGY PREDICTED BY IDOCK:   -0.77 KCAL/MOL
REMARK 927      BINDING AFFINITY PREDICTED BY RF-SCORE:    0.00 PKD
ROOT
HETATM    1  C   UNL     1      -9.517  17.160  68.904  1.00  0.00    -0.217 C  
HETATM    2  C   UNL     1      -9.878  15.786  69.452  1.00  0.00    -0.286 C  
ENDROOT
BRANCH   2   3
HETATM    3  N   UNL     1     -11.263  15.398  69.169  1.00  0.00    -0.267 N  
BRANCH   3   4
HETATM    4  C   UNL     1     -12.280  15.695  70.183  1.00  0.00    -0.361 C  
HETATM    5  C   UNL     1     -12.414  14.637  71.263  1.00  0.00    -0.408 C  
ENDBRANCH   3   4
BRANCH   3   6
HETATM    6  C   UNL     1     -11.544  14.964  67.874  1.00  0.00    -0.344 C  
HETATM    7  O   UNL     1     -11.151  15.578  66.883  1.00  0.00    -0.306 OA 
BRANCH   6   8
HETATM    8  N   UNL     1     -12.255  13.780  67.801  1.00  0.00    -0.434 N  
HETATM    9  H   UNL     1     -13.272  13.817  67.751  1.00  0.00     0.000 HD 
BRANCH   8  10
HETATM   10  C   UNL     1     -11.616  12.526  67.795  1.00  0.00    -0.343 A  
HETATM   11  C   UNL     1     -11.926  11.535  68.723  1.00  0.00    -0.335 A  
HETATM   12  C   UNL     1     -11.316  10.280  68.643  1.00  0.00    -0.226 A  
HETATM   13  C   UNL     1     -10.404   9.984  67.621  1.00  0.00    -0.224 A  
HETATM   14  C   UNL     1     -10.656  12.269  66.817  1.00  0.00    -0.251 A  
HETATM   15  C   UNL     1     -10.067  10.996  66.705  1.00  0.00    -0.260 A  
BRANCH  13  16
HETATM   16  O   UNL     1      -9.858   8.742  67.438  1.00  0.00    -0.169 OA 
BRANCH  16  17
HETATM   17  C   UNL     1     -10.755   7.662  67.132  1.00  0.00    -0.290 C  
BRANCH  17  18
HETATM   18  C   UNL     1      -9.965   6.526  66.468  1.00  0.00    -0.092 C  
HETATM   19  H   UNL     1      -8.139   6.274  65.790  1.00  0.00     0.000 HD 
HETATM   20  O   UNL     1      -8.629   6.977  66.201  1.00  0.00    -0.132 OA 
BRANCH  18  21
HETATM   21  C   UNL     1      -9.886   5.248  67.325  1.00  0.00    -0.161 C  
BRANCH  21  22
HETATM   22  N   UNL     1      -8.512   4.831  67.630  1.00  0.00    -0.104 NA 
HETATM   23  C   UNL     1      -8.392   3.550  68.358  1.00  0.00    -0.082 C  
HETATM   24  H   UNL     1      -8.025   5.570  68.137  1.00  0.00     0.000 HD 
HETATM   25  C   UNL     1      -6.894   3.342  68.655  1.00  0.00    -0.045 C  
HETATM   26  C   UNL     1      -8.874   2.364  67.504  1.00  0.00    -0.162 C  
HETATM   27  C   UNL     1      -9.150   3.580  69.695  1.00  0.00    -0.204 C  
ENDBRANCH  21  22
ENDBRANCH  18  21
ENDBRANCH  17  18
ENDBRANCH  16  17
ENDBRANCH  13  16
BRANCH  15  28
HETATM   28  C   UNL     1      -9.173  10.830  65.519  1.00  0.00    -0.202 C  
HETATM   29  O   UNL     1      -7.953  10.927  65.669  1.00  0.00    -0.133 OA 
HETATM   30  C   UNL     1      -9.733  10.491  64.164  1.00  0.00    -0.388 C  
ENDBRANCH  15  28
ENDBRANCH   8  10
ENDBRANCH   6   8
ENDBRANCH   3   6
ENDBRANCH   2   3
TORSDOF 11
ENDMDL
MODEL      235
REMARK 921   NORMALIZED FREE ENERGY PREDICTED BY IDOCK:   -3.69 KCAL/MOL
REMARK 922        TOTAL FREE ENERGY PREDICTED BY IDOCK:   -7.19 KCAL/MOL
REMARK 923 INTER-LIGAND FREE ENERGY PREDICTED BY IDOCK:   -6.07 KCAL/MOL
REMARK 924 INTRA-LIGAND FREE ENERGY PREDICTED BY IDOCK:   -1.13 KCAL/MOL
REMARK 927      BINDING AFFINITY PREDICTED BY RF-SCORE:    0.00 PKD
ROOT
HETATM    1  C   UNL     1     -11.951  15.928  69.306  1.00  0.00    -0.254 C  
HETATM    2  C   UNL     1     -10.582  15.616  68.718  1.00  0.00    -0.238 C  
ENDROOT
BRANCH   2   3
HETATM    3  N   UNL     1     -10.407  16.134  67.358  1.00  0.00    -0.288 N  
BRANCH   3   4
HETATM    4  C   UNL     1      -9.712  17.416  67.196  1.00  0.00    -0.267 C  
HETATM    5  C   UNL     1     -10.634  18.616  67.081  1.00  0.00    -0.468 C  
ENDBRANCH   3   4
BRANCH   3   6
HETATM    6  C   UNL     1     -10.730  15.274  66.308  1.00  0.00    -0.315 C  
HETATM    7  O   UNL     1     -10.480  15.555  65.137  1.00  0.00    -0.393 OA 
BRANCH   6   8
HETATM    8  N   UNL     1     -11.308  14.079  66.696  1.00  0.00    -0.324 N  
HETATM    9  H   UNL     1     -12.255  14.088  67.073  1.00  0.00     0.000 HD 
BRANCH   8  10
HETATM   10  C   UNL     1     -10.629  12.852  66.586  1.00  0.00    -0.261 A  
HETATM   11  C   UNL     1     -10.686  12.078  65.430  1.00  0.00    -0.330 A  
HETATM   12  C   UNL     1      -9.944  10.897  65.335  1.00  0.00    -0.319 A  
HETATM   13  C   UNL     1      -9.114  10.480  66.384  1.00  0.00    -0.162 A  
HETATM   14  C   UNL     1      -9.864  12.411  67.665  1.00  0.00    -0.198 A  
HETATM   15  C   UNL     1      -9.083  11.245  67.564  1.00  0.00    -0.151 A  
BRANCH  13  16
HETATM   16  O   UNL     1      -8.290   9.389  66.303  1.00  0.00    -0.113 OA 
BRANCH  16  17
HETATM   17  C   UNL     1      -8.497   8.484  65.206  1.00  0.00    -0.174 C  
BRANCH  17  18
HETATM   18  C   UNL     1      -8.543   7.047  65.745  1.00  0.00    -0.130 C  
HETATM   19  H   UNL     1      -7.583   5.369  65.398  1.00  0.00     0.000 HD 
HETATM   20  O   UNL     1      -7.555   6.258  65.064  1.00  0.00    -0.078 OA 
BRANCH  18  21
HETATM   21  C   UNL     1      -8.285   6.949  67.261  1.00  0.00    -0.118 C  
BRANCH  21  22
HETATM   22  N   UNL     1      -9.513   6.893  68.062  1.00  0.00    -0.125 NA 
HETATM   23  C   UNL     1      -9.585   5.773  69.024  1.00  0.00    -0.135 C  
HETATM   24  H   UNL     1     -10.331   6.886  67.452  1.00  0.00     0.000 HD 
HETATM   25  C   UNL     1     -10.972   5.844  69.691  1.00  0.00    -0.447 C  
HETATM   26  C   UNL     1      -8.522   5.903  70.128  1.00  0.00    -0.126 C  
HETATM   27  C   UNL     1      -9.454   4.411  68.323  1.00  0.00    -0.210 C  
ENDBRANCH  21  22
ENDBRANCH  18  21
ENDBRANCH  17  18
ENDBRANCH  16  17
ENDBRANCH  13  16
BRANCH  15  28
HETATM   28  C   UNL     1      -8.203  10.985  68.743  1.00  0.00    -0.146 C  
HETATM   29  O   UNL     1      -7.171  11.644  68.878  1.00  0.00    -0.107 OA 
HETATM   30  C   UNL     1      -8.586   9.974  69.792  1.00  0.00    -0.192 C  
ENDBRANCH  15  28
ENDBRANCH   8  10
ENDBRANCH   6   8
ENDBRANCH   3   6
ENDBRANCH   2   3
TORSDOF 11
ENDMDL
MODEL      236
REMARK 921   NORMALIZED FREE ENERGY PREDICTED BY IDOCK:   -3.67 KCAL/MOL
REMARK 922        TOTAL FREE ENERGY PREDICTED BY IDOCK:   -7.16 KCAL/MOL
REMARK 923 INTER-LIGAND FREE ENERGY PREDICTED BY IDOCK:   -6.41 KCAL/MOL
REMARK 924 INTRA-LIGAND FREE ENERGY PREDICTED BY IDOCK:   -0.75 KCAL/MOL
REMARK 927      BINDING AFFINITY PREDICTED BY RF-SCORE:    0.00 PKD
ROOT
HETATM    1  C   UNL     1      -8.342   5.099  67.866  1.00  0.00    -0.097 C  
HETATM    2  C   UNL     1      -8.878   5.213  66.445  1.00  0.00    -0.120 C  
ENDROOT
BRANCH   2   3
HETATM    3  N   UNL     1      -8.023   6.021  65.569  1.00  0.00    -0.109 N  
BRANCH   3   4
HETATM    4  C   UNL     1      -7.341   5.344  64.461  1.00  0.00    -0.063 C  
HETATM    5  C   UNL     1      -8.153   4.240  63.809  1.00  0.00    -0.093 C  
ENDBRANCH   3   4
BRANCH   3   6
HETATM    6  C   UNL     1      -8.085   7.405  65.730  1.00  0.00    -0.129 C  
HETATM    7  O   UNL     1      -7.099   8.068  66.048  1.00  0.00    -0.061 OA 
BRANCH   6   8
HETATM    8  N   UNL     1      -9.322   7.964  65.465  1.00  0.00    -0.380 N  
HETATM    9  H   UNL     1     -10.010   7.418  64.947  1.00  0.00     0.000 HD 
BRANCH   8  10
HETATM   10  C   UNL     1      -9.659   9.262  65.889  1.00  0.00    -0.275 A  
HETATM   11  C   UNL     1      -9.719  10.336  65.004  1.00  0.00    -0.370 A  
HETATM   12  C   UNL     1     -10.121  11.597  65.451  1.00  0.00    -0.299 A  
HETATM   13  C   UNL     1     -10.495  11.804  66.786  1.00  0.00    -0.225 A  
HETATM   14  C   UNL     1      -9.958   9.472  67.235  1.00  0.00    -0.244 A  
HETATM   15  C   UNL     1     -10.402  10.728  67.686  1.00  0.00    -0.236 A  
BRANCH  13  16
HETATM   16  O   UNL     1     -10.993  12.992  67.252  1.00  0.00    -0.255 OA 
BRANCH  16  17
HETATM   17  C   UNL     1     -10.217  14.176  67.010  1.00  0.00    -0.260 C  
BRANCH  17  18
HETATM   18  C   UNL     1     -11.138  15.402  67.084  1.00  0.00    -0.291 C  
HETATM   19  H   UNL     1     -12.002  16.445  68.506  1.00  0.00     0.000 HD 
HETATM   20  O   UNL     1     -11.432  15.686  68.460  1.00  0.00    -0.344 OA 
BRANCH  18  21
HETATM   21  C   UNL     1     -10.533  16.667  66.444  1.00  0.00    -0.266 C  
BRANCH  21  22
HETATM   22  N   UNL     1      -9.107  16.536  66.123  1.00  0.00    -0.379 NA 
HETATM   23  C   UNL     1      -8.210  17.443  66.872  1.00  0.00    -0.231 C  
HETATM   24  H   UNL     1      -8.960  16.647  65.120  1.00  0.00     0.000 HD 
HETATM   25  C   UNL     1      -6.786  17.212  66.330  1.00  0.00    -0.284 C  
HETATM   26  C   UNL     1      -8.202  17.120  68.376  1.00  0.00    -0.253 C  
HETATM   27  C   UNL     1      -8.578  18.919  66.650  1.00  0.00    -0.312 C  
ENDBRANCH  21  22
ENDBRANCH  18  21
ENDBRANCH  17  18
ENDBRANCH  16  17
ENDBRANCH  13  16
BRANCH  15  28
HETATM   28  C   UNL     1     -10.827  10.756  69.119  1.00  0.00    -0.237 C  
HETATM   29  O   UNL     1     -10.075  10.291  69.977  1.00  0.00    -0.227 OA 
HETATM   30  C   UNL     1     -12.127  11.392  69.532  1.00  0.00    -0.370 C  
ENDBRANCH  15  28
ENDBRANCH   8  10
ENDBRANCH   6   8
ENDBRANCH   3   6
ENDBRANCH   2   3
TORSDOF 11
ENDMDL
MODEL      237
REMARK 921   NORMALIZED FREE ENERGY PREDICTED BY IDOCK:   -3.66 KCAL/MOL
REMARK 922        TOTAL FREE ENERGY PREDICTED BY IDOCK:   -7.15 KCAL/MOL
REMARK 923 INTER-LIGAND FREE ENERGY PREDICTED BY IDOCK:   -6.78 KCAL/MOL
REMARK 924 INTRA-LIGAND FREE ENERGY PREDICTED BY IDOCK:   -0.37 KCAL/MOL
REMARK 927      BINDING AFFINITY PREDICTED BY RF-SCORE:    0.00 PKD
ROOT
HETATM    1  C   UNL     1     -11.414  16.200  70.578  1.00  0.00    -0.363 C  
HETATM    2  C   UNL     1     -11.302  15.177  71.701  1.00  0.00    -0.328 C  
ENDROOT
BRANCH   2   3
HETATM    3  N   UNL     1     -12.603  14.763  72.235  1.00  0.00    -0.326 N  
BRANCH   3   4
HETATM    4  C   UNL     1     -13.237  15.622  73.242  1.00  0.00    -0.557 C  
HETATM    5  C   UNL     1     -12.355  15.940  74.435  1.00  0.00    -0.762 C  
ENDBRANCH   3   4
BRANCH   3   6
HETATM    6  C   UNL     1     -13.235  13.695  71.599  1.00  0.00    -0.367 C  
HETATM    7  O   UNL     1     -13.866  12.845  72.227  1.00  0.00    -0.503 OA 
BRANCH   6   8
HETATM    8  N   UNL     1     -13.128  13.696  70.220  1.00  0.00     0.029 N  
HETATM    9  H   UNL     1     -13.663  14.378  69.684  1.00  0.00     0.000 HD 
BRANCH   8  10
HETATM   10  C   UNL     1     -12.303  12.785  69.536  1.00  0.00     0.040 A  
HETATM   11  C   UNL     1     -12.200  11.450  69.920  1.00  0.00    -0.346 A  
HETATM   12  C   UNL     1     -11.420  10.561  69.175  1.00  0.00    -0.314 A  
HETATM   13  C   UNL     1     -10.748  10.983  68.020  1.00  0.00    -0.217 A  
HETATM   14  C   UNL     1     -11.580  13.234  68.431  1.00  0.00    -0.372 A  
HETATM   15  C   UNL     1     -10.825  12.339  67.653  1.00  0.00    -0.262 A  
BRANCH  13  16
HETATM   16  O   UNL     1     -10.056  10.132  67.200  1.00  0.00    -0.189 OA 
BRANCH  16  17
HETATM   17  C   UNL     1      -8.786   9.648  67.666  1.00  0.00    -0.125 C  
BRANCH  17  18
HETATM   18  C   UNL     1      -7.673  10.236  66.789  1.00  0.00    -0.111 C  
HETATM   19  H   UNL     1      -5.789   9.822  66.417  1.00  0.00     0.000 HD 
HETATM   20  O   UNL     1      -6.479   9.458  66.961  1.00  0.00    -0.065 OA 
BRANCH  18  21
HETATM   21  C   UNL     1      -8.022  10.267  65.288  1.00  0.00    -0.148 C  
BRANCH  21  22
HETATM   22  N   UNL     1      -6.974   9.702  64.431  1.00  0.00    -0.112 NA 
HETATM   23  C   UNL     1      -7.393   8.551  63.602  1.00  0.00    -0.106 C  
HETATM   24  H   UNL     1      -6.158   9.452  64.991  1.00  0.00     0.000 HD 
HETATM   25  C   UNL     1      -6.140   8.058  62.854  1.00  0.00    -0.077 C  
HETATM   26  C   UNL     1      -8.441   8.960  62.552  1.00  0.00    -0.207 C  
HETATM   27  C   UNL     1      -7.930   7.395  64.461  1.00  0.00    -0.122 C  
ENDBRANCH  21  22
ENDBRANCH  18  21
ENDBRANCH  17  18
ENDBRANCH  16  17
ENDBRANCH  13  16
BRANCH  15  28
HETATM   28  C   UNL     1     -10.232  12.938  66.419  1.00  0.00    -0.267 C  
HETATM   29  O   UNL     1      -9.419  13.857  66.529  1.00  0.00    -0.276 OA 
HETATM   30  C   UNL     1     -10.570  12.401  65.054  1.00  0.00    -0.330 C  
ENDBRANCH  15  28
ENDBRANCH   8  10
ENDBRANCH   6   8
ENDBRANCH   3   6
ENDBRANCH   2   3
TORSDOF 11
ENDMDL
MODEL      238
REMARK 921   NORMALIZED FREE ENERGY PREDICTED BY IDOCK:   -3.65 KCAL/MOL
REMARK 922        TOTAL FREE ENERGY PREDICTED BY IDOCK:   -7.13 KCAL/MOL
REMARK 923 INTER-LIGAND FREE ENERGY PREDICTED BY IDOCK:   -6.02 KCAL/MOL
REMARK 924 INTRA-LIGAND FREE ENERGY PREDICTED BY IDOCK:   -1.11 KCAL/MOL
REMARK 927      BINDING AFFINITY PREDICTED BY RF-SCORE:    0.00 PKD
ROOT
HETATM    1  C   UNL     1     -10.472  11.070  63.418  1.00  0.00    -0.320 C  
HETATM    2  C   UNL     1     -11.241  12.335  63.772  1.00  0.00    -0.440 C  
ENDROOT
BRANCH   2   3
HETATM    3  N   UNL     1     -11.093  12.726  65.177  1.00  0.00    -0.285 N  
BRANCH   3   4
HETATM    4  C   UNL     1     -11.474  14.091  65.554  1.00  0.00    -0.318 C  
HETATM    5  C   UNL     1     -10.462  15.152  65.163  1.00  0.00    -0.437 C  
ENDBRANCH   3   4
BRANCH   3   6
HETATM    6  C   UNL     1     -10.797  11.710  66.086  1.00  0.00    -0.294 C  
HETATM    7  O   UNL     1     -11.671  11.160  66.754  1.00  0.00    -0.349 OA 
BRANCH   6   8
HETATM    8  N   UNL     1      -9.462  11.352  66.140  1.00  0.00    -0.210 N  
HETATM    9  H   UNL     1      -8.839  11.653  65.391  1.00  0.00     0.000 HD 
BRANCH   8  10
HETATM   10  C   UNL     1      -8.938  10.586  67.197  1.00  0.00    -0.140 A  
HETATM   11  C   UNL     1      -8.468  11.171  68.371  1.00  0.00    -0.151 A  
HETATM   12  C   UNL     1      -8.016  10.371  69.424  1.00  0.00    -0.161 A  
HETATM   13  C   UNL     1      -8.046   8.973  69.334  1.00  0.00    -0.108 A  
HETATM   14  C   UNL     1      -8.905   9.198  67.066  1.00  0.00    -0.135 A  
HETATM   15  C   UNL     1      -8.488   8.385  68.135  1.00  0.00    -0.132 A  
BRANCH  13  16
HETATM   16  O   UNL     1      -7.712   8.145  70.372  1.00  0.00    -0.080 OA 
BRANCH  16  17
HETATM   17  C   UNL     1      -7.201   8.756  71.568  1.00  0.00    -0.088 C  
BRANCH  17  18
HETATM   18  C   UNL     1      -7.921   8.156  72.784  1.00  0.00    -0.155 C  
HETATM   19  H   UNL     1      -7.848   8.385  74.733  1.00  0.00     0.000 HD 
HETATM   20  O   UNL     1      -7.402   8.756  73.980  1.00  0.00    -0.392 OA 
BRANCH  18  21
HETATM   21  C   UNL     1      -9.448   8.359  72.759  1.00  0.00    -0.242 C  
BRANCH  21  22
HETATM   22  N   UNL     1     -10.155   7.389  71.914  1.00  0.00    -0.178 NA 
HETATM   23  C   UNL     1     -11.479   7.830  71.426  1.00  0.00    -0.260 C  
HETATM   24  H   UNL     1     -10.238   6.495  72.399  1.00  0.00     0.000 HD 
HETATM   25  C   UNL     1     -12.083   6.648  70.643  1.00  0.00    -0.342 C  
HETATM   26  C   UNL     1     -11.361   9.024  70.463  1.00  0.00    -0.282 C  
HETATM   27  C   UNL     1     -12.427   8.177  72.585  1.00  0.00    -0.168 C  
ENDBRANCH  21  22
ENDBRANCH  18  21
ENDBRANCH  17  18
ENDBRANCH  16  17
ENDBRANCH  13  16
BRANCH  15  28
HETATM   28  C   UNL     1      -8.652   6.918  67.898  1.00  0.00    -0.122 C  
HETATM   29  O   UNL     1      -9.357   6.261  68.666  1.00  0.00    -0.124 OA 
HETATM   30  C   UNL     1      -8.017   6.247  66.709  1.00  0.00    -0.108 C  
ENDBRANCH  15  28
ENDBRANCH   8  10
ENDBRANCH   6   8
ENDBRANCH   3   6
ENDBRANCH   2   3
TORSDOF 11
ENDMDL
MODEL      239
REMARK 921   NORMALIZED FREE ENERGY PREDICTED BY IDOCK:   -3.64 KCAL/MOL
REMARK 922        TOTAL FREE ENERGY PREDICTED BY IDOCK:   -7.11 KCAL/MOL
REMARK 923 INTER-LIGAND FREE ENERGY PREDICTED BY IDOCK:   -6.12 KCAL/MOL
REMARK 924 INTRA-LIGAND FREE ENERGY PREDICTED BY IDOCK:   -1.00 KCAL/MOL
REMARK 927      BINDING AFFINITY PREDICTED BY RF-SCORE:    0.00 PKD
ROOT
HETATM    1  C   UNL     1      -8.795   2.697  67.352  1.00  0.00    -0.163 C  
HETATM    2  C   UNL     1      -7.988   3.748  68.101  1.00  0.00    -0.072 C  
ENDROOT
BRANCH   2   3
HETATM    3  N   UNL     1      -8.314   3.816  69.529  1.00  0.00    -0.056 N  
BRANCH   3   4
HETATM    4  C   UNL     1      -9.546   3.162  69.983  1.00  0.00    -0.092 C  
HETATM    5  C   UNL     1      -9.329   2.062  71.005  1.00  0.00    -0.200 C  
ENDBRANCH   3   4
BRANCH   3   6
HETATM    6  C   UNL     1      -7.328   4.318  70.378  1.00  0.00    -0.045 C  
HETATM    7  O   UNL     1      -6.180   3.875  70.374  1.00  0.00    -0.021 OA 
BRANCH   6   8
HETATM    8  N   UNL     1      -7.734   5.367  71.182  1.00  0.00    -0.100 N  
HETATM    9  H   UNL     1      -7.526   5.334  72.180  1.00  0.00     0.000 HD 
BRANCH   8  10
HETATM   10  C   UNL     1      -8.426   6.477  70.665  1.00  0.00    -0.134 A  
HETATM   11  C   UNL     1      -7.886   7.285  69.667  1.00  0.00    -0.118 A  
HETATM   12  C   UNL     1      -8.632   8.340  69.134  1.00  0.00    -0.138 A  
HETATM   13  C   UNL     1      -9.940   8.593  69.570  1.00  0.00    -0.196 A  
HETATM   14  C   UNL     1      -9.699   6.763  71.160  1.00  0.00    -0.181 A  
HETATM   15  C   UNL     1     -10.471   7.797  70.601  1.00  0.00    -0.213 A  
BRANCH  13  16
HETATM   16  O   UNL     1     -10.748   9.545  69.010  1.00  0.00    -0.222 OA 
BRANCH  16  17
HETATM   17  C   UNL     1     -10.250  10.892  68.962  1.00  0.00    -0.203 C  
BRANCH  17  18
HETATM   18  C   UNL     1     -11.349  11.814  68.417  1.00  0.00    -0.270 C  
HETATM   19  H   UNL     1     -12.632  13.095  69.173  1.00  0.00     0.000 HD 
HETATM   20  O   UNL     1     -11.951  12.524  69.510  1.00  0.00    -0.303 OA 
BRANCH  18  21
HETATM   21  C   UNL     1     -10.837  12.844  67.391  1.00  0.00    -0.251 C  
BRANCH  21  22
HETATM   22  N   UNL     1     -10.885  12.363  66.005  1.00  0.00    -0.265 NA 
HETATM   23  C   UNL     1     -11.427  13.329  65.025  1.00  0.00    -0.305 C  
HETATM   24  H   UNL     1     -11.401  11.484  65.955  1.00  0.00     0.000 HD 
HETATM   25  C   UNL     1     -11.475  12.607  63.665  1.00  0.00    -0.563 C  
HETATM   26  C   UNL     1     -10.516  14.560  64.876  1.00  0.00    -0.435 C  
HETATM   27  C   UNL     1     -12.855  13.769  65.388  1.00  0.00    -0.455 C  
ENDBRANCH  21  22
ENDBRANCH  18  21
ENDBRANCH  17  18
ENDBRANCH  16  17
ENDBRANCH  13  16
BRANCH  15  28
HETATM   28  C   UNL     1     -11.866   7.884  71.132  1.00  0.00    -0.287 C  
HETATM   29  O   UNL     1     -12.632   6.934  70.963  1.00  0.00    -0.374 OA 
HETATM   30  C   UNL     1     -12.328   9.085  71.913  1.00  0.00    -0.455 C  
ENDBRANCH  15  28
ENDBRANCH   8  10
ENDBRANCH   6   8
ENDBRANCH   3   6
ENDBRANCH   2   3
TORSDOF 11
ENDMDL
MODEL      240
REMARK 921   NORMALIZED FREE ENERGY PREDICTED BY IDOCK:   -3.64 KCAL/MOL
REMARK 922        TOTAL FREE ENERGY PREDICTED BY IDOCK:   -7.11 KCAL/MOL
REMARK 923 INTER-LIGAND FREE ENERGY PREDICTED BY IDOCK:   -6.29 KCAL/MOL
REMARK 924 INTRA-LIGAND FREE ENERGY PREDICTED BY IDOCK:   -0.82 KCAL/MOL
REMARK 927      BINDING AFFINITY PREDICTED BY RF-SCORE:    0.00 PKD
ROOT
HETATM    1  C   UNL     1      -8.095   5.376  73.074  1.00  0.00    -0.105 C  
HETATM    2  C   UNL     1      -7.758   6.773  72.573  1.00  0.00    -0.096 C  
ENDROOT
BRANCH   2   3
HETATM    3  N   UNL     1      -8.215   7.021  71.202  1.00  0.00    -0.113 N  
BRANCH   3   4
HETATM    4  C   UNL     1      -8.696   5.876  70.422  1.00  0.00    -0.139 C  
HETATM    5  C   UNL     1      -7.665   5.285  69.478  1.00  0.00    -0.073 C  
ENDBRANCH   3   4
BRANCH   3   6
HETATM    6  C   UNL     1      -8.350   8.354  70.814  1.00  0.00    -0.130 C  
HETATM    7  O   UNL     1      -7.965   9.280  71.525  1.00  0.00    -0.334 OA 
BRANCH   6   8
HETATM    8  N   UNL     1      -8.907   8.539  69.562  1.00  0.00    -0.139 N  
HETATM    9  H   UNL     1      -9.342   7.745  69.092  1.00  0.00     0.000 HD 
BRANCH   8  10
HETATM   10  C   UNL     1      -8.893   9.788  68.916  1.00  0.00    -0.140 A  
HETATM   11  C   UNL     1      -7.784  10.238  68.202  1.00  0.00    -0.092 A  
HETATM   12  C   UNL     1      -7.832  11.457  67.520  1.00  0.00    -0.126 A  
HETATM   13  C   UNL     1      -8.995  12.238  67.519  1.00  0.00    -0.180 A  
HETATM   14  C   UNL     1     -10.031  10.591  68.984  1.00  0.00    -0.223 A  
HETATM   15  C   UNL     1     -10.102  11.800  68.268  1.00  0.00    -0.199 A  
BRANCH  13  16
HETATM   16  O   UNL     1      -9.129  13.387  66.786  1.00  0.00    -0.242 OA 
BRANCH  16  17
HETATM   17  C   UNL     1      -8.548  14.587  67.322  1.00  0.00    -0.215 C  
BRANCH  17  18
HETATM   18  C   UNL     1      -8.787  15.741  66.339  1.00  0.00    -0.336 C  
HETATM   19  H   UNL     1      -9.823  16.014  64.693  1.00  0.00     0.000 HD 
HETATM   20  O   UNL     1      -9.675  15.299  65.302  1.00  0.00    -0.271 OA 
BRANCH  18  21
HETATM   21  C   UNL     1      -9.392  16.996  66.998  1.00  0.00    -0.241 C  
BRANCH  21  22
HETATM   22  N   UNL     1      -8.521  17.605  68.010  1.00  0.00    -0.238 NA 
HETATM   23  C   UNL     1      -8.396  19.076  67.926  1.00  0.00    -0.288 C  
HETATM   24  H   UNL     1      -7.597  17.172  67.985  1.00  0.00     0.000 HD 
HETATM   25  C   UNL     1      -7.381  19.501  69.006  1.00  0.00    -0.392 C  
HETATM   26  C   UNL     1      -9.731  19.778  68.230  1.00  0.00    -0.499 C  
HETATM   27  C   UNL     1      -7.861  19.526  66.557  1.00  0.00    -0.305 C  
ENDBRANCH  21  22
ENDBRANCH  18  21
ENDBRANCH  17  18
ENDBRANCH  16  17
ENDBRANCH  13  16
BRANCH  15  28
HETATM   28  C   UNL     1     -11.437  12.471  68.317  1.00  0.00    -0.308 C  
HETATM   29  O   UNL     1     -12.217  12.324  67.374  1.00  0.00    -0.478 OA 
HETATM   30  C   UNL     1     -11.861  13.273  69.518  1.00  0.00    -0.388 C  
ENDBRANCH  15  28
ENDBRANCH   8  10
ENDBRANCH   6   8
ENDBRANCH   3   6
ENDBRANCH   2   3
TORSDOF 11
ENDMDL
MODEL      241
REMARK 921   NORMALIZED FREE ENERGY PREDICTED BY IDOCK:   -3.62 KCAL/MOL
REMARK 922        TOTAL FREE ENERGY PREDICTED BY IDOCK:   -7.09 KCAL/MOL
REMARK 923 INTER-LIGAND FREE ENERGY PREDICTED BY IDOCK:   -6.17 KCAL/MOL
REMARK 924 INTRA-LIGAND FREE ENERGY PREDICTED BY IDOCK:   -0.92 KCAL/MOL
REMARK 927      BINDING AFFINITY PREDICTED BY RF-SCORE:    0.00 PKD
ROOT
HETATM    1  C   UNL     1     -11.792  13.252  63.969  1.00  0.00    -0.512 C  
HETATM    2  C   UNL     1     -10.531  13.571  64.759  1.00  0.00    -0.413 C  
ENDROOT
BRANCH   2   3
HETATM    3  N   UNL     1     -10.673  13.323  66.198  1.00  0.00    -0.277 N  
BRANCH   3   4
HETATM    4  C   UNL     1     -10.649  14.480  67.099  1.00  0.00    -0.274 C  
HETATM    5  C   UNL     1     -10.378  14.135  68.551  1.00  0.00    -0.249 C  
ENDBRANCH   3   4
BRANCH   3   6
HETATM    6  C   UNL     1     -11.026  12.030  66.583  1.00  0.00    -0.287 C  
HETATM    7  O   UNL     1     -12.165  11.751  66.954  1.00  0.00    -0.391 OA 
BRANCH   6   8
HETATM    8  N   UNL     1     -10.012  11.096  66.473  1.00  0.00    -0.207 N  
HETATM    9  H   UNL     1      -9.179  11.332  65.936  1.00  0.00     0.000 HD 
BRANCH   8  10
HETATM   10  C   UNL     1     -10.098   9.830  67.080  1.00  0.00    -0.218 A  
HETATM   11  C   UNL     1      -9.943   8.651  66.354  1.00  0.00    -0.331 A  
HETATM   12  C   UNL     1      -9.969   7.414  67.005  1.00  0.00    -0.301 A  
HETATM   13  C   UNL     1     -10.126   7.333  68.395  1.00  0.00    -0.171 A  
HETATM   14  C   UNL     1     -10.328   9.759  68.454  1.00  0.00    -0.230 A  
HETATM   15  C   UNL     1     -10.316   8.521  69.122  1.00  0.00    -0.227 A  
BRANCH  13  16
HETATM   16  O   UNL     1     -10.056   6.156  69.092  1.00  0.00    -0.152 OA 
BRANCH  16  17
HETATM   17  C   UNL     1      -8.835   5.404  69.002  1.00  0.00    -0.100 C  
BRANCH  17  18
HETATM   18  C   UNL     1      -9.168   3.946  68.661  1.00  0.00    -0.151 C  
HETATM   19  H   UNL     1      -8.245   2.442  67.798  1.00  0.00     0.000 HD 
HETATM   20  O   UNL     1      -8.039   3.346  68.008  1.00  0.00    -0.077 OA 
BRANCH  18  21
HETATM   21  C   UNL     1      -9.529   3.092  69.892  1.00  0.00    -0.133 C  
BRANCH  21  22
HETATM   22  N   UNL     1      -8.607   3.272  71.020  1.00  0.00    -0.069 NA 
HETATM   23  C   UNL     1      -9.247   3.316  72.352  1.00  0.00    -0.103 C  
HETATM   24  H   UNL     1      -8.035   4.104  70.878  1.00  0.00     0.000 HD 
HETATM   25  C   UNL     1      -8.130   3.596  73.377  1.00  0.00    -0.079 C  
HETATM   26  C   UNL     1      -9.896   1.969  72.717  1.00  0.00    -0.171 C  
HETATM   27  C   UNL     1     -10.286   4.445  72.449  1.00  0.00    -0.255 C  
ENDBRANCH  21  22
ENDBRANCH  18  21
ENDBRANCH  17  18
ENDBRANCH  16  17
ENDBRANCH  13  16
BRANCH  15  28
HETATM   28  C   UNL     1     -10.425   8.620  70.610  1.00  0.00    -0.204 C  
HETATM   29  O   UNL     1     -11.542   8.670  71.127  1.00  0.00    -0.267 OA 
HETATM   30  C   UNL     1      -9.199   8.603  71.483  1.00  0.00    -0.316 C  
ENDBRANCH  15  28
ENDBRANCH   8  10
ENDBRANCH   6   8
ENDBRANCH   3   6
ENDBRANCH   2   3
TORSDOF 11
ENDMDL
MODEL      242
REMARK 921   NORMALIZED FREE ENERGY PREDICTED BY IDOCK:   -3.61 KCAL/MOL
REMARK 922        TOTAL FREE ENERGY PREDICTED BY IDOCK:   -7.06 KCAL/MOL
REMARK 923 INTER-LIGAND FREE ENERGY PREDICTED BY IDOCK:   -5.97 KCAL/MOL
REMARK 924 INTRA-LIGAND FREE ENERGY PREDICTED BY IDOCK:   -1.09 KCAL/MOL
REMARK 927      BINDING AFFINITY PREDICTED BY RF-SCORE:    0.00 PKD
ROOT
HETATM    1  C   UNL     1     -10.436   5.430  71.033  1.00  0.00    -0.302 C  
HETATM    2  C   UNL     1     -10.827   5.834  69.618  1.00  0.00    -0.348 C  
ENDROOT
BRANCH   2   3
HETATM    3  N   UNL     1      -9.881   5.362  68.601  1.00  0.00    -0.138 N  
BRANCH   3   4
HETATM    4  C   UNL     1      -9.109   4.149  68.893  1.00  0.00    -0.129 C  
HETATM    5  C   UNL     1      -9.205   3.076  67.825  1.00  0.00    -0.244 C  
ENDBRANCH   3   4
BRANCH   3   6
HETATM    6  C   UNL     1      -9.936   5.981  67.353  1.00  0.00    -0.141 C  
HETATM    7  O   UNL     1     -10.928   5.900  66.630  1.00  0.00    -0.287 OA 
BRANCH   6   8
HETATM    8  N   UNL     1      -8.812   6.716  67.021  1.00  0.00    -0.112 N  
HETATM    9  H   UNL     1      -8.023   6.242  66.583  1.00  0.00     0.000 HD 
BRANCH   8  10
HETATM   10  C   UNL     1      -8.726   8.098  67.269  1.00  0.00    -0.124 A  
HETATM   11  C   UNL     1      -7.593   8.839  66.940  1.00  0.00    -0.090 A  
HETATM   12  C   UNL     1      -7.571  10.221  67.142  1.00  0.00    -0.092 A  
HETATM   13  C   UNL     1      -8.689  10.894  67.655  1.00  0.00    -0.127 A  
HETATM   14  C   UNL     1      -9.818   8.744  67.848  1.00  0.00    -0.207 A  
HETATM   15  C   UNL     1      -9.820  10.141  68.018  1.00  0.00    -0.169 A  
BRANCH  13  16
HETATM   16  O   UNL     1      -8.756  12.256  67.776  1.00  0.00    -0.157 OA 
BRANCH  16  17
HETATM   17  C   UNL     1      -7.825  12.889  68.668  1.00  0.00    -0.044 C  
BRANCH  17  18
HETATM   18  C   UNL     1      -7.301  14.175  68.015  1.00  0.00    -0.140 C  
HETATM   19  H   UNL     1      -5.775  14.673  66.883  1.00  0.00     0.000 HD 
HETATM   20  O   UNL     1      -6.100  13.877  67.287  1.00  0.00    -0.314 OA 
BRANCH  18  21
HETATM   21  C   UNL     1      -8.306  14.830  67.049  1.00  0.00    -0.198 C  
BRANCH  21  22
HETATM   22  N   UNL     1      -8.962  16.020  67.603  1.00  0.00    -0.189 NA 
HETATM   23  C   UNL     1     -10.366  16.216  67.183  1.00  0.00    -0.291 C  
HETATM   24  H   UNL     1      -8.413  16.854  67.394  1.00  0.00     0.000 HD 
HETATM   25  C   UNL     1     -10.834  17.550  67.795  1.00  0.00    -0.251 C  
HETATM   26  C   UNL     1     -11.281  15.102  67.720  1.00  0.00    -0.327 C  
HETATM   27  C   UNL     1     -10.495  16.314  65.654  1.00  0.00    -0.386 C  
ENDBRANCH  21  22
ENDBRANCH  18  21
ENDBRANCH  17  18
ENDBRANCH  16  17
ENDBRANCH  13  16
BRANCH  15  28
HETATM   28  C   UNL     1     -11.115  10.703  68.508  1.00  0.00    -0.263 C  
HETATM   29  O   UNL     1     -12.014  10.933  67.698  1.00  0.00    -0.512 OA 
HETATM   30  C   UNL     1     -11.355  10.939  69.975  1.00  0.00    -0.386 C  
ENDBRANCH  15  28
ENDBRANCH   8  10
ENDBRANCH   6   8
ENDBRANCH   3   6
ENDBRANCH   2   3
TORSDOF 11
ENDMDL
MODEL      243
REMARK 921   NORMALIZED FREE ENERGY PREDICTED BY IDOCK:   -3.60 KCAL/MOL
REMARK 922        TOTAL FREE ENERGY PREDICTED BY IDOCK:   -7.05 KCAL/MOL
REMARK 923 INTER-LIGAND FREE ENERGY PREDICTED BY IDOCK:   -6.69 KCAL/MOL
REMARK 924 INTRA-LIGAND FREE ENERGY PREDICTED BY IDOCK:   -0.36 KCAL/MOL
REMARK 927      BINDING AFFINITY PREDICTED BY RF-SCORE:    0.00 PKD
ROOT
HETATM    1  C   UNL     1      -5.333  16.797  70.247  1.00  0.00    -0.209 C  
HETATM    2  C   UNL     1      -6.312  15.638  70.120  1.00  0.00    -0.056 C  
ENDROOT
BRANCH   2   3
HETATM    3  N   UNL     1      -5.908  14.650  69.114  1.00  0.00    -0.097 N  
BRANCH   3   4
HETATM    4  C   UNL     1      -5.141  13.484  69.565  1.00  0.00    -0.083 C  
HETATM    5  C   UNL     1      -5.453  13.043  70.983  1.00  0.00    -0.188 C  
ENDBRANCH   3   4
BRANCH   3   6
HETATM    6  C   UNL     1      -6.459  14.787  67.840  1.00  0.00    -0.162 C  
HETATM    7  O   UNL     1      -6.398  15.846  67.216  1.00  0.00    -0.212 OA 
BRANCH   6   8
HETATM    8  N   UNL     1      -7.033  13.637  67.330  1.00  0.00    -0.303 N  
HETATM    9  H   UNL     1      -6.541  13.121  66.601  1.00  0.00     0.000 HD 
BRANCH   8  10
HETATM   10  C   UNL     1      -8.274  13.159  67.786  1.00  0.00    -0.168 A  
HETATM   11  C   UNL     1      -9.247  14.009  68.308  1.00  0.00    -0.200 A  
HETATM   12  C   UNL     1     -10.493  13.504  68.690  1.00  0.00    -0.242 A  
HETATM   13  C   UNL     1     -10.799  12.145  68.536  1.00  0.00    -0.236 A  
HETATM   14  C   UNL     1      -8.541  11.793  67.696  1.00  0.00    -0.153 A  
HETATM   15  C   UNL     1      -9.805  11.283  68.040  1.00  0.00    -0.186 A  
BRANCH  13  16
HETATM   16  O   UNL     1     -12.036  11.619  68.798  1.00  0.00    -0.402 OA 
BRANCH  16  17
HETATM   17  C   UNL     1     -12.181  10.828  69.988  1.00  0.00    -0.334 C  
BRANCH  17  18
HETATM   18  C   UNL     1     -12.992  11.621  71.021  1.00  0.00    -0.135 C  
HETATM   19  H   UNL     1     -13.265  11.557  72.965  1.00  0.00     0.000 HD 
HETATM   20  O   UNL     1     -12.763  11.066  72.325  1.00  0.00    -0.086 OA 
BRANCH  18  21
HETATM   21  C   UNL     1     -12.642  13.120  71.061  1.00  0.00    -0.312 C  
BRANCH  21  22
HETATM   22  N   UNL     1     -12.629  13.683  72.417  1.00  0.00    -0.062 NA 
HETATM   23  C   UNL     1     -12.928  15.129  72.499  1.00  0.00    -0.379 C  
HETATM   24  H   UNL     1     -11.738  13.482  72.872  1.00  0.00     0.000 HD 
HETATM   25  C   UNL     1     -12.778  15.534  73.978  1.00  0.00    -0.689 C  
HETATM   26  C   UNL     1     -14.374  15.435  72.069  1.00  0.00    -0.653 C  
HETATM   27  C   UNL     1     -11.942  15.964  71.666  1.00  0.00    -0.553 C  
ENDBRANCH  21  22
ENDBRANCH  18  21
ENDBRANCH  17  18
ENDBRANCH  16  17
ENDBRANCH  13  16
BRANCH  15  28
HETATM   28  C   UNL     1      -9.987   9.828  67.747  1.00  0.00    -0.168 C  
HETATM   29  O   UNL     1     -10.194   9.472  66.586  1.00  0.00    -0.242 OA 
HETATM   30  C   UNL     1      -9.866   8.794  68.834  1.00  0.00    -0.183 C  
ENDBRANCH  15  28
ENDBRANCH   8  10
ENDBRANCH   6   8
ENDBRANCH   3   6
ENDBRANCH   2   3
TORSDOF 11
ENDMDL
MODEL      244
REMARK 921   NORMALIZED FREE ENERGY PREDICTED BY IDOCK:   -3.60 KCAL/MOL
REMARK 922        TOTAL FREE ENERGY PREDICTED BY IDOCK:   -7.04 KCAL/MOL
REMARK 923 INTER-LIGAND FREE ENERGY PREDICTED BY IDOCK:   -5.98 KCAL/MOL
REMARK 924 INTRA-LIGAND FREE ENERGY PREDICTED BY IDOCK:   -1.06 KCAL/MOL
REMARK 927      BINDING AFFINITY PREDICTED BY RF-SCORE:    0.00 PKD
ROOT
HETATM    1  C   UNL     1     -10.450  19.512  68.043  1.00  0.00    -0.528 C  
HETATM    2  C   UNL     1     -10.615  18.199  67.290  1.00  0.00    -0.367 C  
ENDROOT
BRANCH   2   3
HETATM    3  N   UNL     1      -9.993  17.060  67.974  1.00  0.00    -0.272 N  
BRANCH   3   4
HETATM    4  C   UNL     1      -8.535  16.922  67.890  1.00  0.00    -0.203 C  
HETATM    5  C   UNL     1      -8.053  15.495  67.712  1.00  0.00    -0.153 C  
ENDBRANCH   3   4
BRANCH   3   6
HETATM    6  C   UNL     1     -10.810  16.312  68.822  1.00  0.00    -0.317 C  
HETATM    7  O   UNL     1     -10.845  16.515  70.035  1.00  0.00    -0.344 OA 
BRANCH   6   8
HETATM    8  N   UNL     1     -11.594  15.367  68.186  1.00  0.00    -0.346 N  
HETATM    9  H   UNL     1     -12.536  15.624  67.892  1.00  0.00     0.000 HD 
BRANCH   8  10
HETATM   10  C   UNL     1     -11.131  14.063  67.934  1.00  0.00    -0.255 A  
HETATM   11  C   UNL     1     -10.979  13.124  68.951  1.00  0.00    -0.270 A  
HETATM   12  C   UNL     1     -10.580  11.819  68.651  1.00  0.00    -0.250 A  
HETATM   13  C   UNL     1     -10.347  11.421  67.328  1.00  0.00    -0.198 A  
HETATM   14  C   UNL     1     -10.833  13.700  66.621  1.00  0.00    -0.283 A  
HETATM   15  C   UNL     1     -10.468  12.379  66.305  1.00  0.00    -0.271 A  
BRANCH  13  16
HETATM   16  O   UNL     1     -10.055  10.132  66.970  1.00  0.00    -0.203 OA 
BRANCH  16  17
HETATM   17  C   UNL     1      -9.669   9.226  68.016  1.00  0.00    -0.150 C  
BRANCH  17  18
HETATM   18  C   UNL     1      -8.448   8.418  67.555  1.00  0.00    -0.129 C  
HETATM   19  H   UNL     1      -8.097   6.566  67.003  1.00  0.00     0.000 HD 
HETATM   20  O   UNL     1      -8.853   7.066  67.289  1.00  0.00    -0.119 OA 
BRANCH  18  21
HETATM   21  C   UNL     1      -7.778   8.984  66.288  1.00  0.00    -0.095 C  
BRANCH  21  22
HETATM   22  N   UNL     1      -7.809   8.061  65.147  1.00  0.00    -0.109 NA 
HETATM   23  C   UNL     1      -6.487   7.726  64.576  1.00  0.00    -0.048 C  
HETATM   24  H   UNL     1      -8.425   8.423  64.418  1.00  0.00     0.000 HD 
HETATM   25  C   UNL     1      -6.744   6.829  63.349  1.00  0.00    -0.043 C  
HETATM   26  C   UNL     1      -5.623   6.931  65.570  1.00  0.00    -0.031 C  
HETATM   27  C   UNL     1      -5.733   8.981  64.106  1.00  0.00    -0.069 C  
ENDBRANCH  21  22
ENDBRANCH  18  21
ENDBRANCH  17  18
ENDBRANCH  16  17
ENDBRANCH  13  16
BRANCH  15  28
HETATM   28  C   UNL     1     -10.328  12.108  64.842  1.00  0.00    -0.289 C  
HETATM   29  O   UNL     1      -9.340  11.493  64.438  1.00  0.00    -0.138 OA 
HETATM   30  C   UNL     1     -11.398  12.524  63.868  1.00  0.00    -0.504 C  
ENDBRANCH  15  28
ENDBRANCH   8  10
ENDBRANCH   6   8
ENDBRANCH   3   6
ENDBRANCH   2   3
TORSDOF 11
ENDMDL
MODEL      245
REMARK 921   NORMALIZED FREE ENERGY PREDICTED BY IDOCK:   -3.59 KCAL/MOL
REMARK 922        TOTAL FREE ENERGY PREDICTED BY IDOCK:   -7.03 KCAL/MOL
REMARK 923 INTER-LIGAND FREE ENERGY PREDICTED BY IDOCK:   -5.15 KCAL/MOL
REMARK 924 INTRA-LIGAND FREE ENERGY PREDICTED BY IDOCK:   -1.88 KCAL/MOL
REMARK 927      BINDING AFFINITY PREDICTED BY RF-SCORE:    0.00 PKD
ROOT
HETATM    1  C   UNL     1      -9.674  10.472  62.968  1.00  0.00    -0.337 C  
HETATM    2  C   UNL     1      -9.960  10.516  64.462  1.00  0.00    -0.345 C  
ENDROOT
BRANCH   2   3
HETATM    3  N   UNL     1     -10.750  11.684  64.864  1.00  0.00    -0.287 N  
BRANCH   3   4
HETATM    4  C   UNL     1     -11.921  12.033  64.051  1.00  0.00    -0.403 C  
HETATM    5  C   UNL     1     -12.069  13.518  63.775  1.00  0.00    -0.482 C  
ENDBRANCH   3   4
BRANCH   3   6
HETATM    6  C   UNL     1     -10.452  12.252  66.102  1.00  0.00    -0.240 C  
HETATM    7  O   UNL     1      -9.759  13.264  66.203  1.00  0.00    -0.281 OA 
BRANCH   6   8
HETATM    8  N   UNL     1     -11.026  11.614  67.186  1.00  0.00    -0.264 N  
HETATM    9  H   UNL     1     -12.004  11.800  67.407  1.00  0.00     0.000 HD 
BRANCH   8  10
HETATM   10  C   UNL     1     -10.303  10.716  67.992  1.00  0.00    -0.178 A  
HETATM   11  C   UNL     1      -9.075  11.055  68.555  1.00  0.00    -0.173 A  
HETATM   12  C   UNL     1      -8.418  10.159  69.404  1.00  0.00    -0.179 A  
HETATM   13  C   UNL     1      -8.986   8.919  69.724  1.00  0.00    -0.149 A  
HETATM   14  C   UNL     1     -10.844   9.456  68.244  1.00  0.00    -0.163 A  
HETATM   15  C   UNL     1     -10.210   8.565  69.128  1.00  0.00    -0.218 A  
BRANCH  13  16
HETATM   16  O   UNL     1      -8.435   8.051  70.628  1.00  0.00    -0.120 OA 
BRANCH  16  17
HETATM   17  C   UNL     1      -7.008   7.885  70.602  1.00  0.00    -0.041 C  
BRANCH  17  18
HETATM   18  C   UNL     1      -6.675   6.489  70.058  1.00  0.00    -0.049 C  
HETATM   19  H   UNL     1      -7.674   4.848  69.651  1.00  0.00     0.000 HD 
HETATM   20  O   UNL     1      -7.880   5.712  69.989  1.00  0.00    -0.086 OA 
BRANCH  18  21
HETATM   21  C   UNL     1      -6.029   6.512  68.659  1.00  0.00    -0.021 C  
BRANCH  21  22
HETATM   22  N   UNL     1      -6.198   7.788  67.956  1.00  0.00    -0.044 NA 
HETATM   23  C   UNL     1      -6.666   7.677  66.558  1.00  0.00    -0.058 C  
HETATM   24  H   UNL     1      -5.334   8.329  67.995  1.00  0.00     0.000 HD 
HETATM   25  C   UNL     1      -6.692   9.105  65.979  1.00  0.00    -0.076 C  
HETATM   26  C   UNL     1      -8.094   7.109  66.480  1.00  0.00    -0.114 C  
HETATM   27  C   UNL     1      -5.712   6.827  65.703  1.00  0.00    -0.030 C  
ENDBRANCH  21  22
ENDBRANCH  18  21
ENDBRANCH  17  18
ENDBRANCH  16  17
ENDBRANCH  13  16
BRANCH  15  28
HETATM   28  C   UNL     1     -10.985   7.319  69.415  1.00  0.00    -0.136 C  
HETATM   29  O   UNL     1     -11.579   7.216  70.490  1.00  0.00    -0.301 OA 
HETATM   30  C   UNL     1     -11.097   6.220  68.392  1.00  0.00    -0.371 C  
ENDBRANCH  15  28
ENDBRANCH   8  10
ENDBRANCH   6   8
ENDBRANCH   3   6
ENDBRANCH   2   3
TORSDOF 11
ENDMDL
MODEL      246
REMARK 921   NORMALIZED FREE ENERGY PREDICTED BY IDOCK:   -3.59 KCAL/MOL
REMARK 922        TOTAL FREE ENERGY PREDICTED BY IDOCK:   -7.02 KCAL/MOL
REMARK 923 INTER-LIGAND FREE ENERGY PREDICTED BY IDOCK:   -5.35 KCAL/MOL
REMARK 924 INTRA-LIGAND FREE ENERGY PREDICTED BY IDOCK:   -1.68 KCAL/MOL
REMARK 927      BINDING AFFINITY PREDICTED BY RF-SCORE:    0.00 PKD
ROOT
HETATM    1  C   UNL     1      -7.709   2.988  67.591  1.00  0.00    -0.065 C  
HETATM    2  C   UNL     1      -7.196   4.406  67.803  1.00  0.00    -0.065 C  
ENDROOT
BRANCH   2   3
HETATM    3  N   UNL     1      -7.774   5.058  68.983  1.00  0.00    -0.079 N  
BRANCH   3   4
HETATM    4  C   UNL     1      -6.890   5.884  69.812  1.00  0.00    -0.064 C  
HETATM    5  C   UNL     1      -7.422   7.275  70.098  1.00  0.00    -0.088 C  
ENDBRANCH   3   4
BRANCH   3   6
HETATM    6  C   UNL     1      -9.162   5.011  69.113  1.00  0.00    -0.110 C  
HETATM    7  O   UNL     1      -9.706   4.545  70.113  1.00  0.00    -0.182 OA 
BRANCH   6   8
HETATM    8  N   UNL     1      -9.861   5.563  68.055  1.00  0.00    -0.132 N  
HETATM    9  H   UNL     1     -10.268   4.943  67.355  1.00  0.00     0.000 HD 
BRANCH   8  10
HETATM   10  C   UNL     1     -10.029   6.952  67.917  1.00  0.00    -0.147 A  
HETATM   11  C   UNL     1     -10.889   7.678  68.739  1.00  0.00    -0.025 A  
HETATM   12  C   UNL     1     -10.979   9.067  68.613  1.00  0.00     0.034 A  
HETATM   13  C   UNL     1     -10.195   9.760  67.681  1.00  0.00    -0.213 A  
HETATM   14  C   UNL     1      -9.299   7.622  66.936  1.00  0.00    -0.203 A  
HETATM   15  C   UNL     1      -9.353   9.023  66.829  1.00  0.00    -0.213 A  
BRANCH  13  16
HETATM   16  O   UNL     1     -10.169  11.126  67.587  1.00  0.00    -0.175 OA 
BRANCH  16  17
HETATM   17  C   UNL     1     -10.850  11.873  68.608  1.00  0.00    -0.235 C  
BRANCH  17  18
HETATM   18  C   UNL     1     -10.681  13.372  68.330  1.00  0.00    -0.256 C  
HETATM   19  H   UNL     1      -9.247  14.541  67.669  1.00  0.00     0.000 HD 
HETATM   20  O   UNL     1      -9.352  13.612  67.842  1.00  0.00    -0.191 OA 
BRANCH  18  21
HETATM   21  C   UNL     1     -11.685  13.925  67.301  1.00  0.00    -0.386 C  
BRANCH  21  22
HETATM   22  N   UNL     1     -12.112  12.934  66.307  1.00  0.00    -0.474 NA 
HETATM   23  C   UNL     1     -11.809  13.283  64.903  1.00  0.00    -0.362 C  
HETATM   24  H   UNL     1     -13.107  12.735  66.413  1.00  0.00     0.000 HD 
HETATM   25  C   UNL     1     -12.410  12.168  64.024  1.00  0.00    -0.550 C  
HETATM   26  C   UNL     1     -10.293  13.324  64.642  1.00  0.00    -0.394 C  
HETATM   27  C   UNL     1     -12.451  14.619  64.495  1.00  0.00    -0.312 C  
ENDBRANCH  21  22
ENDBRANCH  18  21
ENDBRANCH  17  18
ENDBRANCH  16  17
ENDBRANCH  13  16
BRANCH  15  28
HETATM   28  C   UNL     1      -8.402   9.605  65.833  1.00  0.00    -0.120 C  
HETATM   29  O   UNL     1      -7.225   9.775  66.157  1.00  0.00    -0.095 OA 
HETATM   30  C   UNL     1      -8.845   9.933  64.433  1.00  0.00    -0.245 C  
ENDBRANCH  15  28
ENDBRANCH   8  10
ENDBRANCH   6   8
ENDBRANCH   3   6
ENDBRANCH   2   3
TORSDOF 11
ENDMDL
MODEL      247
REMARK 921   NORMALIZED FREE ENERGY PREDICTED BY IDOCK:   -3.58 KCAL/MOL
REMARK 922        TOTAL FREE ENERGY PREDICTED BY IDOCK:   -7.02 KCAL/MOL
REMARK 923 INTER-LIGAND FREE ENERGY PREDICTED BY IDOCK:   -5.84 KCAL/MOL
REMARK 924 INTRA-LIGAND FREE ENERGY PREDICTED BY IDOCK:   -1.17 KCAL/MOL
REMARK 927      BINDING AFFINITY PREDICTED BY RF-SCORE:    0.00 PKD
ROOT
HETATM    1  C   UNL     1     -12.641  13.521  71.318  1.00  0.00    -0.427 C  
HETATM    2  C   UNL     1     -13.304  12.266  71.870  1.00  0.00    -0.329 C  
ENDROOT
BRANCH   2   3
HETATM    3  N   UNL     1     -12.656  11.028  71.426  1.00  0.00    -0.399 N  
BRANCH   3   4
HETATM    4  C   UNL     1     -12.842   9.825  72.244  1.00  0.00    -0.295 C  
HETATM    5  C   UNL     1     -13.890   8.865  71.713  1.00  0.00    -0.465 C  
ENDBRANCH   3   4
BRANCH   3   6
HETATM    6  C   UNL     1     -12.084  11.038  70.154  1.00  0.00    -0.356 C  
HETATM    7  O   UNL     1     -12.670  11.510  69.181  1.00  0.00    -0.051 OA 
BRANCH   6   8
HETATM    8  N   UNL     1     -10.805  10.516  70.090  1.00  0.00    -0.422 N  
HETATM    9  H   UNL     1     -10.083  10.900  70.700  1.00  0.00     0.000 HD 
BRANCH   8  10
HETATM   10  C   UNL     1     -10.469   9.471  69.211  1.00  0.00    -0.212 A  
HETATM   11  C   UNL     1     -10.705   8.135  69.526  1.00  0.00    -0.180 A  
HETATM   12  C   UNL     1     -10.418   7.130  68.598  1.00  0.00    -0.218 A  
HETATM   13  C   UNL     1      -9.913   7.442  67.329  1.00  0.00    -0.198 A  
HETATM   14  C   UNL     1      -9.899   9.789  67.979  1.00  0.00    -0.173 A  
HETATM   15  C   UNL     1      -9.644   8.789  67.024  1.00  0.00    -0.236 A  
BRANCH  13  16
HETATM   16  O   UNL     1      -9.711   6.507  66.349  1.00  0.00    -0.156 OA 
BRANCH  16  17
HETATM   17  C   UNL     1     -10.279   5.203  66.551  1.00  0.00    -0.264 C  
BRANCH  17  18
HETATM   18  C   UNL     1      -9.144   4.178  66.686  1.00  0.00    -0.135 C  
HETATM   19  H   UNL     1      -7.216   4.137  66.314  1.00  0.00     0.000 HD 
HETATM   20  O   UNL     1      -7.919   4.772  66.231  1.00  0.00    -0.102 OA 
BRANCH  18  21
HETATM   21  C   UNL     1      -8.936   3.676  68.128  1.00  0.00    -0.130 C  
BRANCH  21  22
HETATM   22  N   UNL     1      -8.135   4.585  68.956  1.00  0.00    -0.073 NA 
HETATM   23  C   UNL     1      -8.201   4.331  70.411  1.00  0.00    -0.065 C  
HETATM   24  H   UNL     1      -8.384   5.554  68.756  1.00  0.00     0.000 HD 
HETATM   25  C   UNL     1      -7.373   5.436  71.096  1.00  0.00    -0.083 C  
HETATM   26  C   UNL     1      -7.577   2.974  70.780  1.00  0.00    -0.040 C  
HETATM   27  C   UNL     1      -9.643   4.411  70.938  1.00  0.00    -0.255 C  
ENDBRANCH  21  22
ENDBRANCH  18  21
ENDBRANCH  17  18
ENDBRANCH  16  17
ENDBRANCH  13  16
BRANCH  15  28
HETATM   28  C   UNL     1      -9.175   9.301  65.700  1.00  0.00    -0.231 C  
HETATM   29  O   UNL     1     -10.000   9.760  64.908  1.00  0.00    -0.252 OA 
HETATM   30  C   UNL     1      -7.712   9.314  65.345  1.00  0.00    -0.099 C  
ENDBRANCH  15  28
ENDBRANCH   8  10
ENDBRANCH   6   8
ENDBRANCH   3   6
ENDBRANCH   2   3
TORSDOF 11
ENDMDL
MODEL      248
REMARK 921   NORMALIZED FREE ENERGY PREDICTED BY IDOCK:   -3.56 KCAL/MOL
REMARK 922        TOTAL FREE ENERGY PREDICTED BY IDOCK:   -6.97 KCAL/MOL
REMARK 923 INTER-LIGAND FREE ENERGY PREDICTED BY IDOCK:   -6.07 KCAL/MOL
REMARK 924 INTRA-LIGAND FREE ENERGY PREDICTED BY IDOCK:   -0.90 KCAL/MOL
REMARK 927      BINDING AFFINITY PREDICTED BY RF-SCORE:    0.00 PKD
ROOT
HETATM    1  C   UNL     1      -9.692   5.529  70.220  1.00  0.00    -0.242 C  
HETATM    2  C   UNL     1      -9.339   5.480  71.701  1.00  0.00    -0.146 C  
ENDROOT
BRANCH   2   3
HETATM    3  N   UNL     1     -10.193   6.340  72.526  1.00  0.00    -0.182 N  
BRANCH   3   4
HETATM    4  C   UNL     1     -10.953   5.713  73.613  1.00  0.00    -0.138 C  
HETATM    5  C   UNL     1     -10.728   4.218  73.750  1.00  0.00    -0.339 C  
ENDBRANCH   3   4
BRANCH   3   6
HETATM    6  C   UNL     1     -10.061   7.717  72.348  1.00  0.00    -0.211 C  
HETATM    7  O   UNL     1      -9.010   8.306  72.596  1.00  0.00    -0.205 OA 
BRANCH   6   8
HETATM    8  N   UNL     1     -11.183   8.346  71.838  1.00  0.00    -0.288 N  
HETATM    9  H   UNL     1     -12.058   8.292  72.358  1.00  0.00     0.000 HD 
BRANCH   8  10
HETATM   10  C   UNL     1     -11.151   9.056  70.625  1.00  0.00    -0.265 A  
HETATM   11  C   UNL     1     -11.879  10.229  70.437  1.00  0.00    -0.396 A  
HETATM   12  C   UNL     1     -11.770  10.942  69.240  1.00  0.00    -0.395 A  
HETATM   13  C   UNL     1     -10.915  10.510  68.217  1.00  0.00    -0.263 A  
HETATM   14  C   UNL     1     -10.353   8.576  69.587  1.00  0.00    -0.218 A  
HETATM   15  C   UNL     1     -10.207   9.307  68.395  1.00  0.00    -0.231 A  
BRANCH  13  16
HETATM   16  O   UNL     1     -10.694  11.223  67.070  1.00  0.00    -0.233 OA 
BRANCH  16  17
HETATM   17  C   UNL     1     -11.608  12.290  66.767  1.00  0.00    -0.369 C  
BRANCH  17  18
HETATM   18  C   UNL     1     -11.423  12.707  65.302  1.00  0.00    -0.331 C  
HETATM   19  H   UNL     1     -11.381  14.396  64.300  1.00  0.00     0.000 HD 
HETATM   20  O   UNL     1     -11.496  14.138  65.208  1.00  0.00    -0.311 OA 
BRANCH  18  21
HETATM   21  C   UNL     1     -10.085  12.246  64.693  1.00  0.00    -0.250 C  
BRANCH  21  22
HETATM   22  N   UNL     1     -10.068  10.826  64.323  1.00  0.00    -0.343 NA 
HETATM   23  C   UNL     1      -8.797  10.344  63.743  1.00  0.00    -0.212 C  
HETATM   24  H   UNL     1     -10.844  10.617  63.693  1.00  0.00     0.000 HD 
HETATM   25  C   UNL     1      -9.016   8.871  63.346  1.00  0.00     0.215 C  
HETATM   26  C   UNL     1      -7.650  10.392  64.767  1.00  0.00    -0.058 C  
HETATM   27  C   UNL     1      -8.411  11.132  62.480  1.00  0.00    -0.182 C  
ENDBRANCH  21  22
ENDBRANCH  18  21
ENDBRANCH  17  18
ENDBRANCH  16  17
ENDBRANCH  13  16
BRANCH  15  28
HETATM   28  C   UNL     1      -9.204   8.743  67.441  1.00  0.00    -0.136 C  
HETATM   29  O   UNL     1      -8.074   9.233  67.400  1.00  0.00    -0.109 OA 
HETATM   30  C   UNL     1      -9.534   7.556  66.576  1.00  0.00    -0.237 C  
ENDBRANCH  15  28
ENDBRANCH   8  10
ENDBRANCH   6   8
ENDBRANCH   3   6
ENDBRANCH   2   3
TORSDOF 11
ENDMDL
MODEL      249
REMARK 921   NORMALIZED FREE ENERGY PREDICTED BY IDOCK:   -3.54 KCAL/MOL
REMARK 922        TOTAL FREE ENERGY PREDICTED BY IDOCK:   -6.95 KCAL/MOL
REMARK 923 INTER-LIGAND FREE ENERGY PREDICTED BY IDOCK:   -6.40 KCAL/MOL
REMARK 924 INTRA-LIGAND FREE ENERGY PREDICTED BY IDOCK:   -0.55 KCAL/MOL
REMARK 927      BINDING AFFINITY PREDICTED BY RF-SCORE:    0.00 PKD
ROOT
HETATM    1  C   UNL     1      -9.543   4.235  69.241  1.00  0.00    -0.261 C  
HETATM    2  C   UNL     1     -10.334   5.480  68.866  1.00  0.00    -0.218 C  
ENDROOT
BRANCH   2   3
HETATM    3  N   UNL     1      -9.501   6.544  68.296  1.00  0.00    -0.120 N  
BRANCH   3   4
HETATM    4  C   UNL     1      -8.366   7.025  69.091  1.00  0.00    -0.125 C  
HETATM    5  C   UNL     1      -8.752   7.924  70.250  1.00  0.00    -0.138 C  
ENDBRANCH   3   4
BRANCH   3   6
HETATM    6  C   UNL     1      -9.725   6.873  66.960  1.00  0.00    -0.163 C  
HETATM    7  O   UNL     1      -9.220   6.233  66.039  1.00  0.00    -0.152 OA 
BRANCH   6   8
HETATM    8  N   UNL     1     -10.584   7.939  66.762  1.00  0.00    -0.429 N  
HETATM    9  H   UNL     1     -11.492   7.768  66.331  1.00  0.00     0.000 HD 
BRANCH   8  10
HETATM   10  C   UNL     1     -10.243   9.250  67.138  1.00  0.00    -0.257 A  
HETATM   11  C   UNL     1      -9.173   9.930  66.561  1.00  0.00    -0.190 A  
HETATM   12  C   UNL     1      -8.906  11.256  66.914  1.00  0.00    -0.165 A  
HETATM   13  C   UNL     1      -9.717  11.935  67.834  1.00  0.00    -0.192 A  
HETATM   14  C   UNL     1     -11.012   9.891  68.109  1.00  0.00    -0.261 A  
HETATM   15  C   UNL     1     -10.776  11.237  68.442  1.00  0.00    -0.238 A  
BRANCH  13  16
HETATM   16  O   UNL     1      -9.562  13.261  68.137  1.00  0.00    -0.217 OA 
BRANCH  16  17
HETATM   17  C   UNL     1      -8.252  13.829  67.972  1.00  0.00    -0.164 C  
BRANCH  17  18
HETATM   18  C   UNL     1      -8.199  15.182  68.694  1.00  0.00    -0.154 C  
HETATM   19  H   UNL     1      -7.068  16.017  70.066  1.00  0.00     0.000 HD 
HETATM   20  O   UNL     1      -7.101  15.178  69.619  1.00  0.00    -0.177 OA 
BRANCH  18  21
HETATM   21  C   UNL     1      -8.030  16.382  67.742  1.00  0.00    -0.149 C  
BRANCH  21  22
HETATM   22  N   UNL     1      -8.679  17.608  68.223  1.00  0.00    -0.269 NA 
HETATM   23  C   UNL     1     -10.072  17.800  67.768  1.00  0.00    -0.345 C  
HETATM   24  H   UNL     1      -8.115  18.423  67.981  1.00  0.00     0.000 HD 
HETATM   25  C   UNL     1     -10.534  19.169  68.303  1.00  0.00    -0.377 C  
HETATM   26  C   UNL     1     -11.011  16.726  68.345  1.00  0.00    -0.325 C  
HETATM   27  C   UNL     1     -10.174  17.821  66.234  1.00  0.00    -0.364 C  
ENDBRANCH  21  22
ENDBRANCH  18  21
ENDBRANCH  17  18
ENDBRANCH  16  17
ENDBRANCH  13  16
BRANCH  15  28
HETATM   28  C   UNL     1     -11.775  11.827  69.384  1.00  0.00    -0.341 C  
HETATM   29  O   UNL     1     -12.304  11.102  70.229  1.00  0.00    -0.309 OA 
HETATM   30  C   UNL     1     -12.102  13.296  69.351  1.00  0.00    -0.301 C  
ENDBRANCH  15  28
ENDBRANCH   8  10
ENDBRANCH   6   8
ENDBRANCH   3   6
ENDBRANCH   2   3
TORSDOF 11
ENDMDL
MODEL      250
REMARK 921   NORMALIZED FREE ENERGY PREDICTED BY IDOCK:   -3.53 KCAL/MOL
REMARK 922        TOTAL FREE ENERGY PREDICTED BY IDOCK:   -6.94 KCAL/MOL
REMARK 923 INTER-LIGAND FREE ENERGY PREDICTED BY IDOCK:   -5.44 KCAL/MOL
REMARK 924 INTRA-LIGAND FREE ENERGY PREDICTED BY IDOCK:   -1.50 KCAL/MOL
REMARK 927      BINDING AFFINITY PREDICTED BY RF-SCORE:    0.00 PKD
ROOT
HETATM    1  C   UNL     1     -12.287  11.975  63.590  1.00  0.00    -0.648 C  
HETATM    2  C   UNL     1     -12.820  12.700  64.818  1.00  0.00    -0.265 C  
ENDROOT
BRANCH   2   3
HETATM    3  N   UNL     1     -11.760  13.167  65.718  1.00  0.00    -0.355 N  
BRANCH   3   4
HETATM    4  C   UNL     1     -11.284  14.545  65.559  1.00  0.00    -0.335 C  
HETATM    5  C   UNL     1     -10.835  15.203  66.851  1.00  0.00    -0.317 C  
ENDBRANCH   3   4
BRANCH   3   6
HETATM    6  C   UNL     1     -11.430  12.335  66.788  1.00  0.00    -0.361 C  
HETATM    7  O   UNL     1     -12.239  12.067  67.675  1.00  0.00    -0.484 OA 
BRANCH   6   8
HETATM    8  N   UNL     1     -10.150  11.815  66.743  1.00  0.00    -0.207 N  
HETATM    9  H   UNL     1      -9.413  12.354  66.290  1.00  0.00     0.000 HD 
BRANCH   8  10
HETATM   10  C   UNL     1      -9.834  10.565  67.305  1.00  0.00    -0.177 A  
HETATM   11  C   UNL     1     -10.077   9.370  66.631  1.00  0.00    -0.332 A  
HETATM   12  C   UNL     1      -9.689   8.151  67.195  1.00  0.00    -0.259 A  
HETATM   13  C   UNL     1      -9.030   8.105  68.431  1.00  0.00    -0.136 A  
HETATM   14  C   UNL     1      -9.245  10.527  68.568  1.00  0.00    -0.168 A  
HETATM   15  C   UNL     1      -8.815   9.309  69.125  1.00  0.00    -0.141 A  
BRANCH  13  16
HETATM   16  O   UNL     1      -8.539   6.950  68.977  1.00  0.00    -0.127 OA 
BRANCH  16  17
HETATM   17  C   UNL     1      -8.730   5.733  68.238  1.00  0.00    -0.111 C  
BRANCH  17  18
HETATM   18  C   UNL     1      -7.481   4.854  68.386  1.00  0.00    -0.074 C  
HETATM   19  H   UNL     1      -7.042   2.955  68.139  1.00  0.00     0.000 HD 
HETATM   20  O   UNL     1      -7.816   3.500  68.047  1.00  0.00    -0.068 OA 
BRANCH  18  21
HETATM   21  C   UNL     1      -6.304   5.302  67.499  1.00  0.00    -0.040 C  
BRANCH  21  22
HETATM   22  N   UNL     1      -6.557   6.555  66.778  1.00  0.00    -0.046 NA 
HETATM   23  C   UNL     1      -6.554   6.442  65.304  1.00  0.00    -0.039 C  
HETATM   24  H   UNL     1      -5.896   7.272  67.077  1.00  0.00     0.000 HD 
HETATM   25  C   UNL     1      -6.747   7.866  64.746  1.00  0.00    -0.051 C  
HETATM   26  C   UNL     1      -7.719   5.574  64.798  1.00  0.00    -0.092 C  
HETATM   27  C   UNL     1      -5.218   5.894  64.776  1.00  0.00    -0.013 C  
ENDBRANCH  21  22
ENDBRANCH  18  21
ENDBRANCH  17  18
ENDBRANCH  16  17
ENDBRANCH  13  16
BRANCH  15  28
HETATM   28  C   UNL     1      -8.068   9.446  70.412  1.00  0.00    -0.175 C  
HETATM   29  O   UNL     1      -8.679   9.332  71.476  1.00  0.00    -0.323 OA 
HETATM   30  C   UNL     1      -6.578   9.664  70.428  1.00  0.00    -0.096 C  
ENDBRANCH  15  28
ENDBRANCH   8  10
ENDBRANCH   6   8
ENDBRANCH   3   6
ENDBRANCH   2   3
TORSDOF 11
ENDMDL
MODEL      251
REMARK 921   NORMALIZED FREE ENERGY PREDICTED BY IDOCK:   -3.49 KCAL/MOL
REMARK 922        TOTAL FREE ENERGY PREDICTED BY IDOCK:   -6.87 KCAL/MOL
REMARK 923 INTER-LIGAND FREE ENERGY PREDICTED BY IDOCK:   -5.80 KCAL/MOL
REMARK 924 INTRA-LIGAND FREE ENERGY PREDICTED BY IDOCK:   -1.07 KCAL/MOL
REMARK 927      BINDING AFFINITY PREDICTED BY RF-SCORE:    0.00 PKD
ROOT
HETATM    1  C   UNL     1      -6.867   5.066  71.234  1.00  0.00    -0.040 C  
HETATM    2  C   UNL     1      -7.464   4.668  72.577  1.00  0.00    -0.084 C  
ENDROOT
BRANCH   2   3
HETATM    3  N   UNL     1      -8.835   5.153  72.766  1.00  0.00    -0.119 N  
BRANCH   3   4
HETATM    4  C   UNL     1      -9.885   4.161  73.021  1.00  0.00    -0.133 C  
HETATM    5  C   UNL     1      -9.950   3.043  71.997  1.00  0.00    -0.224 C  
ENDBRANCH   3   4
BRANCH   3   6
HETATM    6  C   UNL     1      -9.004   6.532  72.893  1.00  0.00    -0.129 C  
HETATM    7  O   UNL     1      -8.089   7.268  73.259  1.00  0.00    -0.104 OA 
BRANCH   6   8
HETATM    8  N   UNL     1     -10.257   6.997  72.537  1.00  0.00    -0.180 N  
HETATM    9  H   UNL     1     -11.068   6.687  73.071  1.00  0.00     0.000 HD 
BRANCH   8  10
HETATM   10  C   UNL     1     -10.445   7.884  71.462  1.00  0.00    -0.210 A  
HETATM   11  C   UNL     1     -10.868   9.198  71.653  1.00  0.00    -0.442 A  
HETATM   12  C   UNL     1     -10.980  10.068  70.565  1.00  0.00    -0.392 A  
HETATM   13  C   UNL     1     -10.648   9.650  69.270  1.00  0.00    -0.219 A  
HETATM   14  C   UNL     1     -10.182   7.435  70.168  1.00  0.00    -0.207 A  
HETATM   15  C   UNL     1     -10.253   8.314  69.073  1.00  0.00    -0.226 A  
BRANCH  13  16
HETATM   16  O   UNL     1     -10.642  10.489  68.188  1.00  0.00    -0.177 OA 
BRANCH  16  17
HETATM   17  C   UNL     1     -11.858  11.192  67.887  1.00  0.00    -0.082 C  
BRANCH  17  18
HETATM   18  C   UNL     1     -11.512  12.522  67.205  1.00  0.00    -0.353 C  
HETATM   19  H   UNL     1     -11.981  14.413  67.458  1.00  0.00     0.000 HD 
HETATM   20  O   UNL     1     -12.196  13.589  67.881  1.00  0.00    -0.305 OA 
BRANCH  18  21
HETATM   21  C   UNL     1     -10.004  12.838  67.198  1.00  0.00    -0.218 C  
BRANCH  21  22
HETATM   22  N   UNL     1      -9.654  14.010  66.387  1.00  0.00    -0.310 NA 
HETATM   23  C   UNL     1      -8.803  15.011  67.065  1.00  0.00    -0.234 C  
HETATM   24  H   UNL     1     -10.499  14.454  66.027  1.00  0.00     0.000 HD 
HETATM   25  C   UNL     1      -8.628  16.187  66.086  1.00  0.00    -0.331 C  
HETATM   26  C   UNL     1      -7.406  14.448  67.382  1.00  0.00    -0.167 C  
HETATM   27  C   UNL     1      -9.461  15.544  68.348  1.00  0.00    -0.196 C  
ENDBRANCH  21  22
ENDBRANCH  18  21
ENDBRANCH  17  18
ENDBRANCH  16  17
ENDBRANCH  13  16
BRANCH  15  28
HETATM   28  C   UNL     1      -9.798   7.726  67.776  1.00  0.00    -0.161 C  
HETATM   29  O   UNL     1      -8.642   7.927  67.400  1.00  0.00    -0.124 OA 
HETATM   30  C   UNL     1     -10.708   6.852  66.956  1.00  0.00    -0.432 C  
ENDBRANCH  15  28
ENDBRANCH   8  10
ENDBRANCH   6   8
ENDBRANCH   3   6
ENDBRANCH   2   3
TORSDOF 11
ENDMDL
MODEL      252
REMARK 921   NORMALIZED FREE ENERGY PREDICTED BY IDOCK:   -3.47 KCAL/MOL
REMARK 922        TOTAL FREE ENERGY PREDICTED BY IDOCK:   -6.84 KCAL/MOL
REMARK 923 INTER-LIGAND FREE ENERGY PREDICTED BY IDOCK:   -5.84 KCAL/MOL
REMARK 924 INTRA-LIGAND FREE ENERGY PREDICTED BY IDOCK:   -1.00 KCAL/MOL
REMARK 927      BINDING AFFINITY PREDICTED BY RF-SCORE:    0.00 PKD
ROOT
HETATM    1  C   UNL     1      -7.367   6.290  63.246  1.00  0.00    -0.064 C  
HETATM    2  C   UNL     1      -7.898   7.339  64.212  1.00  0.00    -0.125 C  
ENDROOT
BRANCH   2   3
HETATM    3  N   UNL     1      -6.897   8.346  64.578  1.00  0.00    -0.068 N  
BRANCH   3   4
HETATM    4  C   UNL     1      -5.793   8.587  63.643  1.00  0.00    -0.072 C  
HETATM    5  C   UNL     1      -5.736  10.001  63.095  1.00  0.00    -0.114 C  
ENDBRANCH   3   4
BRANCH   3   6
HETATM    6  C   UNL     1      -7.180   9.143  65.687  1.00  0.00    -0.082 C  
HETATM    7  O   UNL     1      -6.325   9.413  66.529  1.00  0.00    -0.064 OA 
BRANCH   6   8
HETATM    8  N   UNL     1      -8.474   9.629  65.736  1.00  0.00    -0.130 N  
HETATM    9  H   UNL     1      -8.846  10.125  64.926  1.00  0.00     0.000 HD 
BRANCH   8  10
HETATM   10  C   UNL     1      -9.291   9.461  66.868  1.00  0.00    -0.147 A  
HETATM   11  C   UNL     1      -9.246   8.307  67.647  1.00  0.00    -0.150 A  
HETATM   12  C   UNL     1     -10.026   8.205  68.802  1.00  0.00    -0.198 A  
HETATM   13  C   UNL     1     -10.849   9.262  69.213  1.00  0.00    -0.152 A  
HETATM   14  C   UNL     1     -10.160  10.491  67.226  1.00  0.00    -0.242 A  
HETATM   15  C   UNL     1     -10.919  10.413  68.408  1.00  0.00    -0.312 A  
BRANCH  13  16
HETATM   16  O   UNL     1     -11.553   9.254  70.387  1.00  0.00    -0.254 OA 
BRANCH  16  17
HETATM   17  C   UNL     1     -10.823   8.988  71.596  1.00  0.00    -0.366 C  
BRANCH  17  18
HETATM   18  C   UNL     1     -11.709   8.172  72.547  1.00  0.00    -0.394 C  
HETATM   19  H   UNL     1     -13.622   7.749  72.695  1.00  0.00     0.000 HD 
HETATM   20  O   UNL     1     -13.073   8.255  72.106  1.00  0.00    -0.324 OA 
BRANCH  18  21
HETATM   21  C   UNL     1     -11.314   6.685  72.634  1.00  0.00    -0.225 C  
BRANCH  21  22
HETATM   22  N   UNL     1     -11.154   6.044  71.323  1.00  0.00    -0.283 NA 
HETATM   23  C   UNL     1      -9.972   5.166  71.195  1.00  0.00    -0.206 C  
HETATM   24  H   UNL     1     -11.151   6.748  70.585  1.00  0.00     0.000 HD 
HETATM   25  C   UNL     1      -9.939   4.669  69.736  1.00  0.00    -0.295 C  
HETATM   26  C   UNL     1     -10.075   3.934  72.111  1.00  0.00    -0.225 C  
HETATM   27  C   UNL     1      -8.665   5.925  71.476  1.00  0.00    -0.132 C  
ENDBRANCH  21  22
ENDBRANCH  18  21
ENDBRANCH  17  18
ENDBRANCH  16  17
ENDBRANCH  13  16
BRANCH  15  28
HETATM   28  C   UNL     1     -11.685  11.655  68.735  1.00  0.00    -0.330 C  
HETATM   29  O   UNL     1     -12.157  12.328  67.816  1.00  0.00    -0.478 OA 
HETATM   30  C   UNL     1     -11.935  12.061  70.162  1.00  0.00    -0.401 C  
ENDBRANCH  15  28
ENDBRANCH   8  10
ENDBRANCH   6   8
ENDBRANCH   3   6
ENDBRANCH   2   3
TORSDOF 11
ENDMDL
MODEL      253
REMARK 921   NORMALIZED FREE ENERGY PREDICTED BY IDOCK:   -3.45 KCAL/MOL
REMARK 922        TOTAL FREE ENERGY PREDICTED BY IDOCK:   -6.80 KCAL/MOL
REMARK 923 INTER-LIGAND FREE ENERGY PREDICTED BY IDOCK:   -5.85 KCAL/MOL
REMARK 924 INTRA-LIGAND FREE ENERGY PREDICTED BY IDOCK:   -0.95 KCAL/MOL
REMARK 927      BINDING AFFINITY PREDICTED BY RF-SCORE:    0.00 PKD
ROOT
HETATM    1  C   UNL     1     -12.266  12.067  63.189  1.00  0.00    -0.365 C  
HETATM    2  C   UNL     1     -10.875  12.405  63.707  1.00  0.00    -0.454 C  
ENDROOT
BRANCH   2   3
HETATM    3  N   UNL     1     -10.864  12.795  65.120  1.00  0.00    -0.284 N  
BRANCH   3   4
HETATM    4  C   UNL     1     -10.691  14.217  65.439  1.00  0.00    -0.342 C  
HETATM    5  C   UNL     1     -11.535  15.153  64.595  1.00  0.00    -0.363 C  
ENDBRANCH   3   4
BRANCH   3   6
HETATM    6  C   UNL     1     -11.224  11.817  66.047  1.00  0.00    -0.296 C  
HETATM    7  O   UNL     1     -12.119  12.000  66.871  1.00  0.00    -0.608 OA 
BRANCH   6   8
HETATM    8  N   UNL     1     -10.529  10.627  65.933  1.00  0.00    -0.211 N  
HETATM    9  H   UNL     1     -10.548  10.126  65.045  1.00  0.00     0.000 HD 
BRANCH   8  10
HETATM   10  C   UNL     1      -9.795  10.088  67.005  1.00  0.00    -0.189 A  
HETATM   11  C   UNL     1     -10.415   9.606  68.156  1.00  0.00    -0.266 A  
HETATM   12  C   UNL     1      -9.657   9.018  69.172  1.00  0.00    -0.161 A  
HETATM   13  C   UNL     1      -8.268   8.877  69.046  1.00  0.00    -0.116 A  
HETATM   14  C   UNL     1      -8.406  10.020  66.900  1.00  0.00    -0.125 A  
HETATM   15  C   UNL     1      -7.639   9.394  67.899  1.00  0.00    -0.087 A  
BRANCH  13  16
HETATM   16  O   UNL     1      -7.493   8.218  69.963  1.00  0.00    -0.062 OA 
BRANCH  16  17
HETATM   17  C   UNL     1      -7.113   8.937  71.148  1.00  0.00    -0.099 C  
BRANCH  17  18
HETATM   18  C   UNL     1      -7.250   8.009  72.363  1.00  0.00    -0.095 C  
HETATM   19  H   UNL     1      -6.231   7.658  74.005  1.00  0.00     0.000 HD 
HETATM   20  O   UNL     1      -6.146   8.233  73.252  1.00  0.00    -0.078 OA 
BRANCH  18  21
HETATM   21  C   UNL     1      -8.559   8.215  73.150  1.00  0.00    -0.233 C  
BRANCH  21  22
HETATM   22  N   UNL     1      -9.170   6.962  73.609  1.00  0.00    -0.149 NA 
HETATM   23  C   UNL     1     -10.390   6.556  72.879  1.00  0.00    -0.210 C  
HETATM   24  H   UNL     1      -9.359   7.009  74.610  1.00  0.00     0.000 HD 
HETATM   25  C   UNL     1     -10.917   5.280  73.565  1.00  0.00    -0.353 C  
HETATM   26  C   UNL     1     -10.086   6.212  71.411  1.00  0.00    -0.230 C  
HETATM   27  C   UNL     1     -11.485   7.632  72.954  1.00  0.00    -0.342 C  
ENDBRANCH  21  22
ENDBRANCH  18  21
ENDBRANCH  17  18
ENDBRANCH  16  17
ENDBRANCH  13  16
BRANCH  15  28
HETATM   28  C   UNL     1      -6.186   9.265  67.574  1.00  0.00    -0.058 C  
HETATM   29  O   UNL     1      -5.412  10.159  67.921  1.00  0.00    -0.038 OA 
HETATM   30  C   UNL     1      -5.649   8.040  66.884  1.00  0.00    -0.033 C  
ENDBRANCH  15  28
ENDBRANCH   8  10
ENDBRANCH   6   8
ENDBRANCH   3   6
ENDBRANCH   2   3
TORSDOF 11
ENDMDL
MODEL      254
REMARK 921   NORMALIZED FREE ENERGY PREDICTED BY IDOCK:   -3.45 KCAL/MOL
REMARK 922        TOTAL FREE ENERGY PREDICTED BY IDOCK:   -6.79 KCAL/MOL
REMARK 923 INTER-LIGAND FREE ENERGY PREDICTED BY IDOCK:   -5.69 KCAL/MOL
REMARK 924 INTRA-LIGAND FREE ENERGY PREDICTED BY IDOCK:   -1.10 KCAL/MOL
REMARK 927      BINDING AFFINITY PREDICTED BY RF-SCORE:    0.00 PKD
ROOT
HETATM    1  C   UNL     1     -12.035  13.288  68.468  1.00  0.00    -0.340 C  
HETATM    2  C   UNL     1     -11.847  14.553  67.643  1.00  0.00    -0.364 C  
ENDROOT
BRANCH   2   3
HETATM    3  N   UNL     1     -11.763  14.295  66.202  1.00  0.00    -0.378 N  
BRANCH   3   4
HETATM    4  C   UNL     1     -12.963  13.792  65.524  1.00  0.00    -0.315 C  
HETATM    5  C   UNL     1     -12.732  12.547  64.687  1.00  0.00    -0.434 C  
ENDBRANCH   3   4
BRANCH   3   6
HETATM    6  C   UNL     1     -10.616  14.740  65.547  1.00  0.00    -0.359 C  
HETATM    7  O   UNL     1     -10.672  15.359  64.485  1.00  0.00    -0.280 OA 
BRANCH   6   8
HETATM    8  N   UNL     1      -9.430  14.468  66.205  1.00  0.00    -0.432 N  
HETATM    9  H   UNL     1      -8.842  15.244  66.506  1.00  0.00     0.000 HD 
BRANCH   8  10
HETATM   10  C   UNL     1      -9.012  13.151  66.471  1.00  0.00    -0.059 A  
HETATM   11  C   UNL     1      -9.575  12.052  65.826  1.00  0.00    -0.227 A  
HETATM   12  C   UNL     1      -9.086  10.766  66.069  1.00  0.00    -0.204 A  
HETATM   13  C   UNL     1      -8.011  10.555  66.943  1.00  0.00    -0.121 A  
HETATM   14  C   UNL     1      -7.990  12.947  67.398  1.00  0.00    -0.178 A  
HETATM   15  C   UNL     1      -7.466  11.661  67.619  1.00  0.00    -0.116 A  
BRANCH  13  16
HETATM   16  O   UNL     1      -7.430   9.331  67.137  1.00  0.00    -0.090 OA 
BRANCH  16  17
HETATM   17  C   UNL     1      -8.233   8.304  67.740  1.00  0.00    -0.127 C  
BRANCH  17  18
HETATM   18  C   UNL     1      -8.260   8.515  69.259  1.00  0.00    -0.115 C  
HETATM   19  H   UNL     1      -9.465   9.369  70.554  1.00  0.00     0.000 HD 
HETATM   20  O   UNL     1      -9.448   9.239  69.613  1.00  0.00    -0.163 OA 
BRANCH  18  21
HETATM   21  C   UNL     1      -8.232   7.201  70.065  1.00  0.00    -0.136 C  
BRANCH  21  22
HETATM   22  N   UNL     1      -8.397   6.002  69.235  1.00  0.00    -0.114 NA 
HETATM   23  C   UNL     1      -9.645   5.244  69.470  1.00  0.00    -0.152 C  
HETATM   24  H   UNL     1      -7.589   5.388  69.339  1.00  0.00     0.000 HD 
HETATM   25  C   UNL     1      -9.582   3.990  68.576  1.00  0.00    -0.184 C  
HETATM   26  C   UNL     1     -10.888   6.054  69.063  1.00  0.00    -0.412 C  
HETATM   27  C   UNL     1      -9.768   4.787  70.933  1.00  0.00    -0.260 C  
ENDBRANCH  21  22
ENDBRANCH  18  21
ENDBRANCH  17  18
ENDBRANCH  16  17
ENDBRANCH  13  16
BRANCH  15  28
HETATM   28  C   UNL     1      -6.277  11.624  68.524  1.00  0.00    -0.051 C  
HETATM   29  O   UNL     1      -5.148  11.605  68.031  1.00  0.00    -0.043 OA 
HETATM   30  C   UNL     1      -6.436  11.665  70.020  1.00  0.00    -0.039 C  
ENDBRANCH  15  28
ENDBRANCH   8  10
ENDBRANCH   6   8
ENDBRANCH   3   6
ENDBRANCH   2   3
TORSDOF 11
ENDMDL
MODEL      255
REMARK 921   NORMALIZED FREE ENERGY PREDICTED BY IDOCK:   -3.44 KCAL/MOL
REMARK 922        TOTAL FREE ENERGY PREDICTED BY IDOCK:   -6.78 KCAL/MOL
REMARK 923 INTER-LIGAND FREE ENERGY PREDICTED BY IDOCK:   -5.48 KCAL/MOL
REMARK 924 INTRA-LIGAND FREE ENERGY PREDICTED BY IDOCK:   -1.30 KCAL/MOL
REMARK 927      BINDING AFFINITY PREDICTED BY RF-SCORE:    0.00 PKD
ROOT
HETATM    1  C   UNL     1      -9.407   4.063  68.311  1.00  0.00    -0.216 C  
HETATM    2  C   UNL     1      -9.023   5.426  68.870  1.00  0.00    -0.117 C  
ENDROOT
BRANCH   2   3
HETATM    3  N   UNL     1      -8.629   5.379  70.282  1.00  0.00    -0.121 N  
BRANCH   3   4
HETATM    4  C   UNL     1      -8.949   4.167  71.044  1.00  0.00    -0.109 C  
HETATM    5  C   UNL     1      -9.602   4.429  72.389  1.00  0.00    -0.198 C  
ENDBRANCH   3   4
BRANCH   3   6
HETATM    6  C   UNL     1      -7.799   6.403  70.739  1.00  0.00    -0.106 C  
HETATM    7  O   UNL     1      -6.612   6.467  70.424  1.00  0.00    -0.042 OA 
BRANCH   6   8
HETATM    8  N   UNL     1      -8.427   7.347  71.531  1.00  0.00    -0.112 N  
HETATM    9  H   UNL     1      -8.328   7.287  72.544  1.00  0.00     0.000 HD 
BRANCH   8  10
HETATM   10  C   UNL     1      -9.197   8.388  70.981  1.00  0.00    -0.168 A  
HETATM   11  C   UNL     1      -8.761   9.131  69.887  1.00  0.00    -0.170 A  
HETATM   12  C   UNL     1      -9.584  10.113  69.329  1.00  0.00    -0.239 A  
HETATM   13  C   UNL     1     -10.867  10.354  69.838  1.00  0.00    -0.298 A  
HETATM   14  C   UNL     1     -10.442   8.668  71.543  1.00  0.00    -0.344 A  
HETATM   15  C   UNL     1     -11.293   9.627  70.964  1.00  0.00    -0.444 A  
BRANCH  13  16
HETATM   16  O   UNL     1     -11.750  11.231  69.266  1.00  0.00    -0.275 OA 
BRANCH  16  17
HETATM   17  C   UNL     1     -11.488  12.634  69.425  1.00  0.00    -0.266 C  
BRANCH  17  18
HETATM   18  C   UNL     1     -12.238  13.411  68.335  1.00  0.00    -0.092 C  
HETATM   19  H   UNL     1     -12.268  15.261  67.674  1.00  0.00     0.000 HD 
HETATM   20  O   UNL     1     -11.804  14.779  68.350  1.00  0.00    -0.316 OA 
BRANCH  18  21
HETATM   21  C   UNL     1     -12.023  12.847  66.917  1.00  0.00    -0.335 C  
BRANCH  21  22
HETATM   22  N   UNL     1     -10.618  12.844  66.495  1.00  0.00    -0.257 NA 
HETATM   23  C   UNL     1     -10.253  11.781  65.535  1.00  0.00    -0.252 C  
HETATM   24  H   UNL     1     -10.005  12.807  67.310  1.00  0.00     0.000 HD 
HETATM   25  C   UNL     1      -8.736  11.897  65.292  1.00  0.00     0.545 C  
HETATM   26  C   UNL     1     -10.964  11.967  64.183  1.00  0.00    -0.430 C  
HETATM   27  C   UNL     1     -10.546  10.380  66.097  1.00  0.00    -0.160 C  
ENDBRANCH  21  22
ENDBRANCH  18  21
ENDBRANCH  17  18
ENDBRANCH  16  17
ENDBRANCH  13  16
BRANCH  15  28
HETATM   28  C   UNL     1     -12.650   9.708  71.586  1.00  0.00    -0.402 C  
HETATM   29  O   UNL     1     -12.923  10.668  72.308  1.00  0.00    -0.353 OA 
HETATM   30  C   UNL     1     -13.700   8.668  71.299  1.00  0.00    -0.203 C  
ENDBRANCH  15  28
ENDBRANCH   8  10
ENDBRANCH   6   8
ENDBRANCH   3   6
ENDBRANCH   2   3
TORSDOF 11
ENDMDL
MODEL      256
REMARK 921   NORMALIZED FREE ENERGY PREDICTED BY IDOCK:   -3.44 KCAL/MOL
REMARK 922        TOTAL FREE ENERGY PREDICTED BY IDOCK:   -6.78 KCAL/MOL
REMARK 923 INTER-LIGAND FREE ENERGY PREDICTED BY IDOCK:   -5.72 KCAL/MOL
REMARK 924 INTRA-LIGAND FREE ENERGY PREDICTED BY IDOCK:   -1.05 KCAL/MOL
REMARK 927      BINDING AFFINITY PREDICTED BY RF-SCORE:    0.00 PKD
ROOT
HETATM    1  C   UNL     1     -12.078  11.725  63.361  1.00  0.00    -0.449 C  
HETATM    2  C   UNL     1     -12.016  13.215  63.669  1.00  0.00    -0.514 C  
ENDROOT
BRANCH   2   3
HETATM    3  N   UNL     1     -11.563  13.504  65.033  1.00  0.00    -0.318 N  
BRANCH   3   4
HETATM    4  C   UNL     1     -11.879  14.821  65.597  1.00  0.00    -0.212 C  
HETATM    5  C   UNL     1     -10.850  15.894  65.293  1.00  0.00    -0.401 C  
ENDBRANCH   3   4
BRANCH   3   6
HETATM    6  C   UNL     1     -11.047  12.435  65.766  1.00  0.00    -0.315 C  
HETATM    7  O   UNL     1     -11.759  11.737  66.486  1.00  0.00    -0.530 OA 
BRANCH   6   8
HETATM    8  N   UNL     1      -9.695  12.206  65.582  1.00  0.00    -0.313 N  
HETATM    9  H   UNL     1      -9.245  12.555  64.737  1.00  0.00     0.000 HD 
BRANCH   8  10
HETATM   10  C   UNL     1      -8.924  11.505  66.527  1.00  0.00    -0.189 A  
HETATM   11  C   UNL     1      -8.637  12.033  67.784  1.00  0.00    -0.157 A  
HETATM   12  C   UNL     1      -7.922  11.279  68.718  1.00  0.00    -0.137 A  
HETATM   13  C   UNL     1      -7.501   9.975  68.424  1.00  0.00    -0.082 A  
HETATM   14  C   UNL     1      -8.447  10.237  66.195  1.00  0.00    -0.144 A  
HETATM   15  C   UNL     1      -7.762   9.456  67.143  1.00  0.00    -0.091 A  
BRANCH  13  16
HETATM   16  O   UNL     1      -6.889   9.158  69.337  1.00  0.00    -0.047 OA 
BRANCH  16  17
HETATM   17  C   UNL     1      -7.638   8.797  70.508  1.00  0.00    -0.085 C  
BRANCH  17  18
HETATM   18  C   UNL     1      -7.239   7.379  70.940  1.00  0.00    -0.068 C  
HETATM   19  H   UNL     1      -7.493   6.254  72.530  1.00  0.00     0.000 HD 
HETATM   20  O   UNL     1      -7.739   7.132  72.263  1.00  0.00    -0.088 OA 
BRANCH  18  21
HETATM   21  C   UNL     1      -7.772   6.277  70.004  1.00  0.00    -0.101 C  
BRANCH  21  22
HETATM   22  N   UNL     1      -8.923   6.699  69.198  1.00  0.00    -0.132 NA 
HETATM   23  C   UNL     1     -10.044   5.735  69.151  1.00  0.00    -0.197 C  
HETATM   24  H   UNL     1      -8.623   6.935  68.252  1.00  0.00     0.000 HD 
HETATM   25  C   UNL     1     -11.099   6.322  68.194  1.00  0.00    -0.364 C  
HETATM   26  C   UNL     1     -10.702   5.561  70.531  1.00  0.00    -0.310 C  
HETATM   27  C   UNL     1      -9.599   4.370  68.602  1.00  0.00    -0.216 C  
ENDBRANCH  21  22
ENDBRANCH  18  21
ENDBRANCH  17  18
ENDBRANCH  16  17
ENDBRANCH  13  16
BRANCH  15  28
HETATM   28  C   UNL     1      -7.449   8.066  66.690  1.00  0.00    -0.089 C  
HETATM   29  O   UNL     1      -8.316   7.417  66.102  1.00  0.00    -0.124 OA 
HETATM   30  C   UNL     1      -6.080   7.473  66.890  1.00  0.00    -0.047 C  
ENDBRANCH  15  28
ENDBRANCH   8  10
ENDBRANCH   6   8
ENDBRANCH   3   6
ENDBRANCH   2   3
TORSDOF 11
ENDMDL
MODEL      257
REMARK 921   NORMALIZED FREE ENERGY PREDICTED BY IDOCK:   -3.44 KCAL/MOL
REMARK 922        TOTAL FREE ENERGY PREDICTED BY IDOCK:   -6.78 KCAL/MOL
REMARK 923 INTER-LIGAND FREE ENERGY PREDICTED BY IDOCK:   -5.00 KCAL/MOL
REMARK 924 INTRA-LIGAND FREE ENERGY PREDICTED BY IDOCK:   -1.77 KCAL/MOL
REMARK 927      BINDING AFFINITY PREDICTED BY RF-SCORE:    0.00 PKD
ROOT
HETATM    1  C   UNL     1      -6.359   9.924  62.580  1.00  0.00    -0.110 C  
HETATM    2  C   UNL     1      -6.524   9.680  64.074  1.00  0.00    -0.111 C  
ENDROOT
BRANCH   2   3
HETATM    3  N   UNL     1      -7.927   9.609  64.495  1.00  0.00    -0.131 N  
BRANCH   3   4
HETATM    4  C   UNL     1      -8.742  10.822  64.372  1.00  0.00    -0.081 C  
HETATM    5  C   UNL     1      -9.974  10.661  63.501  1.00  0.00    -0.347 C  
ENDBRANCH   3   4
BRANCH   3   6
HETATM    6  C   UNL     1      -8.434   8.344  64.787  1.00  0.00    -0.101 C  
HETATM    7  O   UNL     1      -8.092   7.345  64.156  1.00  0.00    -0.126 OA 
BRANCH   6   8
HETATM    8  N   UNL     1      -9.309   8.303  65.857  1.00  0.00    -0.395 N  
HETATM    9  H   UNL     1     -10.294   8.515  65.699  1.00  0.00     0.000 HD 
BRANCH   8  10
HETATM   10  C   UNL     1      -8.882   7.978  67.157  1.00  0.00    -0.131 A  
HETATM   11  C   UNL     1      -8.490   8.953  68.072  1.00  0.00    -0.126 A  
HETATM   12  C   UNL     1      -8.135   8.595  69.375  1.00  0.00    -0.111 A  
HETATM   13  C   UNL     1      -8.186   7.259  69.796  1.00  0.00    -0.130 A  
HETATM   14  C   UNL     1      -8.866   6.637  67.542  1.00  0.00    -0.116 A  
HETATM   15  C   UNL     1      -8.548   6.272  68.862  1.00  0.00    -0.125 A  
BRANCH  13  16
HETATM   16  O   UNL     1      -7.947   6.868  71.087  1.00  0.00    -0.100 OA 
BRANCH  16  17
HETATM   17  C   UNL     1      -7.819   7.899  72.078  1.00  0.00    -0.104 C  
BRANCH  17  18
HETATM   18  C   UNL     1      -8.737   7.572  73.263  1.00  0.00    -0.165 C  
HETATM   19  H   UNL     1      -8.767   7.965  75.188  1.00  0.00     0.000 HD 
HETATM   20  O   UNL     1      -8.199   8.167  74.454  1.00  0.00    -0.247 OA 
BRANCH  18  21
HETATM   21  C   UNL     1     -10.183   8.073  73.080  1.00  0.00    -0.286 C  
BRANCH  21  22
HETATM   22  N   UNL     1     -10.334   9.038  71.983  1.00  0.00    -0.308 NA 
HETATM   23  C   UNL     1     -11.617   8.961  71.253  1.00  0.00    -0.304 C  
HETATM   24  H   UNL     1      -9.553   8.955  71.332  1.00  0.00     0.000 HD 
HETATM   25  C   UNL     1     -11.538   9.982  70.102  1.00  0.00    -0.320 C  
HETATM   26  C   UNL     1     -12.806   9.349  72.149  1.00  0.00    -0.480 C  
HETATM   27  C   UNL     1     -11.846   7.567  70.647  1.00  0.00    -0.205 C  
ENDBRANCH  21  22
ENDBRANCH  18  21
ENDBRANCH  17  18
ENDBRANCH  16  17
ENDBRANCH  13  16
BRANCH  15  28
HETATM   28  C   UNL     1      -8.722   4.817  69.162  1.00  0.00    -0.087 C  
HETATM   29  O   UNL     1      -9.855   4.381  69.374  1.00  0.00    -0.203 OA 
HETATM   30  C   UNL     1      -7.549   3.875  69.152  1.00  0.00    -0.053 C  
ENDBRANCH  15  28
ENDBRANCH   8  10
ENDBRANCH   6   8
ENDBRANCH   3   6
ENDBRANCH   2   3
TORSDOF 11
ENDMDL
MODEL      258
REMARK 921   NORMALIZED FREE ENERGY PREDICTED BY IDOCK:   -3.43 KCAL/MOL
REMARK 922        TOTAL FREE ENERGY PREDICTED BY IDOCK:   -6.76 KCAL/MOL
REMARK 923 INTER-LIGAND FREE ENERGY PREDICTED BY IDOCK:   -5.75 KCAL/MOL
REMARK 924 INTRA-LIGAND FREE ENERGY PREDICTED BY IDOCK:   -1.01 KCAL/MOL
REMARK 927      BINDING AFFINITY PREDICTED BY RF-SCORE:    0.00 PKD
ROOT
HETATM    1  C   UNL     1      -7.084  19.178  65.524  1.00  0.00    -0.197 C  
HETATM    2  C   UNL     1      -8.399  19.676  66.108  1.00  0.00    -0.335 C  
ENDROOT
BRANCH   2   3
HETATM    3  N   UNL     1      -8.913  18.821  67.184  1.00  0.00    -0.276 N  
BRANCH   3   4
HETATM    4  C   UNL     1      -8.764  19.293  68.565  1.00  0.00    -0.367 C  
HETATM    5  C   UNL     1     -10.030  19.876  69.165  1.00  0.00    -0.336 C  
ENDBRANCH   3   4
BRANCH   3   6
HETATM    6  C   UNL     1      -9.686  17.724  66.803  1.00  0.00    -0.309 C  
HETATM    7  O   UNL     1     -10.105  17.592  65.654  1.00  0.00    -0.575 OA 
BRANCH   6   8
HETATM    8  N   UNL     1      -9.901  16.793  67.802  1.00  0.00    -0.252 N  
HETATM    9  H   UNL     1     -10.511  17.037  68.582  1.00  0.00     0.000 HD 
BRANCH   8  10
HETATM   10  C   UNL     1      -9.305  15.519  67.775  1.00  0.00    -0.195 A  
HETATM   11  C   UNL     1      -8.046  15.281  68.323  1.00  0.00    -0.137 A  
HETATM   12  C   UNL     1      -7.516  13.988  68.334  1.00  0.00    -0.119 A  
HETATM   13  C   UNL     1      -8.242  12.905  67.820  1.00  0.00    -0.174 A  
HETATM   14  C   UNL     1     -10.007  14.463  67.195  1.00  0.00    -0.253 A  
HETATM   15  C   UNL     1      -9.498  13.153  67.237  1.00  0.00    -0.225 A  
BRANCH  13  16
HETATM   16  O   UNL     1      -7.814  11.607  67.900  1.00  0.00    -0.116 OA 
BRANCH  16  17
HETATM   17  C   UNL     1      -7.626  11.050  69.211  1.00  0.00    -0.089 C  
BRANCH  17  18
HETATM   18  C   UNL     1      -8.620   9.899  69.413  1.00  0.00    -0.174 C  
HETATM   19  H   UNL     1      -9.342   8.436  68.319  1.00  0.00     0.000 HD 
HETATM   20  O   UNL     1      -8.726   9.150  68.193  1.00  0.00    -0.128 OA 
BRANCH  18  21
HETATM   21  C   UNL     1      -8.221   8.932  70.545  1.00  0.00    -0.145 C  
BRANCH  21  22
HETATM   22  N   UNL     1      -6.970   9.302  71.218  1.00  0.00    -0.265 NA 
HETATM   23  C   UNL     1      -6.404   8.264  72.105  1.00  0.00    -0.063 C  
HETATM   24  H   UNL     1      -7.091  10.175  71.731  1.00  0.00     0.000 HD 
HETATM   25  C   UNL     1      -5.158   8.876  72.773  1.00  0.00    -0.058 C  
HETATM   26  C   UNL     1      -5.955   7.023  71.314  1.00  0.00    -0.036 C  
HETATM   27  C   UNL     1      -7.393   7.856  73.209  1.00  0.00    -0.142 C  
ENDBRANCH  21  22
ENDBRANCH  18  21
ENDBRANCH  17  18
ENDBRANCH  16  17
ENDBRANCH  13  16
BRANCH  15  28
HETATM   28  C   UNL     1     -10.431  12.109  66.711  1.00  0.00    -0.218 C  
HETATM   29  O   UNL     1     -11.117  11.463  67.505  1.00  0.00    -0.244 OA 
HETATM   30  C   UNL     1     -10.583  11.877  65.232  1.00  0.00    -0.320 C  
ENDBRANCH  15  28
ENDBRANCH   8  10
ENDBRANCH   6   8
ENDBRANCH   3   6
ENDBRANCH   2   3
TORSDOF 11
ENDMDL
MODEL      259
REMARK 921   NORMALIZED FREE ENERGY PREDICTED BY IDOCK:   -3.40 KCAL/MOL
REMARK 922        TOTAL FREE ENERGY PREDICTED BY IDOCK:   -6.72 KCAL/MOL
REMARK 923 INTER-LIGAND FREE ENERGY PREDICTED BY IDOCK:   -5.64 KCAL/MOL
REMARK 924 INTRA-LIGAND FREE ENERGY PREDICTED BY IDOCK:   -1.09 KCAL/MOL
REMARK 927      BINDING AFFINITY PREDICTED BY RF-SCORE:    0.00 PKD
ROOT
HETATM    1  C   UNL     1     -12.219  12.168  63.442  1.00  0.00    -0.635 C  
HETATM    2  C   UNL     1     -12.411  12.471  64.921  1.00  0.00    -0.470 C  
ENDROOT
BRANCH   2   3
HETATM    3  N   UNL     1     -11.950  13.811  65.300  1.00  0.00    -0.355 N  
BRANCH   3   4
HETATM    4  C   UNL     1     -12.092  14.889  64.315  1.00  0.00    -0.353 C  
HETATM    5  C   UNL     1     -11.108  16.030  64.492  1.00  0.00    -0.269 C  
ENDBRANCH   3   4
BRANCH   3   6
HETATM    6  C   UNL     1     -11.603  14.004  66.637  1.00  0.00    -0.382 C  
HETATM    7  O   UNL     1     -12.393  14.479  67.451  1.00  0.00    -0.260 OA 
BRANCH   6   8
HETATM    8  N   UNL     1     -10.329  13.583  66.971  1.00  0.00    -0.251 N  
HETATM    9  H   UNL     1      -9.546  14.221  66.834  1.00  0.00     0.000 HD 
BRANCH   8  10
HETATM   10  C   UNL     1     -10.081  12.301  67.493  1.00  0.00    -0.201 A  
HETATM   11  C   UNL     1     -10.602  11.888  68.717  1.00  0.00    -0.234 A  
HETATM   12  C   UNL     1     -10.388  10.583  69.171  1.00  0.00    -0.240 A  
HETATM   13  C   UNL     1      -9.668   9.660  68.400  1.00  0.00    -0.150 A  
HETATM   14  C   UNL     1      -9.302  11.414  66.751  1.00  0.00    -0.192 A  
HETATM   15  C   UNL     1      -9.113  10.088  67.181  1.00  0.00    -0.154 A  
BRANCH  13  16
HETATM   16  O   UNL     1      -9.517   8.345  68.750  1.00  0.00    -0.147 OA 
BRANCH  16  17
HETATM   17  C   UNL     1      -8.621   8.046  69.833  1.00  0.00    -0.135 C  
BRANCH  17  18
HETATM   18  C   UNL     1      -9.241   6.949  70.708  1.00  0.00    -0.158 C  
HETATM   19  H   UNL     1     -10.985   6.618  71.549  1.00  0.00     0.000 HD 
HETATM   20  O   UNL     1     -10.601   7.298  71.007  1.00  0.00    -0.219 OA 
BRANCH  18  21
HETATM   21  C   UNL     1      -9.230   5.555  70.049  1.00  0.00    -0.140 C  
BRANCH  21  22
HETATM   22  N   UNL     1      -7.941   5.205  69.441  1.00  0.00    -0.083 NA 
HETATM   23  C   UNL     1      -7.542   3.789  69.587  1.00  0.00    -0.052 C  
HETATM   24  H   UNL     1      -7.206   5.816  69.798  1.00  0.00     0.000 HD 
HETATM   25  C   UNL     1      -6.138   3.653  68.966  1.00  0.00    -0.028 C  
HETATM   26  C   UNL     1      -8.491   2.850  68.822  1.00  0.00    -0.097 C  
HETATM   27  C   UNL     1      -7.460   3.369  71.064  1.00  0.00    -0.037 C  
ENDBRANCH  21  22
ENDBRANCH  18  21
ENDBRANCH  17  18
ENDBRANCH  16  17
ENDBRANCH  13  16
BRANCH  15  28
HETATM   28  C   UNL     1      -8.385   9.219  66.207  1.00  0.00    -0.122 C  
HETATM   29  O   UNL     1      -8.988   8.780  65.226  1.00  0.00    -0.194 OA 
HETATM   30  C   UNL     1      -6.919   8.919  66.377  1.00  0.00    -0.079 C  
ENDBRANCH  15  28
ENDBRANCH   8  10
ENDBRANCH   6   8
ENDBRANCH   3   6
ENDBRANCH   2   3
TORSDOF 11
ENDMDL
MODEL      260
REMARK 921   NORMALIZED FREE ENERGY PREDICTED BY IDOCK:   -3.39 KCAL/MOL
REMARK 922        TOTAL FREE ENERGY PREDICTED BY IDOCK:   -6.70 KCAL/MOL
REMARK 923 INTER-LIGAND FREE ENERGY PREDICTED BY IDOCK:   -6.01 KCAL/MOL
REMARK 924 INTRA-LIGAND FREE ENERGY PREDICTED BY IDOCK:   -0.68 KCAL/MOL
REMARK 927      BINDING AFFINITY PREDICTED BY RF-SCORE:    0.00 PKD
ROOT
HETATM    1  C   UNL     1      -7.722  16.815  68.940  1.00  0.00    -0.242 C  
HETATM    2  C   UNL     1      -8.533  17.961  68.352  1.00  0.00    -0.297 C  
ENDROOT
BRANCH   2   3
HETATM    3  N   UNL     1      -8.633  17.907  66.890  1.00  0.00    -0.238 N  
BRANCH   3   4
HETATM    4  C   UNL     1      -7.393  17.739  66.124  1.00  0.00    -0.299 C  
HETATM    5  C   UNL     1      -6.563  19.003  65.993  1.00  0.00    -0.256 C  
ENDBRANCH   3   4
BRANCH   3   6
HETATM    6  C   UNL     1      -9.914  17.814  66.348  1.00  0.00    -0.344 C  
HETATM    7  O   UNL     1     -10.254  18.470  65.364  1.00  0.00    -0.396 OA 
BRANCH   6   8
HETATM    8  N   UNL     1     -10.744  16.903  66.977  1.00  0.00    -0.218 N  
HETATM    9  H   UNL     1     -11.571  17.244  67.466  1.00  0.00     0.000 HD 
BRANCH   8  10
HETATM   10  C   UNL     1     -10.481  15.521  66.962  1.00  0.00    -0.304 A  
HETATM   11  C   UNL     1     -10.152  14.819  68.119  1.00  0.00    -0.221 A  
HETATM   12  C   UNL     1      -9.962  13.435  68.074  1.00  0.00    -0.239 A  
HETATM   13  C   UNL     1     -10.120  12.724  66.877  1.00  0.00    -0.232 A  
HETATM   14  C   UNL     1     -10.569  14.836  65.751  1.00  0.00    -0.338 A  
HETATM   15  C   UNL     1     -10.418  13.438  65.703  1.00  0.00    -0.293 A  
BRANCH  13  16
HETATM   16  O   UNL     1     -10.046  11.359  66.799  1.00  0.00    -0.207 OA 
BRANCH  16  17
HETATM   17  C   UNL     1      -8.780  10.745  67.093  1.00  0.00    -0.131 C  
BRANCH  17  18
HETATM   18  C   UNL     1      -9.025   9.381  67.750  1.00  0.00    -0.122 C  
HETATM   19  H   UNL     1      -9.153   7.516  67.146  1.00  0.00     0.000 HD 
HETATM   20  O   UNL     1      -9.002   8.361  66.739  1.00  0.00    -0.134 OA 
BRANCH  18  21
HETATM   21  C   UNL     1      -7.986   9.021  68.829  1.00  0.00    -0.101 C  
BRANCH  21  22
HETATM   22  N   UNL     1      -8.340   7.829  69.610  1.00  0.00    -0.127 NA 
HETATM   23  C   UNL     1      -7.662   7.712  70.918  1.00  0.00    -0.088 C  
HETATM   24  H   UNL     1      -8.184   6.986  69.056  1.00  0.00     0.000 HD 
HETATM   25  C   UNL     1      -8.099   6.367  71.530  1.00  0.00    -0.113 C  
HETATM   26  C   UNL     1      -8.091   8.831  71.883  1.00  0.00    -0.090 C  
HETATM   27  C   UNL     1      -6.132   7.701  70.769  1.00  0.00    -0.034 C  
ENDBRANCH  21  22
ENDBRANCH  18  21
ENDBRANCH  17  18
ENDBRANCH  16  17
ENDBRANCH  13  16
BRANCH  15  28
HETATM   28  C   UNL     1     -10.690  12.831  64.364  1.00  0.00    -0.376 C  
HETATM   29  O   UNL     1      -9.835  12.919  63.481  1.00  0.00    -0.114 OA 
HETATM   30  C   UNL     1     -11.962  12.071  64.098  1.00  0.00    -0.461 C  
ENDBRANCH  15  28
ENDBRANCH   8  10
ENDBRANCH   6   8
ENDBRANCH   3   6
ENDBRANCH   2   3
TORSDOF 11
ENDMDL
MODEL      261
REMARK 921   NORMALIZED FREE ENERGY PREDICTED BY IDOCK:   -3.36 KCAL/MOL
REMARK 922        TOTAL FREE ENERGY PREDICTED BY IDOCK:   -6.65 KCAL/MOL
REMARK 923 INTER-LIGAND FREE ENERGY PREDICTED BY IDOCK:   -5.72 KCAL/MOL
REMARK 924 INTRA-LIGAND FREE ENERGY PREDICTED BY IDOCK:   -0.93 KCAL/MOL
REMARK 927      BINDING AFFINITY PREDICTED BY RF-SCORE:    0.00 PKD
ROOT
HETATM    1  C   UNL     1     -12.211  14.103  69.571  1.00  0.00    -0.351 C  
HETATM    2  C   UNL     1     -11.156  14.517  68.554  1.00  0.00    -0.256 C  
ENDROOT
BRANCH   2   3
HETATM    3  N   UNL     1     -11.142  13.666  67.359  1.00  0.00    -0.276 N  
BRANCH   3   4
HETATM    4  C   UNL     1     -11.629  14.242  66.101  1.00  0.00    -0.369 C  
HETATM    5  C   UNL     1     -12.807  13.506  65.491  1.00  0.00    -0.406 C  
ENDBRANCH   3   4
BRANCH   3   6
HETATM    6  C   UNL     1     -10.477  12.445  67.463  1.00  0.00    -0.215 C  
HETATM    7  O   UNL     1      -9.274  12.379  67.709  1.00  0.00    -0.178 OA 
BRANCH   6   8
HETATM    8  N   UNL     1     -11.283  11.332  67.310  1.00  0.00    -0.305 N  
HETATM    9  H   UNL     1     -12.199  11.441  66.875  1.00  0.00     0.000 HD 
BRANCH   8  10
HETATM   10  C   UNL     1     -10.877  10.054  67.734  1.00  0.00    -0.282 A  
HETATM   11  C   UNL     1     -10.202   9.175  66.891  1.00  0.00    -0.336 A  
HETATM   12  C   UNL     1      -9.757   7.940  67.370  1.00  0.00    -0.210 A  
HETATM   13  C   UNL     1      -9.958   7.569  68.706  1.00  0.00    -0.172 A  
HETATM   14  C   UNL     1     -11.148   9.666  69.046  1.00  0.00    -0.104 A  
HETATM   15  C   UNL     1     -10.670   8.442  69.548  1.00  0.00    -0.181 A  
BRANCH  13  16
HETATM   16  O   UNL     1      -9.454   6.418  69.251  1.00  0.00    -0.136 OA 
BRANCH  16  17
HETATM   17  C   UNL     1      -8.305   5.833  68.617  1.00  0.00    -0.107 C  
BRANCH  17  18
HETATM   18  C   UNL     1      -8.550   4.330  68.426  1.00  0.00    -0.094 C  
HETATM   19  H   UNL     1      -9.691   2.960  69.250  1.00  0.00     0.000 HD 
HETATM   20  O   UNL     1      -9.539   3.891  69.368  1.00  0.00    -0.182 OA 
BRANCH  18  21
HETATM   21  C   UNL     1      -9.028   3.959  67.009  1.00  0.00    -0.138 C  
BRANCH  21  22
HETATM   22  N   UNL     1      -8.770   5.004  66.011  1.00  0.00    -0.123 NA 
HETATM   23  C   UNL     1      -8.208   4.524  64.731  1.00  0.00    -0.108 C  
HETATM   24  H   UNL     1      -8.172   5.729  66.407  1.00  0.00     0.000 HD 
HETATM   25  C   UNL     1      -7.931   5.770  63.867  1.00  0.00    -0.121 C  
HETATM   26  C   UNL     1      -9.205   3.633  63.970  1.00  0.00    -0.130 C  
HETATM   27  C   UNL     1      -6.881   3.774  64.936  1.00  0.00    -0.049 C  
ENDBRANCH  21  22
ENDBRANCH  18  21
ENDBRANCH  17  18
ENDBRANCH  16  17
ENDBRANCH  13  16
BRANCH  15  28
HETATM   28  C   UNL     1     -10.908   8.236  71.009  1.00  0.00    -0.233 C  
HETATM   29  O   UNL     1     -10.293   8.930  71.821  1.00  0.00    -0.310 OA 
HETATM   30  C   UNL     1     -11.924   7.239  71.499  1.00  0.00    -0.349 C  
ENDBRANCH  15  28
ENDBRANCH   8  10
ENDBRANCH   6   8
ENDBRANCH   3   6
ENDBRANCH   2   3
TORSDOF 11
ENDMDL
MODEL      262
REMARK 921   NORMALIZED FREE ENERGY PREDICTED BY IDOCK:   -3.35 KCAL/MOL
REMARK 922        TOTAL FREE ENERGY PREDICTED BY IDOCK:   -6.63 KCAL/MOL
REMARK 923 INTER-LIGAND FREE ENERGY PREDICTED BY IDOCK:   -5.92 KCAL/MOL
REMARK 924 INTRA-LIGAND FREE ENERGY PREDICTED BY IDOCK:   -0.71 KCAL/MOL
REMARK 927      BINDING AFFINITY PREDICTED BY RF-SCORE:    0.00 PKD
ROOT
HETATM    1  C   UNL     1      -7.341   6.211  69.083  1.00  0.00    -0.085 C  
HETATM    2  C   UNL     1      -8.513   5.372  68.591  1.00  0.00    -0.093 C  
ENDROOT
BRANCH   2   3
HETATM    3  N   UNL     1      -9.809   6.038  68.757  1.00  0.00    -0.134 N  
BRANCH   3   4
HETATM    4  C   UNL     1     -10.709   5.537  69.801  1.00  0.00    -0.285 C  
HETATM    5  C   UNL     1     -10.109   5.533  71.194  1.00  0.00    -0.267 C  
ENDBRANCH   3   4
BRANCH   3   6
HETATM    6  C   UNL     1     -10.002   7.225  68.051  1.00  0.00    -0.157 C  
HETATM    7  O   UNL     1      -9.638   7.353  66.883  1.00  0.00    -0.166 OA 
BRANCH   6   8
HETATM    8  N   UNL     1     -10.666   8.215  68.753  1.00  0.00    -0.403 N  
HETATM    9  H   UNL     1     -11.373   7.947  69.436  1.00  0.00     0.000 HD 
BRANCH   8  10
HETATM   10  C   UNL     1     -10.393   9.581  68.552  1.00  0.00    -0.207 A  
HETATM   11  C   UNL     1     -11.407  10.534  68.484  1.00  0.00    -0.320 A  
HETATM   12  C   UNL     1     -11.093  11.889  68.349  1.00  0.00    -0.292 A  
HETATM   13  C   UNL     1      -9.760  12.319  68.304  1.00  0.00    -0.219 A  
HETATM   14  C   UNL     1      -9.065   9.989  68.434  1.00  0.00    -0.121 A  
HETATM   15  C   UNL     1      -8.738  11.353  68.338  1.00  0.00    -0.157 A  
BRANCH  13  16
HETATM   16  O   UNL     1      -9.397  13.639  68.276  1.00  0.00    -0.200 OA 
BRANCH  16  17
HETATM   17  C   UNL     1      -8.620  14.089  67.154  1.00  0.00    -0.205 C  
BRANCH  17  18
HETATM   18  C   UNL     1      -8.989  15.545  66.841  1.00  0.00    -0.246 C  
HETATM   19  H   UNL     1      -8.124  17.070  65.954  1.00  0.00     0.000 HD 
HETATM   20  O   UNL     1      -7.896  16.168  66.148  1.00  0.00    -0.159 OA 
BRANCH  18  21
HETATM   21  C   UNL     1     -10.257  15.688  65.977  1.00  0.00    -0.335 C  
BRANCH  21  22
HETATM   22  N   UNL     1     -11.213  14.588  66.155  1.00  0.00    -0.334 NA 
HETATM   23  C   UNL     1     -11.570  13.862  64.918  1.00  0.00    -0.359 C  
HETATM   24  H   UNL     1     -12.056  14.927  66.620  1.00  0.00     0.000 HD 
HETATM   25  C   UNL     1     -12.638  12.820  65.303  1.00  0.00    -0.460 C  
HETATM   26  C   UNL     1     -10.363  13.107  64.333  1.00  0.00    -0.390 C  
HETATM   27  C   UNL     1     -12.170  14.800  63.859  1.00  0.00    -0.023 C  
ENDBRANCH  21  22
ENDBRANCH  18  21
ENDBRANCH  17  18
ENDBRANCH  16  17
ENDBRANCH  13  16
BRANCH  15  28
HETATM   28  C   UNL     1      -7.272  11.643  68.372  1.00  0.00    -0.088 C  
HETATM   29  O   UNL     1      -6.766  12.054  69.418  1.00  0.00    -0.110 OA 
HETATM   30  C   UNL     1      -6.401  11.388  67.172  1.00  0.00    -0.109 C  
ENDBRANCH  15  28
ENDBRANCH   8  10
ENDBRANCH   6   8
ENDBRANCH   3   6
ENDBRANCH   2   3
TORSDOF 11
ENDMDL
MODEL      263
REMARK 921   NORMALIZED FREE ENERGY PREDICTED BY IDOCK:   -3.34 KCAL/MOL
REMARK 922        TOTAL FREE ENERGY PREDICTED BY IDOCK:   -6.63 KCAL/MOL
REMARK 923 INTER-LIGAND FREE ENERGY PREDICTED BY IDOCK:   -5.81 KCAL/MOL
REMARK 924 INTRA-LIGAND FREE ENERGY PREDICTED BY IDOCK:   -0.82 KCAL/MOL
REMARK 927      BINDING AFFINITY PREDICTED BY RF-SCORE:    0.00 PKD
ROOT
HETATM    1  C   UNL     1     -10.709  16.157  65.382  1.00  0.00    -0.374 C  
HETATM    2  C   UNL     1     -11.073  14.913  66.180  1.00  0.00    -0.335 C  
ENDROOT
BRANCH   2   3
HETATM    3  N   UNL     1     -10.071  14.564  67.193  1.00  0.00    -0.250 N  
BRANCH   3   4
HETATM    4  C   UNL     1     -10.431  14.743  68.604  1.00  0.00    -0.250 C  
HETATM    5  C   UNL     1     -11.650  15.617  68.832  1.00  0.00    -0.392 C  
ENDBRANCH   3   4
BRANCH   3   6
HETATM    6  C   UNL     1      -8.931  13.896  66.748  1.00  0.00    -0.188 C  
HETATM    7  O   UNL     1      -7.807  14.182  67.160  1.00  0.00    -0.158 OA 
BRANCH   6   8
HETATM    8  N   UNL     1      -9.172  12.874  65.849  1.00  0.00    -0.451 N  
HETATM    9  H   UNL     1      -9.265  13.098  64.858  1.00  0.00     0.000 HD 
BRANCH   8  10
HETATM   10  C   UNL     1      -9.294  11.534  66.259  1.00  0.00    -0.213 A  
HETATM   11  C   UNL     1     -10.407  11.074  66.960  1.00  0.00    -0.269 A  
HETATM   12  C   UNL     1     -10.521   9.722  67.292  1.00  0.00    -0.324 A  
HETATM   13  C   UNL     1      -9.538   8.799  66.911  1.00  0.00    -0.190 A  
HETATM   14  C   UNL     1      -8.274  10.639  65.937  1.00  0.00    -0.159 A  
HETATM   15  C   UNL     1      -8.399   9.270  66.233  1.00  0.00    -0.124 A  
BRANCH  13  16
HETATM   16  O   UNL     1      -9.651   7.450  67.121  1.00  0.00    -0.142 OA 
BRANCH  16  17
HETATM   17  C   UNL     1      -9.555   6.981  68.476  1.00  0.00    -0.137 C  
BRANCH  17  18
HETATM   18  C   UNL     1     -10.776   6.105  68.790  1.00  0.00    -0.308 C  
HETATM   19  H   UNL     1     -11.278   4.224  68.533  1.00  0.00     0.000 HD 
HETATM   20  O   UNL     1     -10.523   4.766  68.338  1.00  0.00     0.028 OA 
BRANCH  18  21
HETATM   21  C   UNL     1     -11.129   6.055  70.289  1.00  0.00    -0.345 C  
BRANCH  21  22
HETATM   22  N   UNL     1      -9.956   5.939  71.164  1.00  0.00    -0.184 NA 
HETATM   23  C   UNL     1     -10.074   4.932  72.240  1.00  0.00    -0.191 C  
HETATM   24  H   UNL     1      -9.721   6.850  71.559  1.00  0.00     0.000 HD 
HETATM   25  C   UNL     1      -8.790   5.030  73.087  1.00  0.00    -0.111 C  
HETATM   26  C   UNL     1     -10.159   3.504  71.674  1.00  0.00    -0.118 C  
HETATM   27  C   UNL     1     -11.278   5.211  73.153  1.00  0.00    -0.398 C  
ENDBRANCH  21  22
ENDBRANCH  18  21
ENDBRANCH  17  18
ENDBRANCH  16  17
ENDBRANCH  13  16
BRANCH  15  28
HETATM   28  C   UNL     1      -7.297   8.416  65.693  1.00  0.00    -0.076 C  
HETATM   29  O   UNL     1      -6.132   8.681  65.993  1.00  0.00    -0.047 OA 
HETATM   30  C   UNL     1      -7.593   7.213  64.838  1.00  0.00    -0.103 C  
ENDBRANCH  15  28
ENDBRANCH   8  10
ENDBRANCH   6   8
ENDBRANCH   3   6
ENDBRANCH   2   3
TORSDOF 11
ENDMDL
MODEL      264
REMARK 921   NORMALIZED FREE ENERGY PREDICTED BY IDOCK:   -3.30 KCAL/MOL
REMARK 922        TOTAL FREE ENERGY PREDICTED BY IDOCK:   -6.56 KCAL/MOL
REMARK 923 INTER-LIGAND FREE ENERGY PREDICTED BY IDOCK:   -5.44 KCAL/MOL
REMARK 924 INTRA-LIGAND FREE ENERGY PREDICTED BY IDOCK:   -1.12 KCAL/MOL
REMARK 927      BINDING AFFINITY PREDICTED BY RF-SCORE:    0.00 PKD
ROOT
HETATM    1  C   UNL     1      -6.849   5.757  70.556  1.00  0.00    -0.056 C  
HETATM    2  C   UNL     1      -6.685   4.392  71.210  1.00  0.00    -0.031 C  
ENDROOT
BRANCH   2   3
HETATM    3  N   UNL     1      -7.952   3.823  71.682  1.00  0.00    -0.061 N  
BRANCH   3   4
HETATM    4  C   UNL     1      -8.201   2.400  71.430  1.00  0.00    -0.054 C  
HETATM    5  C   UNL     1      -8.285   2.031  69.960  1.00  0.00    -0.061 C  
ENDBRANCH   3   4
BRANCH   3   6
HETATM    6  C   UNL     1      -8.732   4.626  72.514  1.00  0.00    -0.115 C  
HETATM    7  O   UNL     1      -8.269   5.164  73.518  1.00  0.00    -0.109 OA 
BRANCH   6   8
HETATM    8  N   UNL     1     -10.040   4.794  72.096  1.00  0.00    -0.186 N  
HETATM    9  H   UNL     1     -10.661   3.986  72.078  1.00  0.00     0.000 HD 
BRANCH   8  10
HETATM   10  C   UNL     1     -10.538   6.047  71.696  1.00  0.00    -0.236 A  
HETATM   11  C   UNL     1     -11.379   6.802  72.511  1.00  0.00    -0.292 A  
HETATM   12  C   UNL     1     -11.800   8.071  72.105  1.00  0.00    -0.401 A  
HETATM   13  C   UNL     1     -11.372   8.620  70.888  1.00  0.00    -0.272 A  
HETATM   14  C   UNL     1     -10.164   6.551  70.451  1.00  0.00    -0.227 A  
HETATM   15  C   UNL     1     -10.551   7.842  70.051  1.00  0.00    -0.242 A  
BRANCH  13  16
HETATM   16  O   UNL     1     -11.671   9.895  70.491  1.00  0.00    -0.272 OA 
BRANCH  16  17
HETATM   17  C   UNL     1     -12.946  10.429  70.884  1.00  0.00    -0.387 C  
BRANCH  17  18
HETATM   18  C   UNL     1     -12.872  11.962  70.877  1.00  0.00    -0.130 C  
HETATM   19  H   UNL     1     -12.627  13.379  72.215  1.00  0.00     0.000 HD 
HETATM   20  O   UNL     1     -12.674  12.429  72.219  1.00  0.00    -0.060 OA 
BRANCH  18  21
HETATM   21  C   UNL     1     -11.738  12.520  69.995  1.00  0.00    -0.221 C  
BRANCH  21  22
HETATM   22  N   UNL     1     -12.127  13.704  69.220  1.00  0.00    -0.335 NA 
HETATM   23  C   UNL     1     -11.284  14.900  69.438  1.00  0.00    -0.283 C  
HETATM   24  H   UNL     1     -13.107  13.930  69.390  1.00  0.00     0.000 HD 
HETATM   25  C   UNL     1     -11.907  16.042  68.611  1.00  0.00    -0.174 C  
HETATM   26  C   UNL     1      -9.847  14.681  68.935  1.00  0.00    -0.211 C  
HETATM   27  C   UNL     1     -11.268  15.325  70.915  1.00  0.00    -0.367 C  
ENDBRANCH  21  22
ENDBRANCH  18  21
ENDBRANCH  17  18
ENDBRANCH  16  17
ENDBRANCH  13  16
BRANCH  15  28
HETATM   28  C   UNL     1      -9.948   8.299  68.762  1.00  0.00    -0.183 C  
HETATM   29  O   UNL     1      -8.853   8.864  68.778  1.00  0.00    -0.135 OA 
HETATM   30  C   UNL     1     -10.629   8.030  67.446  1.00  0.00    -0.337 C  
ENDBRANCH  15  28
ENDBRANCH   8  10
ENDBRANCH   6   8
ENDBRANCH   3   6
ENDBRANCH   2   3
TORSDOF 11
ENDMDL
MODEL      265
REMARK 921   NORMALIZED FREE ENERGY PREDICTED BY IDOCK:   -3.29 KCAL/MOL
REMARK 922        TOTAL FREE ENERGY PREDICTED BY IDOCK:   -6.53 KCAL/MOL
REMARK 923 INTER-LIGAND FREE ENERGY PREDICTED BY IDOCK:   -5.36 KCAL/MOL
REMARK 924 INTRA-LIGAND FREE ENERGY PREDICTED BY IDOCK:   -1.17 KCAL/MOL
REMARK 927      BINDING AFFINITY PREDICTED BY RF-SCORE:    0.00 PKD
ROOT
HETATM    1  C   UNL     1      -9.566  10.730  62.877  1.00  0.00    -0.366 C  
HETATM    2  C   UNL     1      -9.888  10.588  64.358  1.00  0.00    -0.341 C  
ENDROOT
BRANCH   2   3
HETATM    3  N   UNL     1     -10.857  11.580  64.836  1.00  0.00    -0.298 N  
BRANCH   3   4
HETATM    4  C   UNL     1     -12.040  11.837  64.008  1.00  0.00    -0.259 C  
HETATM    5  C   UNL     1     -12.070  13.214  63.371  1.00  0.00    -0.558 C  
ENDBRANCH   3   4
BRANCH   3   6
HETATM    6  C   UNL     1     -10.685  12.054  66.136  1.00  0.00    -0.275 C  
HETATM    7  O   UNL     1     -10.144  13.134  66.369  1.00  0.00    -0.267 OA 
BRANCH   6   8
HETATM    8  N   UNL     1     -11.203  11.236  67.124  1.00  0.00    -0.300 N  
HETATM    9  H   UNL     1     -12.178  11.352  67.400  1.00  0.00     0.000 HD 
BRANCH   8  10
HETATM   10  C   UNL     1     -10.427  10.249  67.757  1.00  0.00    -0.226 A  
HETATM   11  C   UNL     1      -9.161  10.521  68.270  1.00  0.00    -0.146 A  
HETATM   12  C   UNL     1      -8.448   9.530  68.951  1.00  0.00    -0.123 A  
HETATM   13  C   UNL     1      -8.996   8.256  69.153  1.00  0.00    -0.147 A  
HETATM   14  C   UNL     1     -10.953   8.964  67.888  1.00  0.00     0.031 A  
HETATM   15  C   UNL     1     -10.260   7.972  68.605  1.00  0.00    -0.225 A  
BRANCH  13  16
HETATM   16  O   UNL     1      -8.385   7.285  69.899  1.00  0.00    -0.131 OA 
BRANCH  16  17
HETATM   17  C   UNL     1      -7.050   6.904  69.526  1.00  0.00    -0.075 C  
BRANCH  17  18
HETATM   18  C   UNL     1      -6.630   5.679  70.349  1.00  0.00    -0.046 C  
HETATM   19  H   UNL     1      -7.248   4.788  71.987  1.00  0.00     0.000 HD 
HETATM   20  O   UNL     1      -7.508   5.547  71.477  1.00  0.00    -0.089 OA 
BRANCH  18  21
HETATM   21  C   UNL     1      -6.660   4.361  69.551  1.00  0.00    -0.033 C  
BRANCH  21  22
HETATM   22  N   UNL     1      -7.617   4.371  68.439  1.00  0.00    -0.064 NA 
HETATM   23  C   UNL     1      -8.412   3.133  68.284  1.00  0.00    -0.081 C  
HETATM   24  H   UNL     1      -7.140   4.594  67.565  1.00  0.00     0.000 HD 
HETATM   25  C   UNL     1      -9.279   3.313  67.023  1.00  0.00    -0.206 C  
HETATM   26  C   UNL     1      -9.355   2.910  69.479  1.00  0.00    -0.199 C  
HETATM   27  C   UNL     1      -7.514   1.902  68.081  1.00  0.00    -0.050 C  
ENDBRANCH  21  22
ENDBRANCH  18  21
ENDBRANCH  17  18
ENDBRANCH  16  17
ENDBRANCH  13  16
BRANCH  15  28
HETATM   28  C   UNL     1     -11.017   6.697  68.788  1.00  0.00    -0.260 C  
HETATM   29  O   UNL     1     -11.005   5.857  67.886  1.00  0.00    -0.276 OA 
HETATM   30  C   UNL     1     -11.744   6.400  70.073  1.00  0.00    -0.345 C  
ENDBRANCH  15  28
ENDBRANCH   8  10
ENDBRANCH   6   8
ENDBRANCH   3   6
ENDBRANCH   2   3
TORSDOF 11
ENDMDL
MODEL      266
REMARK 921   NORMALIZED FREE ENERGY PREDICTED BY IDOCK:   -3.27 KCAL/MOL
REMARK 922        TOTAL FREE ENERGY PREDICTED BY IDOCK:   -6.50 KCAL/MOL
REMARK 923 INTER-LIGAND FREE ENERGY PREDICTED BY IDOCK:   -5.65 KCAL/MOL
REMARK 924 INTRA-LIGAND FREE ENERGY PREDICTED BY IDOCK:   -0.85 KCAL/MOL
REMARK 927      BINDING AFFINITY PREDICTED BY RF-SCORE:    0.00 PKD
ROOT
HETATM    1  C   UNL     1      -9.812  15.074  65.627  1.00  0.00    -0.380 C  
HETATM    2  C   UNL     1     -10.735  15.384  66.798  1.00  0.00    -0.310 C  
ENDROOT
BRANCH   2   3
HETATM    3  N   UNL     1     -11.495  14.217  67.258  1.00  0.00    -0.331 N  
BRANCH   3   4
HETATM    4  C   UNL     1     -12.057  13.320  66.241  1.00  0.00    -0.414 C  
HETATM    5  C   UNL     1     -12.908  14.017  65.196  1.00  0.00    -0.368 C  
ENDBRANCH   3   4
BRANCH   3   6
HETATM    6  C   UNL     1     -11.452  13.934  68.623  1.00  0.00    -0.298 C  
HETATM    7  O   UNL     1     -12.364  14.259  69.383  1.00  0.00    -0.310 OA 
BRANCH   6   8
HETATM    8  N   UNL     1     -10.334  13.232  69.034  1.00  0.00    -0.432 N  
HETATM    9  H   UNL     1      -9.520  13.749  69.365  1.00  0.00     0.000 HD 
BRANCH   8  10
HETATM   10  C   UNL     1     -10.287  11.826  69.010  1.00  0.00    -0.059 A  
HETATM   11  C   UNL     1     -10.987  11.048  69.928  1.00  0.00    -0.218 A  
HETATM   12  C   UNL     1     -10.967   9.654  69.831  1.00  0.00    -0.281 A  
HETATM   13  C   UNL     1     -10.266   9.012  68.800  1.00  0.00    -0.208 A  
HETATM   14  C   UNL     1      -9.527  11.199  68.024  1.00  0.00    -0.174 A  
HETATM   15  C   UNL     1      -9.532   9.798  67.894  1.00  0.00    -0.146 A  
BRANCH  13  16
HETATM   16  O   UNL     1     -10.298   7.658  68.599  1.00  0.00    -0.197 OA 
BRANCH  16  17
HETATM   17  C   UNL     1      -9.732   6.823  69.622  1.00  0.00    -0.155 C  
BRANCH  17  18
HETATM   18  C   UNL     1      -8.622   5.960  69.007  1.00  0.00    -0.114 C  
HETATM   19  H   UNL     1      -6.818   5.382  69.528  1.00  0.00     0.000 HD 
HETATM   20  O   UNL     1      -7.506   5.916  69.909  1.00  0.00    -0.075 OA 
BRANCH  18  21
HETATM   21  C   UNL     1      -9.061   4.514  68.705  1.00  0.00    -0.120 C  
BRANCH  21  22
HETATM   22  N   UNL     1      -9.352   4.273  67.287  1.00  0.00    -0.151 NA 
HETATM   23  C   UNL     1      -8.692   3.086  66.704  1.00  0.00    -0.129 C  
HETATM   24  H   UNL     1      -9.132   5.104  66.737  1.00  0.00     0.000 HD 
HETATM   25  C   UNL     1      -9.052   3.064  65.206  1.00  0.00    -0.149 C  
HETATM   26  C   UNL     1      -9.209   1.781  67.333  1.00  0.00    -0.129 C  
HETATM   27  C   UNL     1      -7.162   3.164  66.832  1.00  0.00    -0.058 C  
ENDBRANCH  21  22
ENDBRANCH  18  21
ENDBRANCH  17  18
ENDBRANCH  16  17
ENDBRANCH  13  16
BRANCH  15  28
HETATM   28  C   UNL     1      -8.793   9.284  66.700  1.00  0.00    -0.128 C  
HETATM   29  O   UNL     1      -9.430   8.791  65.767  1.00  0.00    -0.229 OA 
HETATM   30  C   UNL     1      -7.297   9.408  66.599  1.00  0.00    -0.090 C  
ENDBRANCH  15  28
ENDBRANCH   8  10
ENDBRANCH   6   8
ENDBRANCH   3   6
ENDBRANCH   2   3
TORSDOF 11
ENDMDL
MODEL      267
REMARK 921   NORMALIZED FREE ENERGY PREDICTED BY IDOCK:   -3.13 KCAL/MOL
REMARK 922        TOTAL FREE ENERGY PREDICTED BY IDOCK:   -6.28 KCAL/MOL
REMARK 923 INTER-LIGAND FREE ENERGY PREDICTED BY IDOCK:   -4.79 KCAL/MOL
REMARK 924 INTRA-LIGAND FREE ENERGY PREDICTED BY IDOCK:   -1.49 KCAL/MOL
REMARK 927      BINDING AFFINITY PREDICTED BY RF-SCORE:    0.00 PKD
ROOT
HETATM    1  C   UNL     1      -8.623   5.603  74.477  1.00  0.00    -0.110 C  
HETATM    2  C   UNL     1      -8.053   6.986  74.195  1.00  0.00    -0.125 C  
ENDROOT
BRANCH   2   3
HETATM    3  N   UNL     1      -7.692   7.186  72.788  1.00  0.00    -0.083 N  
BRANCH   3   4
HETATM    4  C   UNL     1      -7.505   5.995  71.952  1.00  0.00    -0.095 C  
HETATM    5  C   UNL     1      -6.143   5.905  71.289  1.00  0.00    -0.034 C  
ENDBRANCH   3   4
BRANCH   3   6
HETATM    6  C   UNL     1      -7.755   8.491  72.300  1.00  0.00    -0.059 C  
HETATM    7  O   UNL     1      -6.854   9.304  72.500  1.00  0.00    -0.293 OA 
BRANCH   6   8
HETATM    8  N   UNL     1      -8.881   8.775  71.549  1.00  0.00    -0.220 N  
HETATM    9  H   UNL     1      -9.801   8.668  71.977  1.00  0.00     0.000 HD 
BRANCH   8  10
HETATM   10  C   UNL     1      -8.796   9.205  70.213  1.00  0.00    -0.213 A  
HETATM   11  C   UNL     1      -7.883   8.656  69.316  1.00  0.00    -0.101 A  
HETATM   12  C   UNL     1      -7.874   9.065  67.980  1.00  0.00    -0.101 A  
HETATM   13  C   UNL     1      -8.792  10.012  67.508  1.00  0.00    -0.128 A  
HETATM   14  C   UNL     1      -9.667  10.202  69.773  1.00  0.00    -0.232 A  
HETATM   15  C   UNL     1      -9.692  10.591  68.422  1.00  0.00    -0.166 A  
BRANCH  13  16
HETATM   16  O   UNL     1      -8.893  10.371  66.191  1.00  0.00    -0.150 OA 
BRANCH  16  17
HETATM   17  C   UNL     1      -9.426   9.397  65.278  1.00  0.00    -0.227 C  
BRANCH  17  18
HETATM   18  C   UNL     1      -8.278   8.806  64.450  1.00  0.00    -0.168 C  
HETATM   19  H   UNL     1      -6.391   9.242  64.122  1.00  0.00     0.000 HD 
HETATM   20  O   UNL     1      -7.103   9.608  64.635  1.00  0.00    -0.108 OA 
BRANCH  18  21
HETATM   21  C   UNL     1      -7.937   7.349  64.821  1.00  0.00    -0.127 C  
BRANCH  21  22
HETATM   22  N   UNL     1      -9.108   6.555  65.213  1.00  0.00    -0.350 NA 
HETATM   23  C   UNL     1      -8.800   5.239  65.813  1.00  0.00    -0.149 C  
HETATM   24  H   UNL     1      -9.737   6.441  64.419  1.00  0.00     0.000 HD 
HETATM   25  C   UNL     1     -10.148   4.537  66.068  1.00  0.00    -0.282 C  
HETATM   26  C   UNL     1      -8.080   5.384  67.164  1.00  0.00    -0.101 C  
HETATM   27  C   UNL     1      -7.970   4.360  64.863  1.00  0.00    -0.094 C  
ENDBRANCH  21  22
ENDBRANCH  18  21
ENDBRANCH  17  18
ENDBRANCH  16  17
ENDBRANCH  13  16
BRANCH  15  28
HETATM   28  C   UNL     1     -10.779  11.557  68.075  1.00  0.00    -0.202 C  
HETATM   29  O   UNL     1     -11.867  11.123  67.692  1.00  0.00    -0.612 OA 
HETATM   30  C   UNL     1     -10.583  13.040  68.239  1.00  0.00    -0.260 C  
ENDBRANCH  15  28
ENDBRANCH   8  10
ENDBRANCH   6   8
ENDBRANCH   3   6
ENDBRANCH   2   3
TORSDOF 11
ENDMDL
MODEL      268
REMARK 921   NORMALIZED FREE ENERGY PREDICTED BY IDOCK:   -3.13 KCAL/MOL
REMARK 922        TOTAL FREE ENERGY PREDICTED BY IDOCK:   -6.27 KCAL/MOL
REMARK 923 INTER-LIGAND FREE ENERGY PREDICTED BY IDOCK:   -4.77 KCAL/MOL
REMARK 924 INTRA-LIGAND FREE ENERGY PREDICTED BY IDOCK:   -1.50 KCAL/MOL
REMARK 927      BINDING AFFINITY PREDICTED BY RF-SCORE:    0.00 PKD
ROOT
HETATM    1  C   UNL     1      -7.922   6.520  62.800  1.00  0.00    -0.092 C  
HETATM    2  C   UNL     1      -7.809   7.177  64.169  1.00  0.00    -0.113 C  
ENDROOT
BRANCH   2   3
HETATM    3  N   UNL     1      -6.825   8.264  64.208  1.00  0.00    -0.066 N  
BRANCH   3   4
HETATM    4  C   UNL     1      -6.847   9.249  63.120  1.00  0.00    -0.090 C  
HETATM    5  C   UNL     1      -8.045  10.180  63.145  1.00  0.00    -0.158 C  
ENDBRANCH   3   4
BRANCH   3   6
HETATM    6  C   UNL     1      -6.079   8.397  65.378  1.00  0.00    -0.045 C  
HETATM    7  O   UNL     1      -5.510   7.439  65.899  1.00  0.00    -0.027 OA 
BRANCH   6   8
HETATM    8  N   UNL     1      -6.001   9.687  65.872  1.00  0.00    -0.057 N  
HETATM    9  H   UNL     1      -5.159  10.233  65.696  1.00  0.00     0.000 HD 
BRANCH   8  10
HETATM   10  C   UNL     1      -7.049  10.267  66.610  1.00  0.00    -0.108 A  
HETATM   11  C   UNL     1      -8.167   9.536  67.005  1.00  0.00    -0.113 A  
HETATM   12  C   UNL     1      -9.156  10.131  67.793  1.00  0.00    -0.135 A  
HETATM   13  C   UNL     1      -9.036  11.460  68.220  1.00  0.00    -0.175 A  
HETATM   14  C   UNL     1      -6.953  11.611  66.967  1.00  0.00    -0.144 A  
HETATM   15  C   UNL     1      -7.924  12.207  67.792  1.00  0.00    -0.151 A  
BRANCH  13  16
HETATM   16  O   UNL     1      -9.922  12.058  69.075  1.00  0.00    -0.041 OA 
BRANCH  16  17
HETATM   17  C   UNL     1     -11.311  11.715  68.937  1.00  0.00    -0.267 C  
BRANCH  17  18
HETATM   18  C   UNL     1     -12.025  12.823  68.152  1.00  0.00    -0.246 C  
HETATM   19  H   UNL     1     -11.880  14.776  68.001  1.00  0.00     0.000 HD 
HETATM   20  O   UNL     1     -11.438  14.089  68.487  1.00  0.00    -0.265 OA 
BRANCH  18  21
HETATM   21  C   UNL     1     -11.952  12.641  66.624  1.00  0.00    -0.312 C  
BRANCH  21  22
HETATM   22  N   UNL     1     -12.382  13.826  65.871  1.00  0.00    -0.462 NA 
HETATM   23  C   UNL     1     -11.682  14.042  64.587  1.00  0.00    -0.405 C  
HETATM   24  H   UNL     1     -12.310  14.659  66.456  1.00  0.00     0.000 HD 
HETATM   25  C   UNL     1     -12.211  15.368  64.006  1.00  0.00     0.031 C  
HETATM   26  C   UNL     1     -11.992  12.925  63.576  1.00  0.00    -0.629 C  
HETATM   27  C   UNL     1     -10.162  14.172  64.781  1.00  0.00    -0.311 C  
ENDBRANCH  21  22
ENDBRANCH  18  21
ENDBRANCH  17  18
ENDBRANCH  16  17
ENDBRANCH  13  16
BRANCH  15  28
HETATM   28  C   UNL     1      -7.605  13.606  68.212  1.00  0.00    -0.130 C  
HETATM   29  O   UNL     1      -8.264  14.537  67.745  1.00  0.00    -0.142 OA 
HETATM   30  C   UNL     1      -6.535  13.888  69.233  1.00  0.00    -0.115 C  
ENDBRANCH  15  28
ENDBRANCH   8  10
ENDBRANCH   6   8
ENDBRANCH   3   6
ENDBRANCH   2   3
TORSDOF 11
ENDMDL
MODEL      269
REMARK 921   NORMALIZED FREE ENERGY PREDICTED BY IDOCK:   -3.13 KCAL/MOL
REMARK 922        TOTAL FREE ENERGY PREDICTED BY IDOCK:   -6.27 KCAL/MOL
REMARK 923 INTER-LIGAND FREE ENERGY PREDICTED BY IDOCK:   -4.91 KCAL/MOL
REMARK 924 INTRA-LIGAND FREE ENERGY PREDICTED BY IDOCK:   -1.36 KCAL/MOL
REMARK 927      BINDING AFFINITY PREDICTED BY RF-SCORE:    0.00 PKD
ROOT
HETATM    1  C   UNL     1      -9.960   4.485  71.661  1.00  0.00    -0.266 C  
HETATM    2  C   UNL     1      -9.624   5.541  70.617  1.00  0.00    -0.170 C  
ENDROOT
BRANCH   2   3
HETATM    3  N   UNL     1      -8.709   5.056  69.579  1.00  0.00    -0.090 N  
BRANCH   3   4
HETATM    4  C   UNL     1      -7.375   4.608  69.994  1.00  0.00    -0.054 C  
HETATM    5  C   UNL     1      -6.283   5.645  69.812  1.00  0.00    -0.029 C  
ENDBRANCH   3   4
BRANCH   3   6
HETATM    6  C   UNL     1      -9.245   4.863  68.306  1.00  0.00    -0.123 C  
HETATM    7  O   UNL     1     -10.116   4.022  68.088  1.00  0.00     0.035 OA 
BRANCH   6   8
HETATM    8  N   UNL     1      -8.750   5.714  67.334  1.00  0.00    -0.109 N  
HETATM    9  H   UNL     1      -8.226   5.320  66.553  1.00  0.00     0.000 HD 
BRANCH   8  10
HETATM   10  C   UNL     1      -8.949   7.105  67.391  1.00  0.00    -0.122 A  
HETATM   11  C   UNL     1     -10.216   7.675  67.294  1.00  0.00    -0.342 A  
HETATM   12  C   UNL     1     -10.379   9.057  67.420  1.00  0.00    -0.335 A  
HETATM   13  C   UNL     1      -9.282   9.894  67.670  1.00  0.00    -0.133 A  
HETATM   14  C   UNL     1      -7.841   7.933  67.566  1.00  0.00    -0.122 A  
HETATM   15  C   UNL     1      -7.999   9.321  67.734  1.00  0.00    -0.100 A  
BRANCH  13  16
HETATM   16  O   UNL     1      -9.399  11.238  67.904  1.00  0.00    -0.153 OA 
BRANCH  16  17
HETATM   17  C   UNL     1      -9.769  12.073  66.795  1.00  0.00    -0.207 C  
BRANCH  17  18
HETATM   18  C   UNL     1     -11.110  12.751  67.103  1.00  0.00    -0.277 C  
HETATM   19  H   UNL     1     -12.959  12.165  67.418  1.00  0.00     0.000 HD 
HETATM   20  O   UNL     1     -12.127  11.745  67.227  1.00  0.00    -0.595 OA 
BRANCH  18  21
HETATM   21  C   UNL     1     -11.095  13.590  68.396  1.00  0.00    -0.271 C  
BRANCH  21  22
HETATM   22  N   UNL     1      -9.769  14.123  68.732  1.00  0.00    -0.349 NA 
HETATM   23  C   UNL     1      -9.707  15.592  68.892  1.00  0.00    -0.223 C  
HETATM   24  H   UNL     1      -9.081  13.815  68.044  1.00  0.00     0.000 HD 
HETATM   25  C   UNL     1      -8.231  15.951  69.151  1.00  0.00    -0.240 C  
HETATM   26  C   UNL     1     -10.529  16.067  70.103  1.00  0.00    -0.198 C  
HETATM   27  C   UNL     1     -10.167  16.325  67.622  1.00  0.00    -0.272 C  
ENDBRANCH  21  22
ENDBRANCH  18  21
ENDBRANCH  17  18
ENDBRANCH  16  17
ENDBRANCH  13  16
BRANCH  15  28
HETATM   28  C   UNL     1      -6.738  10.053  68.063  1.00  0.00    -0.064 C  
HETATM   29  O   UNL     1      -6.452  10.253  69.245  1.00  0.00    -0.044 OA 
HETATM   30  C   UNL     1      -5.791  10.497  66.980  1.00  0.00    -0.052 C  
ENDBRANCH  15  28
ENDBRANCH   8  10
ENDBRANCH   6   8
ENDBRANCH   3   6
ENDBRANCH   2   3
TORSDOF 11
ENDMDL
MODEL      270
REMARK 921   NORMALIZED FREE ENERGY PREDICTED BY IDOCK:   -2.99 KCAL/MOL
REMARK 922        TOTAL FREE ENERGY PREDICTED BY IDOCK:   -6.05 KCAL/MOL
REMARK 923 INTER-LIGAND FREE ENERGY PREDICTED BY IDOCK:   -5.87 KCAL/MOL
REMARK 924 INTRA-LIGAND FREE ENERGY PREDICTED BY IDOCK:   -0.18 KCAL/MOL
REMARK 927      BINDING AFFINITY PREDICTED BY RF-SCORE:    0.00 PKD
ROOT
HETATM    1  C   UNL     1     -12.182  13.275  64.587  1.00  0.00    -0.460 C  
HETATM    2  C   UNL     1     -11.891  12.031  65.414  1.00  0.00    -0.192 C  
ENDROOT
BRANCH   2   3
HETATM    3  N   UNL     1     -10.673  11.330  64.994  1.00  0.00    -0.281 N  
BRANCH   3   4
HETATM    4  C   UNL     1     -10.070  11.712  63.712  1.00  0.00    -0.381 C  
HETATM    5  C   UNL     1      -9.147  10.664  63.120  1.00  0.00    -0.276 C  
ENDBRANCH   3   4
BRANCH   3   6
HETATM    6  C   UNL     1     -10.066  10.500  65.936  1.00  0.00    -0.260 C  
HETATM    7  O   UNL     1     -10.534   9.401  66.231  1.00  0.00    -0.185 OA 
BRANCH   6   8
HETATM    8  N   UNL     1      -8.890  10.993  66.470  1.00  0.00    -0.163 N  
HETATM    9  H   UNL     1      -8.049  10.419  66.428  1.00  0.00     0.000 HD 
BRANCH   8  10
HETATM   10  C   UNL     1      -8.820  12.263  67.071  1.00  0.00    -0.205 A  
HETATM   11  C   UNL     1      -9.955  12.928  67.528  1.00  0.00    -0.215 A  
HETATM   12  C   UNL     1      -9.837  14.159  68.179  1.00  0.00    -0.229 A  
HETATM   13  C   UNL     1      -8.581  14.738  68.405  1.00  0.00    -0.166 A  
HETATM   14  C   UNL     1      -7.571  12.863  67.225  1.00  0.00    -0.104 A  
HETATM   15  C   UNL     1      -7.439  14.083  67.913  1.00  0.00    -0.153 A  
BRANCH  13  16
HETATM   16  O   UNL     1      -8.403  15.889  69.125  1.00  0.00    -0.228 OA 
BRANCH  16  17
HETATM   17  C   UNL     1      -9.571  16.670  69.426  1.00  0.00    -0.057 C  
BRANCH  17  18
HETATM   18  C   UNL     1      -9.704  17.793  68.389  1.00  0.00    -0.333 C  
HETATM   19  H   UNL     1      -9.919  19.745  68.428  1.00  0.00     0.000 HD 
HETATM   20  O   UNL     1      -9.836  19.049  69.070  1.00  0.00    -0.396 OA 
BRANCH  18  21
HETATM   21  C   UNL     1      -8.507  17.885  67.423  1.00  0.00    -0.235 C  
BRANCH  21  22
HETATM   22  N   UNL     1      -8.053  19.260  67.183  1.00  0.00    -0.262 NA 
HETATM   23  C   UNL     1      -6.600  19.479  67.344  1.00  0.00    -0.196 C  
HETATM   24  H   UNL     1      -8.574  19.911  67.772  1.00  0.00     0.000 HD 
HETATM   25  C   UNL     1      -6.347  20.985  67.138  1.00  0.00    -0.398 C  
HETATM   26  C   UNL     1      -5.789  18.714  66.283  1.00  0.00    -0.187 C  
HETATM   27  C   UNL     1      -6.118  19.097  68.753  1.00  0.00    -0.252 C  
ENDBRANCH  21  22
ENDBRANCH  18  21
ENDBRANCH  17  18
ENDBRANCH  16  17
ENDBRANCH  13  16
BRANCH  15  28
HETATM   28  C   UNL     1      -6.026  14.522  68.129  1.00  0.00    -0.136 C  
HETATM   29  O   UNL     1      -5.344  13.952  68.982  1.00  0.00    -0.079 OA 
HETATM   30  C   UNL     1      -5.411  15.607  67.286  1.00  0.00     0.160 C  
ENDBRANCH  15  28
ENDBRANCH   8  10
ENDBRANCH   6   8
ENDBRANCH   3   6
ENDBRANCH   2   3
TORSDOF 11
ENDMDL
MODEL      271
REMARK 921   NORMALIZED FREE ENERGY PREDICTED BY IDOCK:   -2.97 KCAL/MOL
REMARK 922        TOTAL FREE ENERGY PREDICTED BY IDOCK:   -6.02 KCAL/MOL
REMARK 923 INTER-LIGAND FREE ENERGY PREDICTED BY IDOCK:   -4.84 KCAL/MOL
REMARK 924 INTRA-LIGAND FREE ENERGY PREDICTED BY IDOCK:   -1.18 KCAL/MOL
REMARK 927      BINDING AFFINITY PREDICTED BY RF-SCORE:    0.00 PKD
ROOT
HETATM    1  C   UNL     1      -6.532   3.663  66.110  1.00  0.00    -0.037 C  
HETATM    2  C   UNL     1      -7.849   4.411  65.952  1.00  0.00    -0.095 C  
ENDROOT
BRANCH   2   3
HETATM    3  N   UNL     1      -7.931   5.617  66.782  1.00  0.00    -0.101 N  
BRANCH   3   4
HETATM    4  C   UNL     1      -6.689   6.130  67.371  1.00  0.00    -0.061 C  
HETATM    5  C   UNL     1      -6.810   6.536  68.828  1.00  0.00    -0.070 C  
ENDBRANCH   3   4
BRANCH   3   6
HETATM    6  C   UNL     1      -9.146   6.301  66.782  1.00  0.00    -0.135 C  
HETATM    7  O   UNL     1     -10.053   6.016  67.564  1.00  0.00    -0.132 OA 
BRANCH   6   8
HETATM    8  N   UNL     1      -9.228   7.337  65.870  1.00  0.00    -0.379 N  
HETATM    9  H   UNL     1      -9.422   7.121  64.893  1.00  0.00     0.000 HD 
BRANCH   8  10
HETATM   10  C   UNL     1      -9.051   8.680  66.250  1.00  0.00    -0.186 A  
HETATM   11  C   UNL     1      -7.830   9.334  66.104  1.00  0.00    -0.099 A  
HETATM   12  C   UNL     1      -7.712  10.687  66.432  1.00  0.00    -0.141 A  
HETATM   13  C   UNL     1      -8.817  11.418  66.890  1.00  0.00    -0.173 A  
HETATM   14  C   UNL     1     -10.139   9.377  66.774  1.00  0.00    -0.325 A  
HETATM   15  C   UNL     1     -10.040  10.748  67.069  1.00  0.00    -0.249 A  
BRANCH  13  16
HETATM   16  O   UNL     1      -8.780  12.766  67.127  1.00  0.00    -0.190 OA 
BRANCH  16  17
HETATM   17  C   UNL     1      -8.493  13.196  68.468  1.00  0.00    -0.058 C  
BRANCH  17  18
HETATM   18  C   UNL     1      -7.279  14.134  68.444  1.00  0.00    -0.109 C  
HETATM   19  H   UNL     1      -5.328  13.931  68.338  1.00  0.00     0.000 HD 
HETATM   20  O   UNL     1      -6.080  13.350  68.353  1.00  0.00    -0.077 OA 
BRANCH  18  21
HETATM   21  C   UNL     1      -7.296  15.135  67.273  1.00  0.00    -0.181 C  
BRANCH  21  22
HETATM   22  N   UNL     1      -7.583  16.515  67.685  1.00  0.00    -0.142 NA 
HETATM   23  C   UNL     1      -8.891  17.042  67.243  1.00  0.00    -0.211 C  
HETATM   24  H   UNL     1      -6.832  17.136  67.381  1.00  0.00     0.000 HD 
HETATM   25  C   UNL     1      -8.957  18.514  67.697  1.00  0.00    -0.283 C  
HETATM   26  C   UNL     1     -10.060  16.291  67.904  1.00  0.00    -0.247 C  
HETATM   27  C   UNL     1      -9.035  17.001  65.713  1.00  0.00     0.132 C  
ENDBRANCH  21  22
ENDBRANCH  18  21
ENDBRANCH  17  18
ENDBRANCH  16  17
ENDBRANCH  13  16
BRANCH  15  28
HETATM   28  C   UNL     1     -11.328  11.389  67.478  1.00  0.00    -0.292 C  
HETATM   29  O   UNL     1     -12.039  11.908  66.616  1.00  0.00    -0.587 OA 
HETATM   30  C   UNL     1     -11.792  11.360  68.909  1.00  0.00    -0.413 C  
ENDBRANCH  15  28
ENDBRANCH   8  10
ENDBRANCH   6   8
ENDBRANCH   3   6
ENDBRANCH   2   3
TORSDOF 11
ENDMDL
MODEL      272
REMARK 921   NORMALIZED FREE ENERGY PREDICTED BY IDOCK:   -2.95 KCAL/MOL
REMARK 922        TOTAL FREE ENERGY PREDICTED BY IDOCK:   -5.98 KCAL/MOL
REMARK 923 INTER-LIGAND FREE ENERGY PREDICTED BY IDOCK:   -4.95 KCAL/MOL
REMARK 924 INTRA-LIGAND FREE ENERGY PREDICTED BY IDOCK:   -1.03 KCAL/MOL
REMARK 927      BINDING AFFINITY PREDICTED BY RF-SCORE:    0.00 PKD
ROOT
HETATM    1  C   UNL     1      -7.980   6.864  62.375  1.00  0.00    -0.122 C  
HETATM    2  C   UNL     1      -8.143   7.479  63.758  1.00  0.00    -0.024 C  
ENDROOT
BRANCH   2   3
HETATM    3  N   UNL     1      -6.990   8.287  64.170  1.00  0.00    -0.076 N  
BRANCH   3   4
HETATM    4  C   UNL     1      -6.253   9.011  63.129  1.00  0.00    -0.090 C  
HETATM    5  C   UNL     1      -7.079  10.040  62.379  1.00  0.00    -0.131 C  
ENDBRANCH   3   4
BRANCH   3   6
HETATM    6  C   UNL     1      -6.807   8.472  65.540  1.00  0.00    -0.071 C  
HETATM    7  O   UNL     1      -6.578   7.530  66.298  1.00  0.00    -0.047 OA 
BRANCH   6   8
HETATM    8  N   UNL     1      -6.863   9.788  65.960  1.00  0.00    -0.091 N  
HETATM    9  H   UNL     1      -6.012  10.349  65.940  1.00  0.00     0.000 HD 
BRANCH   8  10
HETATM   10  C   UNL     1      -8.058  10.375  66.413  1.00  0.00    -0.129 A  
HETATM   11  C   UNL     1      -9.152   9.611  66.811  1.00  0.00    -0.171 A  
HETATM   12  C   UNL     1     -10.298  10.230  67.317  1.00  0.00    -0.284 A  
HETATM   13  C   UNL     1     -10.364  11.623  67.458  1.00  0.00    -0.197 A  
HETATM   14  C   UNL     1      -8.138  11.766  66.480  1.00  0.00    -0.035 A  
HETATM   15  C   UNL     1      -9.271  12.396  67.024  1.00  0.00    -0.208 A  
BRANCH  13  16
HETATM   16  O   UNL     1     -11.419  12.271  68.041  1.00  0.00    -0.275 OA 
BRANCH  16  17
HETATM   17  C   UNL     1     -11.321  12.568  69.444  1.00  0.00    -0.210 C  
BRANCH  17  18
HETATM   18  C   UNL     1     -12.149  11.545  70.232  1.00  0.00    -0.359 C  
HETATM   19  H   UNL     1     -13.610  10.293  69.837  1.00  0.00     0.000 HD 
HETATM   20  O   UNL     1     -13.097  10.927  69.349  1.00  0.00     0.054 OA 
BRANCH  18  21
HETATM   21  C   UNL     1     -11.300  10.439  70.887  1.00  0.00    -0.223 C  
BRANCH  21  22
HETATM   22  N   UNL     1     -12.085   9.277  71.322  1.00  0.00    -0.319 NA 
HETATM   23  C   UNL     1     -11.329   8.011  71.424  1.00  0.00    -0.256 C  
HETATM   24  H   UNL     1     -12.896   9.154  70.715  1.00  0.00     0.000 HD 
HETATM   25  C   UNL     1     -12.342   6.914  71.803  1.00  0.00    -0.401 C  
HETATM   26  C   UNL     1     -10.263   8.074  72.532  1.00  0.00    -0.361 C  
HETATM   27  C   UNL     1     -10.678   7.626  70.086  1.00  0.00    -0.245 C  
ENDBRANCH  21  22
ENDBRANCH  18  21
ENDBRANCH  17  18
ENDBRANCH  16  17
ENDBRANCH  13  16
BRANCH  15  28
HETATM   28  C   UNL     1      -9.147  13.879  67.168  1.00  0.00    -0.239 C  
HETATM   29  O   UNL     1      -9.674  14.609  66.327  1.00  0.00    -0.276 OA 
HETATM   30  C   UNL     1      -8.439  14.489  68.348  1.00  0.00    -0.163 C  
ENDBRANCH  15  28
ENDBRANCH   8  10
ENDBRANCH   6   8
ENDBRANCH   3   6
ENDBRANCH   2   3
TORSDOF 11
ENDMDL
MODEL      273
REMARK 921   NORMALIZED FREE ENERGY PREDICTED BY IDOCK:   -2.95 KCAL/MOL
REMARK 922        TOTAL FREE ENERGY PREDICTED BY IDOCK:   -5.98 KCAL/MOL
REMARK 923 INTER-LIGAND FREE ENERGY PREDICTED BY IDOCK:   -6.11 KCAL/MOL
REMARK 924 INTRA-LIGAND FREE ENERGY PREDICTED BY IDOCK:    0.13 KCAL/MOL
REMARK 927      BINDING AFFINITY PREDICTED BY RF-SCORE:    0.00 PKD
ROOT
HETATM    1  C   UNL     1     -10.829  16.982  65.195  1.00  0.00    -0.059 C  
HETATM    2  C   UNL     1     -11.213  15.933  66.229  1.00  0.00     0.096 C  
ENDROOT
BRANCH   2   3
HETATM    3  N   UNL     1     -10.450  16.047  67.476  1.00  0.00    -0.291 N  
BRANCH   3   4
HETATM    4  C   UNL     1      -9.057  16.499  67.390  1.00  0.00    -0.204 C  
HETATM    5  C   UNL     1      -8.064  15.401  67.057  1.00  0.00    -0.265 C  
ENDBRANCH   3   4
BRANCH   3   6
HETATM    6  C   UNL     1     -11.165  15.915  68.667  1.00  0.00    -0.360 C  
HETATM    7  O   UNL     1     -10.976  16.663  69.625  1.00  0.00    -0.318 OA 
BRANCH   6   8
HETATM    8  N   UNL     1     -12.118  14.913  68.662  1.00  0.00    -0.574 N  
HETATM    9  H   UNL     1     -13.086  15.151  68.875  1.00  0.00     0.000 HD 
BRANCH   8  10
HETATM   10  C   UNL     1     -11.793  13.576  68.371  1.00  0.00    -0.373 A  
HETATM   11  C   UNL     1     -11.829  12.578  69.343  1.00  0.00    -0.368 A  
HETATM   12  C   UNL     1     -11.563  11.250  69.001  1.00  0.00    -0.386 A  
HETATM   13  C   UNL     1     -11.277  10.889  67.677  1.00  0.00    -0.309 A  
HETATM   14  C   UNL     1     -11.438  13.241  67.065  1.00  0.00    -0.378 A  
HETATM   15  C   UNL     1     -11.207  11.902  66.703  1.00  0.00    -0.384 A  
BRANCH  13  16
HETATM   16  O   UNL     1     -11.110   9.592  67.271  1.00  0.00    -0.151 OA 
BRANCH  16  17
HETATM   17  C   UNL     1      -9.771   9.071  67.252  1.00  0.00    -0.179 C  
BRANCH  17  18
HETATM   18  C   UNL     1      -9.424   8.529  68.645  1.00  0.00    -0.143 C  
HETATM   19  H   UNL     1      -8.766   6.833  69.385  1.00  0.00     0.000 HD 
HETATM   20  O   UNL     1      -8.980   7.169  68.522  1.00  0.00    -0.128 OA 
BRANCH  18  21
HETATM   21  C   UNL     1      -8.328   9.336  69.366  1.00  0.00    -0.127 C  
BRANCH  21  22
HETATM   22  N   UNL     1      -7.854  10.495  68.600  1.00  0.00    -0.109 NA 
HETATM   23  C   UNL     1      -6.450  10.882  68.852  1.00  0.00    -0.049 C  
HETATM   24  H   UNL     1      -8.471  11.293  68.752  1.00  0.00     0.000 HD 
HETATM   25  C   UNL     1      -6.182  12.156  68.029  1.00  0.00    -0.065 C  
HETATM   26  C   UNL     1      -5.467   9.797  68.378  1.00  0.00    -0.039 C  
HETATM   27  C   UNL     1      -6.205  11.205  70.335  1.00  0.00    -0.094 C  
ENDBRANCH  21  22
ENDBRANCH  18  21
ENDBRANCH  17  18
ENDBRANCH  16  17
ENDBRANCH  13  16
BRANCH  15  28
HETATM   28  C   UNL     1     -10.987  11.684  65.241  1.00  0.00    -0.268 C  
HETATM   29  O   UNL     1      -9.887  11.287  64.852  1.00  0.00    -0.238 OA 
HETATM   30  C   UNL     1     -12.100  11.887  64.248  1.00  0.00    -0.344 C  
ENDBRANCH  15  28
ENDBRANCH   8  10
ENDBRANCH   6   8
ENDBRANCH   3   6
ENDBRANCH   2   3
TORSDOF 11
ENDMDL
MODEL      274
REMARK 921   NORMALIZED FREE ENERGY PREDICTED BY IDOCK:   -2.94 KCAL/MOL
REMARK 922        TOTAL FREE ENERGY PREDICTED BY IDOCK:   -5.96 KCAL/MOL
REMARK 923 INTER-LIGAND FREE ENERGY PREDICTED BY IDOCK:   -5.13 KCAL/MOL
REMARK 924 INTRA-LIGAND FREE ENERGY PREDICTED BY IDOCK:   -0.83 KCAL/MOL
REMARK 927      BINDING AFFINITY PREDICTED BY RF-SCORE:    0.00 PKD
ROOT
HETATM    1  C   UNL     1      -6.631   5.362  70.403  1.00  0.00    -0.039 C  
HETATM    2  C   UNL     1      -6.822   5.121  71.894  1.00  0.00    -0.060 C  
ENDROOT
BRANCH   2   3
HETATM    3  N   UNL     1      -7.372   6.283  72.600  1.00  0.00    -0.084 N  
BRANCH   3   4
HETATM    4  C   UNL     1      -7.851   6.088  73.972  1.00  0.00    -0.101 C  
HETATM    5  C   UNL     1      -8.543   4.758  74.210  1.00  0.00    -0.107 C  
ENDBRANCH   3   4
BRANCH   3   6
HETATM    6  C   UNL     1      -7.210   7.526  71.989  1.00  0.00    -0.068 C  
HETATM    7  O   UNL     1      -6.100   8.029  71.825  1.00  0.00    -0.035 OA 
BRANCH   6   8
HETATM    8  N   UNL     1      -8.383   8.116  71.555  1.00  0.00    -0.115 N  
HETATM    9  H   UNL     1      -9.104   8.345  72.239  1.00  0.00     0.000 HD 
BRANCH   8  10
HETATM   10  C   UNL     1      -8.612   8.409  70.199  1.00  0.00    -0.131 A  
HETATM   11  C   UNL     1      -8.376   9.675  69.667  1.00  0.00    -0.173 A  
HETATM   12  C   UNL     1      -8.553   9.909  68.301  1.00  0.00    -0.115 A  
HETATM   13  C   UNL     1      -8.946   8.879  67.436  1.00  0.00    -0.132 A  
HETATM   14  C   UNL     1      -9.074   7.394  69.362  1.00  0.00    -0.139 A  
HETATM   15  C   UNL     1      -9.217   7.610  67.980  1.00  0.00    -0.138 A  
BRANCH  13  16
HETATM   16  O   UNL     1      -9.035   9.029  66.078  1.00  0.00    -0.160 OA 
BRANCH  16  17
HETATM   17  C   UNL     1     -10.152   9.773  65.565  1.00  0.00    -0.172 C  
BRANCH  17  18
HETATM   18  C   UNL     1      -9.639  11.064  64.914  1.00  0.00    -0.245 C  
HETATM   19  H   UNL     1     -10.045  12.097  63.293  1.00  0.00     0.000 HD 
HETATM   20  O   UNL     1     -10.362  11.297  63.697  1.00  0.00    -0.341 OA 
BRANCH  18  21
HETATM   21  C   UNL     1      -9.785  12.308  65.813  1.00  0.00    -0.216 C  
BRANCH  21  22
HETATM   22  N   UNL     1     -10.013  13.549  65.063  1.00  0.00    -0.581 NA 
HETATM   23  C   UNL     1     -11.191  14.333  65.493  1.00  0.00    -0.320 C  
HETATM   24  H   UNL     1     -10.069  13.351  64.064  1.00  0.00     0.000 HD 
HETATM   25  C   UNL     1     -11.302  15.535  64.534  1.00  0.00    -0.322 C  
HETATM   26  C   UNL     1     -11.018  14.882  66.920  1.00  0.00    -0.327 C  
HETATM   27  C   UNL     1     -12.488  13.515  65.395  1.00  0.00    -0.540 C  
ENDBRANCH  21  22
ENDBRANCH  18  21
ENDBRANCH  17  18
ENDBRANCH  16  17
ENDBRANCH  13  16
BRANCH  15  28
HETATM   28  C   UNL     1      -9.573   6.389  67.195  1.00  0.00    -0.134 C  
HETATM   29  O   UNL     1      -8.733   5.498  67.057  1.00  0.00    -0.110 OA 
HETATM   30  C   UNL     1     -10.954   6.207  66.623  1.00  0.00    -0.225 C  
ENDBRANCH  15  28
ENDBRANCH   8  10
ENDBRANCH   6   8
ENDBRANCH   3   6
ENDBRANCH   2   3
TORSDOF 11
ENDMDL
MODEL      275
REMARK 921   NORMALIZED FREE ENERGY PREDICTED BY IDOCK:   -2.92 KCAL/MOL
REMARK 922        TOTAL FREE ENERGY PREDICTED BY IDOCK:   -5.93 KCAL/MOL
REMARK 923 INTER-LIGAND FREE ENERGY PREDICTED BY IDOCK:   -5.03 KCAL/MOL
REMARK 924 INTRA-LIGAND FREE ENERGY PREDICTED BY IDOCK:   -0.90 KCAL/MOL
REMARK 927      BINDING AFFINITY PREDICTED BY RF-SCORE:    0.00 PKD
ROOT
HETATM    1  C   UNL     1     -10.488   5.993  73.978  1.00  0.00    -0.272 C  
HETATM    2  C   UNL     1     -11.386   5.914  72.751  1.00  0.00    -0.263 C  
ENDROOT
BRANCH   2   3
HETATM    3  N   UNL     1     -10.745   6.424  71.534  1.00  0.00    -0.231 N  
BRANCH   3   4
HETATM    4  C   UNL     1      -9.850   5.522  70.800  1.00  0.00    -0.188 C  
HETATM    5  C   UNL     1      -9.207   6.142  69.573  1.00  0.00    -0.143 C  
ENDBRANCH   3   4
BRANCH   3   6
HETATM    6  C   UNL     1     -11.194   7.653  71.052  1.00  0.00    -0.267 C  
HETATM    7  O   UNL     1     -12.268   7.767  70.462  1.00  0.00    -0.040 OA 
BRANCH   6   8
HETATM    8  N   UNL     1     -10.362   8.722  71.329  1.00  0.00    -0.237 N  
HETATM    9  H   UNL     1      -9.880   8.754  72.227  1.00  0.00     0.000 HD 
BRANCH   8  10
HETATM   10  C   UNL     1     -10.161   9.767  70.409  1.00  0.00    -0.252 A  
HETATM   11  C   UNL     1     -11.059  10.824  70.283  1.00  0.00    -0.248 A  
HETATM   12  C   UNL     1     -10.790  11.876  69.403  1.00  0.00    -0.089 A  
HETATM   13  C   UNL     1      -9.608  11.905  68.651  1.00  0.00    -0.093 A  
HETATM   14  C   UNL     1      -9.016   9.747  69.612  1.00  0.00    -0.229 A  
HETATM   15  C   UNL     1      -8.718  10.820  68.754  1.00  0.00    -0.163 A  
BRANCH  13  16
HETATM   16  O   UNL     1      -9.249  12.959  67.854  1.00  0.00    -0.192 OA 
BRANCH  16  17
HETATM   17  C   UNL     1     -10.243  13.964  67.597  1.00  0.00    -0.242 C  
BRANCH  17  18
HETATM   18  C   UNL     1      -9.656  15.344  67.922  1.00  0.00    -0.206 C  
HETATM   19  H   UNL     1      -9.861  16.673  69.354  1.00  0.00     0.000 HD 
HETATM   20  O   UNL     1     -10.225  15.818  69.152  1.00  0.00    -0.203 OA 
BRANCH  18  21
HETATM   21  C   UNL     1      -8.122  15.344  68.063  1.00  0.00    -0.140 C  
BRANCH  21  22
HETATM   22  N   UNL     1      -7.616  16.387  68.963  1.00  0.00    -0.225 NA 
HETATM   23  C   UNL     1      -6.944  17.521  68.293  1.00  0.00    -0.210 C  
HETATM   24  H   UNL     1      -6.998  15.977  69.665  1.00  0.00     0.000 HD 
HETATM   25  C   UNL     1      -6.415  18.448  69.405  1.00  0.00    -0.251 C  
HETATM   26  C   UNL     1      -7.924  18.332  67.428  1.00  0.00    -0.232 C  
HETATM   27  C   UNL     1      -5.750  17.056  67.444  1.00  0.00    -0.172 C  
ENDBRANCH  21  22
ENDBRANCH  18  21
ENDBRANCH  17  18
ENDBRANCH  16  17
ENDBRANCH  13  16
BRANCH  15  28
HETATM   28  C   UNL     1      -7.387  10.725  68.081  1.00  0.00    -0.088 C  
HETATM   29  O   UNL     1      -6.365  10.901  68.747  1.00  0.00    -0.046 OA 
HETATM   30  C   UNL     1      -7.275  10.364  66.624  1.00  0.00    -0.113 C  
ENDBRANCH  15  28
ENDBRANCH   8  10
ENDBRANCH   6   8
ENDBRANCH   3   6
ENDBRANCH   2   3
TORSDOF 11
ENDMDL
MODEL      276
REMARK 921   NORMALIZED FREE ENERGY PREDICTED BY IDOCK:   -2.86 KCAL/MOL
REMARK 922        TOTAL FREE ENERGY PREDICTED BY IDOCK:   -5.84 KCAL/MOL
REMARK 923 INTER-LIGAND FREE ENERGY PREDICTED BY IDOCK:   -4.75 KCAL/MOL
REMARK 924 INTRA-LIGAND FREE ENERGY PREDICTED BY IDOCK:   -1.08 KCAL/MOL
REMARK 927      BINDING AFFINITY PREDICTED BY RF-SCORE:    0.00 PKD
ROOT
HETATM    1  C   UNL     1      -9.889   4.536  70.560  1.00  0.00    -0.297 C  
HETATM    2  C   UNL     1      -9.949   6.056  70.495  1.00  0.00    -0.185 C  
ENDROOT
BRANCH   2   3
HETATM    3  N   UNL     1      -8.652   6.695  70.741  1.00  0.00    -0.134 N  
BRANCH   3   4
HETATM    4  C   UNL     1      -8.540   7.602  71.888  1.00  0.00    -0.109 C  
HETATM    5  C   UNL     1      -9.869   7.979  72.517  1.00  0.00    -0.330 C  
ENDBRANCH   3   4
BRANCH   3   6
HETATM    6  C   UNL     1      -7.570   6.235  69.990  1.00  0.00    -0.096 C  
HETATM    7  O   UNL     1      -6.564   5.766  70.520  1.00  0.00    -0.040 OA 
BRANCH   6   8
HETATM    8  N   UNL     1      -7.741   6.312  68.620  1.00  0.00    -0.099 N  
HETATM    9  H   UNL     1      -7.739   5.452  68.072  1.00  0.00     0.000 HD 
BRANCH   8  10
HETATM   10  C   UNL     1      -7.918   7.541  67.959  1.00  0.00    -0.123 A  
HETATM   11  C   UNL     1      -8.811   7.689  66.900  1.00  0.00    -0.142 A  
HETATM   12  C   UNL     1      -9.007   8.942  66.313  1.00  0.00    -0.207 A  
HETATM   13  C   UNL     1      -8.333  10.075  66.787  1.00  0.00    -0.125 A  
HETATM   14  C   UNL     1      -7.187   8.647  68.393  1.00  0.00    -0.085 A  
HETATM   15  C   UNL     1      -7.407   9.919  67.834  1.00  0.00    -0.088 A  
BRANCH  13  16
HETATM   16  O   UNL     1      -8.564  11.340  66.316  1.00  0.00    -0.175 OA 
BRANCH  16  17
HETATM   17  C   UNL     1      -9.804  11.574  65.629  1.00  0.00    -0.236 C  
BRANCH  17  18
HETATM   18  C   UNL     1     -10.763  12.320  66.566  1.00  0.00    -0.246 C  
HETATM   19  H   UNL     1     -12.169  11.827  67.846  1.00  0.00     0.000 HD 
HETATM   20  O   UNL     1     -11.575  11.365  67.265  1.00  0.00    -0.523 OA 
BRANCH  18  21
HETATM   21  C   UNL     1     -10.047  13.205  67.604  1.00  0.00    -0.221 C  
BRANCH  21  22
HETATM   22  N   UNL     1     -10.639  13.131  68.945  1.00  0.00    -0.392 NA 
HETATM   23  C   UNL     1     -11.073  14.426  69.512  1.00  0.00    -0.231 C  
HETATM   24  H   UNL     1      -9.999  12.663  69.587  1.00  0.00     0.000 HD 
HETATM   25  C   UNL     1     -11.577  14.143  70.940  1.00  0.00    -0.072 C  
HETATM   26  C   UNL     1     -12.238  15.035  68.711  1.00  0.00    -0.117 C  
HETATM   27  C   UNL     1      -9.911  15.428  69.599  1.00  0.00    -0.270 C  
ENDBRANCH  21  22
ENDBRANCH  18  21
ENDBRANCH  17  18
ENDBRANCH  16  17
ENDBRANCH  13  16
BRANCH  15  28
HETATM   28  C   UNL     1      -6.661  11.027  68.505  1.00  0.00    -0.059 C  
HETATM   29  O   UNL     1      -7.285  12.004  68.923  1.00  0.00    -0.110 OA 
HETATM   30  C   UNL     1      -5.174  10.942  68.725  1.00  0.00    -0.041 C  
ENDBRANCH  15  28
ENDBRANCH   8  10
ENDBRANCH   6   8
ENDBRANCH   3   6
ENDBRANCH   2   3
TORSDOF 11
ENDMDL
MODEL      277
REMARK 921   NORMALIZED FREE ENERGY PREDICTED BY IDOCK:   -2.84 KCAL/MOL
REMARK 922        TOTAL FREE ENERGY PREDICTED BY IDOCK:   -5.80 KCAL/MOL
REMARK 923 INTER-LIGAND FREE ENERGY PREDICTED BY IDOCK:   -4.29 KCAL/MOL
REMARK 924 INTRA-LIGAND FREE ENERGY PREDICTED BY IDOCK:   -1.51 KCAL/MOL
REMARK 927      BINDING AFFINITY PREDICTED BY RF-SCORE:    0.00 PKD
ROOT
HETATM    1  C   UNL     1     -10.452  16.834  68.825  1.00  0.00    -0.338 C  
HETATM    2  C   UNL     1      -9.885  15.425  68.933  1.00  0.00    -0.216 C  
ENDROOT
BRANCH   2   3
HETATM    3  N   UNL     1      -8.879  15.128  67.908  1.00  0.00    -0.164 N  
BRANCH   3   4
HETATM    4  C   UNL     1      -9.198  15.463  66.516  1.00  0.00    -0.292 C  
HETATM    5  C   UNL     1      -9.991  14.397  65.783  1.00  0.00    -0.354 C  
ENDBRANCH   3   4
BRANCH   3   6
HETATM    6  C   UNL     1      -7.617  14.740  68.357  1.00  0.00    -0.116 C  
HETATM    7  O   UNL     1      -7.144  15.162  69.412  1.00  0.00    -0.158 OA 
BRANCH   6   8
HETATM    8  N   UNL     1      -6.971  13.822  67.548  1.00  0.00    -0.224 N  
HETATM    9  H   UNL     1      -6.303  14.159  66.856  1.00  0.00     0.000 HD 
BRANCH   8  10
HETATM   10  C   UNL     1      -7.209  12.440  67.653  1.00  0.00    -0.130 A  
HETATM   11  C   UNL     1      -7.153  11.771  68.873  1.00  0.00    -0.114 A  
HETATM   12  C   UNL     1      -7.460  10.409  68.945  1.00  0.00    -0.099 A  
HETATM   13  C   UNL     1      -7.851   9.696  67.804  1.00  0.00    -0.094 A  
HETATM   14  C   UNL     1      -7.526  11.725  66.498  1.00  0.00     0.093 A  
HETATM   15  C   UNL     1      -7.874  10.365  66.567  1.00  0.00    -0.124 A  
BRANCH  13  16
HETATM   16  O   UNL     1      -8.260   8.390  67.837  1.00  0.00    -0.124 OA 
BRANCH  16  17
HETATM   17  C   UNL     1      -9.374   8.066  68.684  1.00  0.00    -0.146 C  
BRANCH  17  18
HETATM   18  C   UNL     1     -10.095   6.836  68.116  1.00  0.00    -0.164 C  
HETATM   19  H   UNL     1     -11.159   6.426  66.517  1.00  0.00     0.000 HD 
HETATM   20  O   UNL     1     -10.713   7.188  66.869  1.00  0.00    -0.330 OA 
BRANCH  18  21
HETATM   21  C   UNL     1      -9.164   5.632  67.876  1.00  0.00    -0.106 C  
BRANCH  21  22
HETATM   22  N   UNL     1      -8.136   5.880  66.858  1.00  0.00    -0.102 NA 
HETATM   23  C   UNL     1      -7.947   4.788  65.879  1.00  0.00    -0.103 C  
HETATM   24  H   UNL     1      -7.248   6.111  67.303  1.00  0.00     0.000 HD 
HETATM   25  C   UNL     1      -6.778   5.204  64.965  1.00  0.00    -0.048 C  
HETATM   26  C   UNL     1      -9.192   4.592  64.997  1.00  0.00    -0.152 C  
HETATM   27  C   UNL     1      -7.574   3.464  66.567  1.00  0.00    -0.077 C  
ENDBRANCH  21  22
ENDBRANCH  18  21
ENDBRANCH  17  18
ENDBRANCH  16  17
ENDBRANCH  13  16
BRANCH  15  28
HETATM   28  C   UNL     1      -8.334   9.776  65.272  1.00  0.00    -0.142 C  
HETATM   29  O   UNL     1      -7.562   9.063  64.629  1.00  0.00    -0.101 OA 
HETATM   30  C   UNL     1      -9.737   9.996  64.772  1.00  0.00    -0.363 C  
ENDBRANCH  15  28
ENDBRANCH   8  10
ENDBRANCH   6   8
ENDBRANCH   3   6
ENDBRANCH   2   3
TORSDOF 11
ENDMDL
MODEL      278
REMARK 921   NORMALIZED FREE ENERGY PREDICTED BY IDOCK:   -2.74 KCAL/MOL
REMARK 922        TOTAL FREE ENERGY PREDICTED BY IDOCK:   -5.64 KCAL/MOL
REMARK 923 INTER-LIGAND FREE ENERGY PREDICTED BY IDOCK:   -4.87 KCAL/MOL
REMARK 924 INTRA-LIGAND FREE ENERGY PREDICTED BY IDOCK:   -0.77 KCAL/MOL
REMARK 927      BINDING AFFINITY PREDICTED BY RF-SCORE:    0.00 PKD
ROOT
HETATM    1  C   UNL     1     -11.863  15.326  68.555  1.00  0.00    -0.305 C  
HETATM    2  C   UNL     1     -10.988  15.390  67.311  1.00  0.00    -0.317 C  
ENDROOT
BRANCH   2   3
HETATM    3  N   UNL     1     -11.238  14.291  66.373  1.00  0.00    -0.329 N  
BRANCH   3   4
HETATM    4  C   UNL     1     -12.599  14.132  65.848  1.00  0.00    -0.417 C  
HETATM    5  C   UNL     1     -12.850  14.852  64.536  1.00  0.00     0.363 C  
ENDBRANCH   3   4
BRANCH   3   6
HETATM    6  C   UNL     1     -10.122  13.607  65.891  1.00  0.00    -0.310 C  
HETATM    7  O   UNL     1      -9.838  13.587  64.694  1.00  0.00    -0.170 OA 
BRANCH   6   8
HETATM    8  N   UNL     1      -9.351  12.998  66.864  1.00  0.00    -0.235 N  
HETATM    9  H   UNL     1      -8.603  13.531  67.307  1.00  0.00     0.000 HD 
BRANCH   8  10
HETATM   10  C   UNL     1      -9.567  11.666  67.260  1.00  0.00    -0.174 A  
HETATM   11  C   UNL     1     -10.241  10.754  66.451  1.00  0.00    -0.294 A  
HETATM   12  C   UNL     1     -10.378   9.422  66.852  1.00  0.00    -0.308 A  
HETATM   13  C   UNL     1      -9.824   8.970  68.057  1.00  0.00    -0.166 A  
HETATM   14  C   UNL     1      -9.074  11.246  68.496  1.00  0.00    -0.173 A  
HETATM   15  C   UNL     1      -9.173   9.899  68.889  1.00  0.00    -0.160 A  
BRANCH  13  16
HETATM   16  O   UNL     1      -9.841   7.658  68.447  1.00  0.00    -0.158 OA 
BRANCH  16  17
HETATM   17  C   UNL     1     -10.802   6.793  67.820  1.00  0.00    -0.264 C  
BRANCH  17  18
HETATM   18  C   UNL     1     -10.062   5.769  66.950  1.00  0.00    -0.192 C  
HETATM   19  H   UNL     1      -8.249   5.571  66.219  1.00  0.00     0.000 HD 
HETATM   20  O   UNL     1      -8.708   6.206  66.758  1.00  0.00    -0.113 OA 
BRANCH  18  21
HETATM   21  C   UNL     1     -10.035   4.351  67.554  1.00  0.00    -0.071 C  
BRANCH  21  22
HETATM   22  N   UNL     1      -8.724   3.968  68.092  1.00  0.00    -0.096 NA 
HETATM   23  C   UNL     1      -8.261   2.617  67.713  1.00  0.00    -0.071 C  
HETATM   24  H   UNL     1      -8.717   4.070  69.107  1.00  0.00     0.000 HD 
HETATM   25  C   UNL     1      -6.925   2.380  68.443  1.00  0.00    -0.044 C  
HETATM   26  C   UNL     1      -7.999   2.509  66.200  1.00  0.00    -0.082 C  
HETATM   27  C   UNL     1      -9.253   1.529  68.155  1.00  0.00    -0.212 C  
ENDBRANCH  21  22
ENDBRANCH  18  21
ENDBRANCH  17  18
ENDBRANCH  16  17
ENDBRANCH  13  16
BRANCH  15  28
HETATM   28  C   UNL     1      -8.467   9.573  70.166  1.00  0.00    -0.205 C  
HETATM   29  O   UNL     1      -9.081   8.984  71.057  1.00  0.00    -0.222 OA 
HETATM   30  C   UNL     1      -7.010   9.903  70.355  1.00  0.00    -0.145 C  
ENDBRANCH  15  28
ENDBRANCH   8  10
ENDBRANCH   6   8
ENDBRANCH   3   6
ENDBRANCH   2   3
TORSDOF 11
ENDMDL
MODEL      279
REMARK 921   NORMALIZED FREE ENERGY PREDICTED BY IDOCK:   -2.68 KCAL/MOL
REMARK 922        TOTAL FREE ENERGY PREDICTED BY IDOCK:   -5.53 KCAL/MOL
REMARK 923 INTER-LIGAND FREE ENERGY PREDICTED BY IDOCK:   -5.08 KCAL/MOL
REMARK 924 INTRA-LIGAND FREE ENERGY PREDICTED BY IDOCK:   -0.45 KCAL/MOL
REMARK 927      BINDING AFFINITY PREDICTED BY RF-SCORE:    0.00 PKD
ROOT
HETATM    1  C   UNL     1     -12.942  13.068  71.093  1.00  0.00    -0.265 C  
HETATM    2  C   UNL     1     -13.185  12.006  72.156  1.00  0.00    -0.295 C  
ENDROOT
BRANCH   2   3
HETATM    3  N   UNL     1     -12.882  10.648  71.694  1.00  0.00    -0.448 N  
BRANCH   3   4
HETATM    4  C   UNL     1     -13.635   9.537  72.286  1.00  0.00    -0.418 C  
HETATM    5  C   UNL     1     -14.300   8.623  71.273  1.00  0.00    -0.244 C  
ENDBRANCH   3   4
BRANCH   3   6
HETATM    6  C   UNL     1     -12.049  10.532  70.581  1.00  0.00    -0.356 C  
HETATM    7  O   UNL     1     -12.434  10.815  69.448  1.00  0.00    -0.333 OA 
BRANCH   6   8
HETATM    8  N   UNL     1     -10.760  10.117  70.864  1.00  0.00    -0.347 N  
HETATM    9  H   UNL     1     -10.385  10.272  71.799  1.00  0.00     0.000 HD 
BRANCH   8  10
HETATM   10  C   UNL     1      -9.951   9.488  69.900  1.00  0.00    -0.230 A  
HETATM   11  C   UNL     1     -10.220   8.203  69.435  1.00  0.00    -0.211 A  
HETATM   12  C   UNL     1      -9.431   7.638  68.429  1.00  0.00    -0.150 A  
HETATM   13  C   UNL     1      -8.375   8.355  67.852  1.00  0.00    -0.131 A  
HETATM   14  C   UNL     1      -8.858  10.184  69.385  1.00  0.00    -0.197 A  
HETATM   15  C   UNL     1      -8.084   9.639  68.345  1.00  0.00    -0.104 A  
BRANCH  13  16
HETATM   16  O   UNL     1      -7.639   7.889  66.795  1.00  0.00    -0.094 OA 
BRANCH  16  17
HETATM   17  C   UNL     1      -7.815   6.513  66.420  1.00  0.00    -0.104 C  
BRANCH  17  18
HETATM   18  C   UNL     1      -8.435   6.451  65.018  1.00  0.00    -0.028 C  
HETATM   19  H   UNL     1      -8.470   7.605  63.429  1.00  0.00     0.000 HD 
HETATM   20  O   UNL     1      -8.087   7.644  64.298  1.00  0.00    -0.134 OA 
BRANCH  18  21
HETATM   21  C   UNL     1      -7.975   5.233  64.194  1.00  0.00    -0.112 C  
BRANCH  21  22
HETATM   22  N   UNL     1      -8.136   3.955  64.898  1.00  0.00    -0.093 NA 
HETATM   23  C   UNL     1      -9.041   2.987  64.243  1.00  0.00    -0.114 C  
HETATM   24  H   UNL     1      -8.434   4.119  65.861  1.00  0.00     0.000 HD 
HETATM   25  C   UNL     1      -9.140   1.764  65.176  1.00  0.00    -0.112 C  
HETATM   26  C   UNL     1      -8.479   2.508  62.893  1.00  0.00    -0.078 C  
HETATM   27  C   UNL     1     -10.453   3.565  64.052  1.00  0.00    -0.250 C  
ENDBRANCH  21  22
ENDBRANCH  18  21
ENDBRANCH  17  18
ENDBRANCH  16  17
ENDBRANCH  13  16
BRANCH  15  28
HETATM   28  C   UNL     1      -7.044  10.564  67.797  1.00  0.00    -0.083 C  
HETATM   29  O   UNL     1      -5.927  10.586  68.316  1.00  0.00    -0.044 OA 
HETATM   30  C   UNL     1      -7.324  11.422  66.592  1.00  0.00    -0.107 C  
ENDBRANCH  15  28
ENDBRANCH   8  10
ENDBRANCH   6   8
ENDBRANCH   3   6
ENDBRANCH   2   3
TORSDOF 11
ENDMDL
MODEL      280
REMARK 921   NORMALIZED FREE ENERGY PREDICTED BY IDOCK:   -2.59 KCAL/MOL
REMARK 922        TOTAL FREE ENERGY PREDICTED BY IDOCK:   -5.39 KCAL/MOL
REMARK 923 INTER-LIGAND FREE ENERGY PREDICTED BY IDOCK:   -4.95 KCAL/MOL
REMARK 924 INTRA-LIGAND FREE ENERGY PREDICTED BY IDOCK:   -0.44 KCAL/MOL
REMARK 927      BINDING AFFINITY PREDICTED BY RF-SCORE:    0.00 PKD
ROOT
HETATM    1  C   UNL     1     -11.476  15.654  72.441  1.00  0.00    -0.434 C  
HETATM    2  C   UNL     1     -11.998  14.383  73.096  1.00  0.00     0.250 C  
ENDROOT
BRANCH   2   3
HETATM    3  N   UNL     1     -13.217  13.867  72.465  1.00  0.00    -0.491 N  
BRANCH   3   4
HETATM    4  C   UNL     1     -14.409  14.722  72.472  1.00  0.00    -0.120 C  
HETATM    5  C   UNL     1     -14.139  16.167  72.851  1.00  0.00    -0.019 C  
ENDBRANCH   3   4
BRANCH   3   6
HETATM    6  C   UNL     1     -13.094  12.691  71.725  1.00  0.00    -0.360 C  
HETATM    7  O   UNL     1     -12.845  11.611  72.258  1.00  0.00    -0.161 OA 
BRANCH   6   8
HETATM    8  N   UNL     1     -13.315  12.835  70.367  1.00  0.00     0.792 N  
HETATM    9  H   UNL     1     -14.207  12.532  69.977  1.00  0.00     0.000 HD 
BRANCH   8  10
HETATM   10  C   UNL     1     -12.347  13.386  69.509  1.00  0.00    -0.102 A  
HETATM   11  C   UNL     1     -12.328  14.742  69.190  1.00  0.00    -0.114 A  
HETATM   12  C   UNL     1     -11.311  15.264  68.387  1.00  0.00    -0.338 A  
HETATM   13  C   UNL     1     -10.280  14.445  67.906  1.00  0.00    -0.232 A  
HETATM   14  C   UNL     1     -11.368  12.548  68.977  1.00  0.00    -0.342 A  
HETATM   15  C   UNL     1     -10.318  13.070  68.200  1.00  0.00    -0.244 A  
BRANCH  13  16
HETATM   16  O   UNL     1      -9.207  14.923  67.202  1.00  0.00    -0.202 OA 
BRANCH  16  17
HETATM   17  C   UNL     1      -9.362  15.080  65.782  1.00  0.00    -0.136 C  
BRANCH  17  18
HETATM   18  C   UNL     1      -9.315  16.573  65.435  1.00  0.00     0.594 C  
HETATM   19  H   UNL     1     -10.627  18.001  65.122  1.00  0.00     0.000 HD 
HETATM   20  O   UNL     1     -10.656  17.076  65.337  1.00  0.00    -0.601 OA 
BRANCH  18  21
HETATM   21  C   UNL     1      -8.550  17.423  66.468  1.00  0.00    -0.261 C  
BRANCH  21  22
HETATM   22  N   UNL     1      -9.426  18.110  67.425  1.00  0.00    -0.253 NA 
HETATM   23  C   UNL     1      -9.453  19.584  67.304  1.00  0.00    -0.329 C  
HETATM   24  H   UNL     1      -9.186  17.840  68.379  1.00  0.00     0.000 HD 
HETATM   25  C   UNL     1     -10.350  20.110  68.441  1.00  0.00    -0.401 C  
HETATM   26  C   UNL     1     -10.069  20.034  65.968  1.00  0.00    -0.559 C  
HETATM   27  C   UNL     1      -8.052  20.195  67.472  1.00  0.00    -0.356 C  
ENDBRANCH  21  22
ENDBRANCH  18  21
ENDBRANCH  17  18
ENDBRANCH  16  17
ENDBRANCH  13  16
BRANCH  15  28
HETATM   28  C   UNL     1      -9.266  12.075  67.830  1.00  0.00    -0.190 C  
HETATM   29  O   UNL     1      -8.338  11.863  68.613  1.00  0.00    -0.136 OA 
HETATM   30  C   UNL     1      -9.354  11.291  66.548  1.00  0.00    -0.201 C  
ENDBRANCH  15  28
ENDBRANCH   8  10
ENDBRANCH   6   8
ENDBRANCH   3   6
ENDBRANCH   2   3
TORSDOF 11
ENDMDL
MODEL      281
REMARK 921   NORMALIZED FREE ENERGY PREDICTED BY IDOCK:   -2.59 KCAL/MOL
REMARK 922        TOTAL FREE ENERGY PREDICTED BY IDOCK:   -5.38 KCAL/MOL
REMARK 923 INTER-LIGAND FREE ENERGY PREDICTED BY IDOCK:   -4.57 KCAL/MOL
REMARK 924 INTRA-LIGAND FREE ENERGY PREDICTED BY IDOCK:   -0.82 KCAL/MOL
REMARK 927      BINDING AFFINITY PREDICTED BY RF-SCORE:    0.00 PKD
ROOT
HETATM    1  C   UNL     1      -6.979   5.865  69.777  1.00  0.00    -0.066 C  
HETATM    2  C   UNL     1      -6.766   5.618  71.264  1.00  0.00    -0.053 C  
ENDROOT
BRANCH   2   3
HETATM    3  N   UNL     1      -7.032   6.800  72.089  1.00  0.00    -0.067 N  
BRANCH   3   4
HETATM    4  C   UNL     1      -7.092   6.622  73.544  1.00  0.00    -0.076 C  
HETATM    5  C   UNL     1      -7.240   7.914  74.326  1.00  0.00    -0.178 C  
ENDBRANCH   3   4
BRANCH   3   6
HETATM    6  C   UNL     1      -7.005   8.037  71.446  1.00  0.00    -0.054 C  
HETATM    7  O   UNL     1      -5.949   8.574  71.114  1.00  0.00    -0.034 OA 
BRANCH   6   8
HETATM    8  N   UNL     1      -8.249   8.580  71.181  1.00  0.00    -0.129 N  
HETATM    9  H   UNL     1      -8.968   8.543  71.902  1.00  0.00     0.000 HD 
BRANCH   8  10
HETATM   10  C   UNL     1      -8.551   9.181  69.946  1.00  0.00    -0.150 A  
HETATM   11  C   UNL     1      -8.314  10.532  69.703  1.00  0.00    -0.010 A  
HETATM   12  C   UNL     1      -8.567  11.077  68.442  1.00  0.00    -0.149 A  
HETATM   13  C   UNL     1      -9.040  10.278  67.392  1.00  0.00    -0.138 A  
HETATM   14  C   UNL     1      -9.090   8.391  68.930  1.00  0.00    -0.147 A  
HETATM   15  C   UNL     1      -9.311   8.922  67.647  1.00  0.00    -0.156 A  
BRANCH  13  16
HETATM   16  O   UNL     1      -9.206  10.739  66.113  1.00  0.00    -0.169 OA 
BRANCH  16  17
HETATM   17  C   UNL     1     -10.491  11.282  65.766  1.00  0.00    -0.254 C  
BRANCH  17  18
HETATM   18  C   UNL     1     -10.289  12.539  64.910  1.00  0.00    -0.300 C  
HETATM   19  H   UNL     1     -11.041  13.259  63.244  1.00  0.00     0.000 HD 
HETATM   20  O   UNL     1     -11.166  12.480  63.775  1.00  0.00    -0.395 OA 
BRANCH  18  21
HETATM   21  C   UNL     1     -10.561  13.852  65.669  1.00  0.00    -0.301 C  
BRANCH  21  22
HETATM   22  N   UNL     1      -9.964  13.889  67.009  1.00  0.00    -0.253 NA 
HETATM   23  C   UNL     1      -9.541  15.228  67.470  1.00  0.00    -0.206 C  
HETATM   24  H   UNL     1      -9.183  13.235  67.064  1.00  0.00     0.000 HD 
HETATM   25  C   UNL     1      -8.868  15.037  68.843  1.00  0.00    -0.201 C  
HETATM   26  C   UNL     1     -10.743  16.170  67.660  1.00  0.00    -0.318 C  
HETATM   27  C   UNL     1      -8.518  15.864  66.515  1.00  0.00    -0.348 C  
ENDBRANCH  21  22
ENDBRANCH  18  21
ENDBRANCH  17  18
ENDBRANCH  16  17
ENDBRANCH  13  16
BRANCH  15  28
HETATM   28  C   UNL     1      -9.747   7.919  66.628  1.00  0.00    -0.235 C  
HETATM   29  O   UNL     1     -10.926   7.561  66.605  1.00  0.00    -0.079 OA 
HETATM   30  C   UNL     1      -8.785   7.385  65.600  1.00  0.00    -0.099 C  
ENDBRANCH  15  28
ENDBRANCH   8  10
ENDBRANCH   6   8
ENDBRANCH   3   6
ENDBRANCH   2   3
TORSDOF 11
ENDMDL
MODEL      282
REMARK 921   NORMALIZED FREE ENERGY PREDICTED BY IDOCK:   -2.45 KCAL/MOL
REMARK 922        TOTAL FREE ENERGY PREDICTED BY IDOCK:   -5.15 KCAL/MOL
REMARK 923 INTER-LIGAND FREE ENERGY PREDICTED BY IDOCK:   -4.92 KCAL/MOL
REMARK 924 INTRA-LIGAND FREE ENERGY PREDICTED BY IDOCK:   -0.23 KCAL/MOL
REMARK 927      BINDING AFFINITY PREDICTED BY RF-SCORE:    0.00 PKD
ROOT
HETATM    1  C   UNL     1      -5.552  13.388  71.486  1.00  0.00    -0.109 C  
HETATM    2  C   UNL     1      -6.325  14.603  70.993  1.00  0.00     0.161 C  
ENDROOT
BRANCH   2   3
HETATM    3  N   UNL     1      -6.003  14.970  69.610  1.00  0.00    -0.109 N  
BRANCH   3   4
HETATM    4  C   UNL     1      -5.507  16.328  69.359  1.00  0.00    -0.127 C  
HETATM    5  C   UNL     1      -6.477  17.429  69.745  1.00  0.00    -0.073 C  
ENDBRANCH   3   4
BRANCH   3   6
HETATM    6  C   UNL     1      -5.996  13.940  68.670  1.00  0.00    -0.088 C  
HETATM    7  O   UNL     1      -5.495  12.843  68.912  1.00  0.00    -0.069 OA 
BRANCH   6   8
HETATM    8  N   UNL     1      -6.627  14.241  67.477  1.00  0.00    -0.147 N  
HETATM    9  H   UNL     1      -6.059  14.477  66.664  1.00  0.00     0.000 HD 
BRANCH   8  10
HETATM   10  C   UNL     1      -8.028  14.231  67.352  1.00  0.00    -0.192 A  
HETATM   11  C   UNL     1      -8.704  15.139  66.541  1.00  0.00    -0.280 A  
HETATM   12  C   UNL     1     -10.091  15.055  66.392  1.00  0.00    -0.289 A  
HETATM   13  C   UNL     1     -10.826  14.047  67.032  1.00  0.00    -0.290 A  
HETATM   14  C   UNL     1      -8.756  13.269  68.052  1.00  0.00    -0.186 A  
HETATM   15  C   UNL     1     -10.147  13.152  67.877  1.00  0.00    -0.232 A  
BRANCH  13  16
HETATM   16  O   UNL     1     -12.168  13.858  66.838  1.00  0.00    -0.424 OA 
BRANCH  16  17
HETATM   17  C   UNL     1     -12.726  14.296  65.589  1.00  0.00    -0.373 C  
BRANCH  17  18
HETATM   18  C   UNL     1     -12.651  13.146  64.576  1.00  0.00    -0.278 C  
HETATM   19  H   UNL     1     -11.887  12.877  62.786  1.00  0.00     0.000 HD 
HETATM   20  O   UNL     1     -11.934  13.590  63.414  1.00  0.00    -0.434 OA 
BRANCH  18  21
HETATM   21  C   UNL     1     -11.956  11.885  65.125  1.00  0.00    -0.044 C  
BRANCH  21  22
HETATM   22  N   UNL     1     -11.325  11.064  64.085  1.00  0.00    -0.169 NA 
HETATM   23  C   UNL     1      -9.894  10.762  64.305  1.00  0.00    -0.326 C  
HETATM   24  H   UNL     1     -11.456  11.494  63.169  1.00  0.00     0.000 HD 
HETATM   25  C   UNL     1      -9.407   9.976  63.073  1.00  0.00    -0.297 C  
HETATM   26  C   UNL     1      -9.685   9.875  65.545  1.00  0.00    -0.370 C  
HETATM   27  C   UNL     1      -9.053  12.044  64.425  1.00  0.00     0.564 C  
ENDBRANCH  21  22
ENDBRANCH  18  21
ENDBRANCH  17  18
ENDBRANCH  16  17
ENDBRANCH  13  16
BRANCH  15  28
HETATM   28  C   UNL     1     -10.762  11.981  68.574  1.00  0.00    -0.234 C  
HETATM   29  O   UNL     1     -11.957  12.021  68.872  1.00  0.00    -0.297 OA 
HETATM   30  C   UNL     1      -9.962  10.740  68.866  1.00  0.00    -0.213 C  
ENDBRANCH  15  28
ENDBRANCH   8  10
ENDBRANCH   6   8
ENDBRANCH   3   6
ENDBRANCH   2   3
TORSDOF 11
ENDMDL
MODEL      283
REMARK 921   NORMALIZED FREE ENERGY PREDICTED BY IDOCK:   -2.35 KCAL/MOL
REMARK 922        TOTAL FREE ENERGY PREDICTED BY IDOCK:   -4.99 KCAL/MOL
REMARK 923 INTER-LIGAND FREE ENERGY PREDICTED BY IDOCK:   -4.50 KCAL/MOL
REMARK 924 INTRA-LIGAND FREE ENERGY PREDICTED BY IDOCK:   -0.48 KCAL/MOL
REMARK 927      BINDING AFFINITY PREDICTED BY RF-SCORE:    0.00 PKD
ROOT
HETATM    1  C   UNL     1      -6.139   3.283  68.968  1.00  0.00    -0.028 C  
HETATM    2  C   UNL     1      -6.310   4.161  70.200  1.00  0.00    -0.027 C  
ENDROOT
BRANCH   2   3
HETATM    3  N   UNL     1      -7.702   4.258  70.649  1.00  0.00    -0.052 N  
BRANCH   3   4
HETATM    4  C   UNL     1      -8.261   3.129  71.401  1.00  0.00    -0.063 C  
HETATM    5  C   UNL     1      -9.315   2.338  70.648  1.00  0.00    -0.205 C  
ENDBRANCH   3   4
BRANCH   3   6
HETATM    6  C   UNL     1      -8.325   5.498  70.508  1.00  0.00    -0.116 C  
HETATM    7  O   UNL     1      -8.468   6.266  71.458  1.00  0.00    -0.128 OA 
BRANCH   6   8
HETATM    8  N   UNL     1      -8.724   5.802  69.219  1.00  0.00    -0.113 N  
HETATM    9  H   UNL     1      -9.132   5.068  68.642  1.00  0.00     0.000 HD 
BRANCH   8  10
HETATM   10  C   UNL     1      -8.583   7.094  68.681  1.00  0.00    -0.124 A  
HETATM   11  C   UNL     1      -8.704   8.239  69.466  1.00  0.00    -0.138 A  
HETATM   12  C   UNL     1      -8.492   9.502  68.908  1.00  0.00    -0.123 A  
HETATM   13  C   UNL     1      -8.133   9.645  67.561  1.00  0.00    -0.114 A  
HETATM   14  C   UNL     1      -8.298   7.227  67.322  1.00  0.00    -0.119 A  
HETATM   15  C   UNL     1      -8.045   8.491  66.761  1.00  0.00    -0.098 A  
BRANCH  13  16
HETATM   16  O   UNL     1      -7.815  10.849  66.991  1.00  0.00    -0.121 OA 
BRANCH  16  17
HETATM   17  C   UNL     1      -7.678  11.980  67.866  1.00  0.00    -0.134 C  
BRANCH  17  18
HETATM   18  C   UNL     1      -8.618  13.097  67.392  1.00  0.00    -0.204 C  
HETATM   19  H   UNL     1      -8.418  14.857  66.543  1.00  0.00     0.000 HD 
HETATM   20  O   UNL     1      -7.836  14.166  66.837  1.00  0.00     0.000 OA 
BRANCH  18  21
HETATM   21  C   UNL     1      -9.636  12.637  66.331  1.00  0.00    -0.248 C  
BRANCH  21  22
HETATM   22  N   UNL     1     -10.127  13.726  65.479  1.00  0.00    -0.401 NA 
HETATM   23  C   UNL     1     -11.598  13.833  65.382  1.00  0.00    -0.320 C  
HETATM   24  H   UNL     1      -9.717  13.655  64.547  1.00  0.00     0.000 HD 
HETATM   25  C   UNL     1     -11.900  14.967  64.382  1.00  0.00    -0.372 C  
HETATM   26  C   UNL     1     -12.231  14.211  66.732  1.00  0.00    -0.429 C  
HETATM   27  C   UNL     1     -12.230  12.537  64.847  1.00  0.00    -0.534 C  
ENDBRANCH  21  22
ENDBRANCH  18  21
ENDBRANCH  17  18
ENDBRANCH  16  17
ENDBRANCH  13  16
BRANCH  15  28
HETATM   28  C   UNL     1      -7.606   8.458  65.332  1.00  0.00    -0.092 C  
HETATM   29  O   UNL     1      -8.330   8.961  64.471  1.00  0.00    -0.158 OA 
HETATM   30  C   UNL     1      -6.276   7.873  64.941  1.00  0.00    -0.045 C  
ENDBRANCH  15  28
ENDBRANCH   8  10
ENDBRANCH   6   8
ENDBRANCH   3   6
ENDBRANCH   2   3
TORSDOF 11
ENDMDL
MODEL      284
REMARK 921   NORMALIZED FREE ENERGY PREDICTED BY IDOCK:   -2.02 KCAL/MOL
REMARK 922        TOTAL FREE ENERGY PREDICTED BY IDOCK:   -4.46 KCAL/MOL
REMARK 923 INTER-LIGAND FREE ENERGY PREDICTED BY IDOCK:   -4.56 KCAL/MOL
REMARK 924 INTRA-LIGAND FREE ENERGY PREDICTED BY IDOCK:    0.10 KCAL/MOL
REMARK 927      BINDING AFFINITY PREDICTED BY RF-SCORE:    0.00 PKD
ROOT
HETATM    1  C   UNL     1     -14.276  14.892  71.243  1.00  0.00    -0.463 C  
HETATM    2  C   UNL     1     -12.821  15.342  71.255  1.00  0.00    -0.425 C  
ENDROOT
BRANCH   2   3
HETATM    3  N   UNL     1     -12.133  15.103  69.983  1.00  0.00    -0.326 N  
BRANCH   3   4
HETATM    4  C   UNL     1     -12.162  16.169  68.976  1.00  0.00     0.289 C  
HETATM    5  C   UNL     1     -10.953  16.196  68.060  1.00  0.00    -0.338 C  
ENDBRANCH   3   4
BRANCH   3   6
HETATM    6  C   UNL     1     -11.330  13.965  69.904  1.00  0.00    -0.111 C  
HETATM    7  O   UNL     1     -10.103  14.037  69.854  1.00  0.00     0.533 OA 
BRANCH   6   8
HETATM    8  N   UNL     1     -12.020  12.766  69.930  1.00  0.00    -0.346 N  
HETATM    9  H   UNL     1     -12.997  12.765  70.219  1.00  0.00     0.000 HD 
BRANCH   8  10
HETATM   10  C   UNL     1     -11.413  11.550  69.569  1.00  0.00    -0.311 A  
HETATM   11  C   UNL     1     -10.846  11.351  68.312  1.00  0.00    -0.253 A  
HETATM   12  C   UNL     1     -10.195  10.151  68.014  1.00  0.00    -0.205 A  
HETATM   13  C   UNL     1     -10.076   9.137  68.974  1.00  0.00    -0.191 A  
HETATM   14  C   UNL     1     -11.365  10.520  70.508  1.00  0.00    -0.400 A  
HETATM   15  C   UNL     1     -10.677   9.325  70.231  1.00  0.00    -0.284 A  
BRANCH  13  16
HETATM   16  O   UNL     1      -9.361   7.987  68.768  1.00  0.00    -0.147 OA 
BRANCH  16  17
HETATM   17  C   UNL     1      -8.035   7.925  69.317  1.00  0.00    -0.117 C  
BRANCH  17  18
HETATM   18  C   UNL     1      -7.738   6.482  69.748  1.00  0.00    -0.113 C  
HETATM   19  H   UNL     1      -7.488   5.530  71.447  1.00  0.00     0.000 HD 
HETATM   20  O   UNL     1      -7.671   6.423  71.181  1.00  0.00    -0.095 OA 
BRANCH  18  21
HETATM   21  C   UNL     1      -8.792   5.466  69.267  1.00  0.00    -0.101 C  
BRANCH  21  22
HETATM   22  N   UNL     1      -8.267   4.104  69.116  1.00  0.00    -0.069 NA 
HETATM   23  C   UNL     1      -7.475   3.869  67.890  1.00  0.00    -0.067 C  
HETATM   24  H   UNL     1      -9.027   3.425  69.179  1.00  0.00     0.000 HD 
HETATM   25  C   UNL     1      -7.098   2.375  67.879  1.00  0.00    -0.048 C  
HETATM   26  C   UNL     1      -6.172   4.686  67.890  1.00  0.00    -0.036 C  
HETATM   27  C   UNL     1      -8.287   4.171  66.620  1.00  0.00    -0.101 C  
ENDBRANCH  21  22
ENDBRANCH  18  21
ENDBRANCH  17  18
ENDBRANCH  16  17
ENDBRANCH  13  16
BRANCH  15  28
HETATM   28  C   UNL     1     -10.585   8.381  71.387  1.00  0.00    -0.234 C  
HETATM   29  O   UNL     1      -9.931   8.710  72.378  1.00  0.00    -0.302 OA 
HETATM   30  C   UNL     1     -11.321   7.068  71.380  1.00  0.00    -0.298 C  
ENDBRANCH  15  28
ENDBRANCH   8  10
ENDBRANCH   6   8
ENDBRANCH   3   6
ENDBRANCH   2   3
TORSDOF 11
ENDMDL
MODEL      285
REMARK 921   NORMALIZED FREE ENERGY PREDICTED BY IDOCK:   -1.96 KCAL/MOL
REMARK 922        TOTAL FREE ENERGY PREDICTED BY IDOCK:   -4.36 KCAL/MOL
REMARK 923 INTER-LIGAND FREE ENERGY PREDICTED BY IDOCK:   -4.34 KCAL/MOL
REMARK 924 INTRA-LIGAND FREE ENERGY PREDICTED BY IDOCK:   -0.01 KCAL/MOL
REMARK 927      BINDING AFFINITY PREDICTED BY RF-SCORE:    0.00 PKD
ROOT
HETATM    1  C   UNL     1      -6.600   6.090  68.616  1.00  0.00    -0.058 C  
HETATM    2  C   UNL     1      -6.433   5.735  70.087  1.00  0.00    -0.039 C  
ENDROOT
BRANCH   2   3
HETATM    3  N   UNL     1      -6.245   6.908  70.946  1.00  0.00    -0.035 N  
BRANCH   3   4
HETATM    4  C   UNL     1      -6.213   6.698  72.397  1.00  0.00    -0.046 C  
HETATM    5  C   UNL     1      -7.482   6.093  72.968  1.00  0.00    -0.097 C  
ENDBRANCH   3   4
BRANCH   3   6
HETATM    6  C   UNL     1      -5.904   8.104  70.314  1.00  0.00    -0.028 C  
HETATM    7  O   UNL     1      -5.138   8.135  69.351  1.00  0.00    -0.028 OA 
BRANCH   6   8
HETATM    8  N   UNL     1      -6.524   9.228  70.827  1.00  0.00    -0.070 N  
HETATM    9  H   UNL     1      -6.820   9.227  71.803  1.00  0.00     0.000 HD 
BRANCH   8  10
HETATM   10  C   UNL     1      -6.759  10.373  70.044  1.00  0.00    -0.145 A  
HETATM   11  C   UNL     1      -6.069  11.565  70.253  1.00  0.00    -0.140 A  
HETATM   12  C   UNL     1      -6.284  12.660  69.412  1.00  0.00    -0.113 A  
HETATM   13  C   UNL     1      -7.174  12.578  68.332  1.00  0.00    -0.111 A  
HETATM   14  C   UNL     1      -7.701  10.301  69.019  1.00  0.00    -0.110 A  
HETATM   15  C   UNL     1      -7.895  11.385  68.143  1.00  0.00    -0.130 A  
BRANCH  13  16
HETATM   16  O   UNL     1      -7.344  13.584  67.420  1.00  0.00    -0.165 OA 
BRANCH  16  17
HETATM   17  C   UNL     1      -7.232  14.935  67.895  1.00  0.00    -0.153 C  
BRANCH  17  18
HETATM   18  C   UNL     1      -8.195  15.827  67.101  1.00  0.00    -0.206 C  
HETATM   19  H   UNL     1      -8.035  17.213  65.717  1.00  0.00     0.000 HD 
HETATM   20  O   UNL     1      -7.438  16.660  66.209  1.00  0.00    -0.268 OA 
BRANCH  18  21
HETATM   21  C   UNL     1      -9.226  15.037  66.272  1.00  0.00    -0.289 C  
BRANCH  21  22
HETATM   22  N   UNL     1      -9.967  14.041  67.055  1.00  0.00    -0.252 NA 
HETATM   23  C   UNL     1     -11.345  14.430  67.421  1.00  0.00    -0.337 C  
HETATM   24  H   UNL     1      -9.439  13.786  67.890  1.00  0.00     0.000 HD 
HETATM   25  C   UNL     1     -11.910  13.300  68.304  1.00  0.00    -0.389 C  
HETATM   26  C   UNL     1     -12.248  14.559  66.182  1.00  0.00    -0.268 C  
HETATM   27  C   UNL     1     -11.372  15.736  68.233  1.00  0.00    -0.354 C  
ENDBRANCH  21  22
ENDBRANCH  18  21
ENDBRANCH  17  18
ENDBRANCH  16  17
ENDBRANCH  13  16
BRANCH  15  28
HETATM   28  C   UNL     1      -8.824  11.104  67.006  1.00  0.00    -0.149 C  
HETATM   29  O   UNL     1      -8.507  11.461  65.870  1.00  0.00    -0.120 OA 
HETATM   30  C   UNL     1     -10.108  10.348  67.220  1.00  0.00    -0.244 C  
ENDBRANCH  15  28
ENDBRANCH   8  10
ENDBRANCH   6   8
ENDBRANCH   3   6
ENDBRANCH   2   3
TORSDOF 11
ENDMDL
MODEL      286
REMARK 921   NORMALIZED FREE ENERGY PREDICTED BY IDOCK:   -1.85 KCAL/MOL
REMARK 922        TOTAL FREE ENERGY PREDICTED BY IDOCK:   -4.17 KCAL/MOL
REMARK 923 INTER-LIGAND FREE ENERGY PREDICTED BY IDOCK:   -3.52 KCAL/MOL
REMARK 924 INTRA-LIGAND FREE ENERGY PREDICTED BY IDOCK:   -0.65 KCAL/MOL
REMARK 927      BINDING AFFINITY PREDICTED BY RF-SCORE:    0.00 PKD
ROOT
HETATM    1  C   UNL     1     -10.623   8.287  68.533  1.00  0.00    -0.143 C  
HETATM    2  C   UNL     1      -9.212   7.890  68.943  1.00  0.00    -0.144 C  
ENDROOT
BRANCH   2   3
HETATM    3  N   UNL     1      -8.463   8.986  69.567  1.00  0.00    -0.121 N  
BRANCH   3   4
HETATM    4  C   UNL     1      -7.997   8.800  70.946  1.00  0.00    -0.135 C  
HETATM    5  C   UNL     1      -7.057   7.624  71.134  1.00  0.00    -0.054 C  
ENDBRANCH   3   4
BRANCH   3   6
HETATM    6  C   UNL     1      -8.074  10.037  68.737  1.00  0.00    -0.106 C  
HETATM    7  O   UNL     1      -8.885  10.662  68.055  1.00  0.00    -0.126 OA 
BRANCH   6   8
HETATM    8  N   UNL     1      -6.725  10.338  68.778  1.00  0.00    -0.052 N  
HETATM    9  H   UNL     1      -6.047   9.577  68.733  1.00  0.00     0.000 HD 
BRANCH   8  10
HETATM   10  C   UNL     1      -6.259  11.661  68.878  1.00  0.00    -0.057 A  
HETATM   11  C   UNL     1      -6.081  12.469  67.757  1.00  0.00    -0.119 A  
HETATM   12  C   UNL     1      -5.679  13.799  67.904  1.00  0.00    -0.116 A  
HETATM   13  C   UNL     1      -5.471  14.355  69.174  1.00  0.00    -0.080 A  
HETATM   14  C   UNL     1      -5.984  12.180  70.143  1.00  0.00    -0.154 A  
HETATM   15  C   UNL     1      -5.618  13.529  70.303  1.00  0.00    -0.139 A  
BRANCH  13  16
HETATM   16  O   UNL     1      -5.177  15.676  69.377  1.00  0.00    -0.101 OA 
BRANCH  16  17
HETATM   17  C   UNL     1      -5.447  16.588  68.300  1.00  0.00    -0.108 C  
BRANCH  17  18
HETATM   18  C   UNL     1      -5.861  17.946  68.884  1.00  0.00    -0.200 C  
HETATM   19  H   UNL     1      -5.897  19.808  68.261  1.00  0.00     0.000 HD 
HETATM   20  O   UNL     1      -5.641  18.967  67.900  1.00  0.00    -0.184 OA 
BRANCH  18  21
HETATM   21  C   UNL     1      -7.336  18.003  69.325  1.00  0.00    -0.022 C  
BRANCH  21  22
HETATM   22  N   UNL     1      -7.965  16.682  69.440  1.00  0.00    -0.051 NA 
HETATM   23  C   UNL     1      -9.177  16.490  68.615  1.00  0.00    -0.238 C  
HETATM   24  H   UNL     1      -8.168  16.473  70.418  1.00  0.00     0.000 HD 
HETATM   25  C   UNL     1      -9.726  15.088  68.945  1.00  0.00    -0.224 C  
HETATM   26  C   UNL     1      -8.854  16.530  67.111  1.00  0.00    -0.213 C  
HETATM   27  C   UNL     1     -10.264  17.525  68.949  1.00  0.00    -0.353 C  
ENDBRANCH  21  22
ENDBRANCH  18  21
ENDBRANCH  17  18
ENDBRANCH  16  17
ENDBRANCH  13  16
BRANCH  15  28
HETATM   28  C   UNL     1      -5.506  13.976  71.725  1.00  0.00    -0.231 C  
HETATM   29  O   UNL     1      -5.379  13.129  72.611  1.00  0.00    -0.397 OA 
HETATM   30  C   UNL     1      -5.489  15.438  72.081  1.00  0.00     0.349 C  
ENDBRANCH  15  28
ENDBRANCH   8  10
ENDBRANCH   6   8
ENDBRANCH   3   6
ENDBRANCH   2   3
TORSDOF 11
ENDMDL
MODEL      287
REMARK 921   NORMALIZED FREE ENERGY PREDICTED BY IDOCK:   -1.79 KCAL/MOL
REMARK 922        TOTAL FREE ENERGY PREDICTED BY IDOCK:   -4.08 KCAL/MOL
REMARK 923 INTER-LIGAND FREE ENERGY PREDICTED BY IDOCK:   -4.34 KCAL/MOL
REMARK 924 INTRA-LIGAND FREE ENERGY PREDICTED BY IDOCK:    0.26 KCAL/MOL
REMARK 927      BINDING AFFINITY PREDICTED BY RF-SCORE:    0.00 PKD
ROOT
HETATM    1  C   UNL     1     -13.059  11.255  70.777  1.00  0.00    -0.025 C  
HETATM    2  C   UNL     1     -12.976  10.190  71.862  1.00  0.00    -0.447 C  
ENDROOT
BRANCH   2   3
HETATM    3  N   UNL     1     -13.016   8.823  71.333  1.00  0.00    -0.301 N  
BRANCH   3   4
HETATM    4  C   UNL     1     -14.323   8.166  71.229  1.00  0.00    -0.272 C  
HETATM    5  C   UNL     1     -14.409   6.830  71.944  1.00  0.00    -0.275 C  
ENDBRANCH   3   4
BRANCH   3   6
HETATM    6  C   UNL     1     -11.836   8.328  70.778  1.00  0.00    -0.162 C  
HETATM    7  O   UNL     1     -10.897   9.066  70.483  1.00  0.00    -0.228 OA 
BRANCH   6   8
HETATM    8  N   UNL     1     -11.799   6.954  70.628  1.00  0.00    -0.438 N  
HETATM    9  H   UNL     1     -12.614   6.405  70.900  1.00  0.00     0.000 HD 
BRANCH   8  10
HETATM   10  C   UNL     1     -10.671   6.291  70.111  1.00  0.00    -0.286 A  
HETATM   11  C   UNL     1     -10.775   5.326  69.111  1.00  0.00    -0.054 A  
HETATM   12  C   UNL     1      -9.625   4.738  68.578  1.00  0.00    -0.218 A  
HETATM   13  C   UNL     1      -8.349   5.118  69.017  1.00  0.00    -0.087 A  
HETATM   14  C   UNL     1      -9.412   6.625  70.607  1.00  0.00    -0.174 A  
HETATM   15  C   UNL     1      -8.247   6.067  70.049  1.00  0.00    -0.122 A  
BRANCH  13  16
HETATM   16  O   UNL     1      -7.191   4.649  68.457  1.00  0.00    -0.056 OA 
BRANCH  16  17
HETATM   17  C   UNL     1      -7.189   4.408  67.041  1.00  0.00    -0.069 C  
BRANCH  17  18
HETATM   18  C   UNL     1      -6.840   5.712  66.311  1.00  0.00    -0.059 C  
HETATM   19  H   UNL     1      -5.777   6.219  64.739  1.00  0.00     0.000 HD 
HETATM   20  O   UNL     1      -5.993   5.411  65.191  1.00  0.00    -0.021 OA 
BRANCH  18  21
HETATM   21  C   UNL     1      -8.073   6.480  65.797  1.00  0.00    -0.128 C  
BRANCH  21  22
HETATM   22  N   UNL     1      -7.785   7.872  65.429  1.00  0.00    -0.091 NA 
HETATM   23  C   UNL     1      -8.276   8.887  66.386  1.00  0.00    -0.115 C  
HETATM   24  H   UNL     1      -8.141   8.069  64.494  1.00  0.00     0.000 HD 
HETATM   25  C   UNL     1      -7.954  10.266  65.778  1.00  0.00    -0.144 C  
HETATM   26  C   UNL     1      -7.553   8.787  67.740  1.00  0.00    -0.097 C  
HETATM   27  C   UNL     1      -9.796   8.791  66.590  1.00  0.00    -0.335 C  
ENDBRANCH  21  22
ENDBRANCH  18  21
ENDBRANCH  17  18
ENDBRANCH  16  17
ENDBRANCH  13  16
BRANCH  15  28
HETATM   28  C   UNL     1      -6.971   6.636  70.582  1.00  0.00    -0.064 C  
HETATM   29  O   UNL     1      -5.899   6.161  70.203  1.00  0.00    -0.016 OA 
HETATM   30  C   UNL     1      -6.976   7.808  71.526  1.00  0.00    -0.058 C  
ENDBRANCH  15  28
ENDBRANCH   8  10
ENDBRANCH   6   8
ENDBRANCH   3   6
ENDBRANCH   2   3
TORSDOF 11
ENDMDL
MODEL      288
REMARK 921   NORMALIZED FREE ENERGY PREDICTED BY IDOCK:   -1.60 KCAL/MOL
REMARK 922        TOTAL FREE ENERGY PREDICTED BY IDOCK:   -3.77 KCAL/MOL
REMARK 923 INTER-LIGAND FREE ENERGY PREDICTED BY IDOCK:   -4.23 KCAL/MOL
REMARK 924 INTRA-LIGAND FREE ENERGY PREDICTED BY IDOCK:    0.47 KCAL/MOL
REMARK 927      BINDING AFFINITY PREDICTED BY RF-SCORE:    0.00 PKD
ROOT
HETATM    1  C   UNL     1     -12.295  11.153  71.269  1.00  0.00    -0.402 C  
HETATM    2  C   UNL     1     -12.615  10.040  72.257  1.00  0.00    -0.051 C  
ENDROOT
BRANCH   2   3
HETATM    3  N   UNL     1     -12.736   8.723  71.622  1.00  0.00    -0.334 N  
BRANCH   3   4
HETATM    4  C   UNL     1     -14.085   8.214  71.350  1.00  0.00    -0.312 C  
HETATM    5  C   UNL     1     -14.376   6.858  71.964  1.00  0.00    -0.307 C  
ENDBRANCH   3   4
BRANCH   3   6
HETATM    6  C   UNL     1     -11.562   8.145  71.140  1.00  0.00    -0.279 C  
HETATM    7  O   UNL     1     -10.507   8.775  71.076  1.00  0.00    -0.202 OA 
BRANCH   6   8
HETATM    8  N   UNL     1     -11.675   6.814  70.784  1.00  0.00    -0.367 N  
HETATM    9  H   UNL     1     -12.602   6.392  70.736  1.00  0.00     0.000 HD 
BRANCH   8  10
HETATM   10  C   UNL     1     -10.550   6.024  70.485  1.00  0.00    -0.266 A  
HETATM   11  C   UNL     1     -10.206   5.693  69.177  1.00  0.00    -0.305 A  
HETATM   12  C   UNL     1      -9.044   4.962  68.917  1.00  0.00    -0.149 A  
HETATM   13  C   UNL     1      -8.191   4.567  69.957  1.00  0.00    -0.066 A  
HETATM   14  C   UNL     1      -9.749   5.575  71.535  1.00  0.00    -0.201 A  
HETATM   15  C   UNL     1      -8.557   4.873  71.280  1.00  0.00    -0.132 A  
BRANCH  13  16
HETATM   16  O   UNL     1      -6.992   3.940  69.749  1.00  0.00    -0.041 OA 
BRANCH  16  17
HETATM   17  C   UNL     1      -6.933   2.952  68.709  1.00  0.00    -0.048 C  
BRANCH  17  18
HETATM   18  C   UNL     1      -6.394   3.603  67.428  1.00  0.00    -0.037 C  
HETATM   19  H   UNL     1      -4.961   3.227  66.138  1.00  0.00     0.000 HD 
HETATM   20  O   UNL     1      -5.295   2.824  66.931  1.00  0.00    -0.011 OA 
BRANCH  18  21
HETATM   21  C   UNL     1      -7.446   3.729  66.310  1.00  0.00    -0.080 C  
BRANCH  21  22
HETATM   22  N   UNL     1      -7.067   3.046  65.068  1.00  0.00    -0.056 NA 
HETATM   23  C   UNL     1      -8.195   2.661  64.194  1.00  0.00    -0.082 C  
HETATM   24  H   UNL     1      -6.490   2.231  65.277  1.00  0.00     0.000 HD 
HETATM   25  C   UNL     1      -7.595   1.889  63.002  1.00  0.00    -0.053 C  
HETATM   26  C   UNL     1      -8.929   3.894  63.637  1.00  0.00    -0.116 C  
HETATM   27  C   UNL     1      -9.188   1.737  64.918  1.00  0.00    -0.114 C  
ENDBRANCH  21  22
ENDBRANCH  18  21
ENDBRANCH  17  18
ENDBRANCH  16  17
ENDBRANCH  13  16
BRANCH  15  28
HETATM   28  C   UNL     1      -7.732   4.592  72.495  1.00  0.00    -0.087 C  
HETATM   29  O   UNL     1      -6.566   4.989  72.533  1.00  0.00    -0.048 OA 
HETATM   30  C   UNL     1      -8.319   3.886  73.688  1.00  0.00    -0.088 C  
ENDBRANCH  15  28
ENDBRANCH   8  10
ENDBRANCH   6   8
ENDBRANCH   3   6
ENDBRANCH   2   3
TORSDOF 11
ENDMDL
MODEL      289
REMARK 921   NORMALIZED FREE ENERGY PREDICTED BY IDOCK:   -1.47 KCAL/MOL
REMARK 922        TOTAL FREE ENERGY PREDICTED BY IDOCK:   -3.56 KCAL/MOL
REMARK 923 INTER-LIGAND FREE ENERGY PREDICTED BY IDOCK:   -4.58 KCAL/MOL
REMARK 924 INTRA-LIGAND FREE ENERGY PREDICTED BY IDOCK:    1.02 KCAL/MOL
REMARK 927      BINDING AFFINITY PREDICTED BY RF-SCORE:    0.00 PKD
ROOT
HETATM    1  C   UNL     1      -8.138  20.233  65.939  1.00  0.00    -0.081 C  
HETATM    2  C   UNL     1      -7.878  19.790  67.372  1.00  0.00    -0.276 C  
ENDROOT
BRANCH   2   3
HETATM    3  N   UNL     1      -8.079  18.351  67.576  1.00  0.00    -0.245 N  
BRANCH   3   4
HETATM    4  C   UNL     1      -6.891  17.512  67.763  1.00  0.00    -0.174 C  
HETATM    5  C   UNL     1      -5.575  18.242  67.573  1.00  0.00    -0.148 C  
ENDBRANCH   3   4
BRANCH   3   6
HETATM    6  C   UNL     1      -9.390  17.922  67.782  1.00  0.00    -0.262 C  
HETATM    7  O   UNL     1     -10.355  18.543  67.339  1.00  0.00    -0.360 OA 
BRANCH   6   8
HETATM    8  N   UNL     1      -9.507  16.735  68.482  1.00  0.00    -0.237 N  
HETATM    9  H   UNL     1      -9.775  16.765  69.465  1.00  0.00     0.000 HD 
BRANCH   8  10
HETATM   10  C   UNL     1      -9.267  15.487  67.878  1.00  0.00    -0.187 A  
HETATM   11  C   UNL     1      -8.510  14.498  68.502  1.00  0.00    -0.166 A  
HETATM   12  C   UNL     1      -8.349  13.248  67.898  1.00  0.00    -0.163 A  
HETATM   13  C   UNL     1      -8.960  12.955  66.671  1.00  0.00    -0.136 A  
HETATM   14  C   UNL     1      -9.819  15.233  66.623  1.00  0.00    -0.263 A  
HETATM   15  C   UNL     1      -9.696  13.965  66.026  1.00  0.00    -0.270 A  
BRANCH  13  16
HETATM   16  O   UNL     1      -8.919  11.717  66.088  1.00  0.00    -0.209 OA 
BRANCH  16  17
HETATM   17  C   UNL     1     -10.145  11.198  65.547  1.00  0.00    -0.257 C  
BRANCH  17  18
HETATM   18  C   UNL     1      -9.847   9.898  64.787  1.00  0.00    -0.169 C  
HETATM   19  H   UNL     1      -8.285   9.089  63.915  1.00  0.00     0.000 HD 
HETATM   20  O   UNL     1      -8.469   9.894  64.385  1.00  0.00    -0.152 OA 
BRANCH  18  21
HETATM   21  C   UNL     1     -10.118   8.626  65.613  1.00  0.00     0.703 C  
BRANCH  21  22
HETATM   22  N   UNL     1      -9.563   8.679  66.971  1.00  0.00    -0.168 NA 
HETATM   23  C   UNL     1      -9.404   7.368  67.635  1.00  0.00    -0.133 C  
HETATM   24  H   UNL     1     -10.121   9.304  67.554  1.00  0.00     0.000 HD 
HETATM   25  C   UNL     1      -8.899   7.649  69.064  1.00  0.00    -0.135 C  
HETATM   26  C   UNL     1      -8.355   6.495  66.926  1.00  0.00    -0.113 C  
HETATM   27  C   UNL     1     -10.740   6.614  67.735  1.00  0.00    -0.352 C  
ENDBRANCH  21  22
ENDBRANCH  18  21
ENDBRANCH  17  18
ENDBRANCH  16  17
ENDBRANCH  13  16
BRANCH  15  28
HETATM   28  C   UNL     1     -10.467  13.800  64.757  1.00  0.00    -0.428 C  
HETATM   29  O   UNL     1      -9.891  13.369  63.756  1.00  0.00     0.261 OA 
HETATM   30  C   UNL     1     -11.941  14.099  64.698  1.00  0.00    -0.459 C  
ENDBRANCH  15  28
ENDBRANCH   8  10
ENDBRANCH   6   8
ENDBRANCH   3   6
ENDBRANCH   2   3
TORSDOF 11
ENDMDL
MODEL      290
REMARK 921   NORMALIZED FREE ENERGY PREDICTED BY IDOCK:   -1.30 KCAL/MOL
REMARK 922        TOTAL FREE ENERGY PREDICTED BY IDOCK:   -3.26 KCAL/MOL
REMARK 923 INTER-LIGAND FREE ENERGY PREDICTED BY IDOCK:   -5.94 KCAL/MOL
REMARK 924 INTRA-LIGAND FREE ENERGY PREDICTED BY IDOCK:    2.68 KCAL/MOL
REMARK 927      BINDING AFFINITY PREDICTED BY RF-SCORE:    0.00 PKD
ROOT
HETATM    1  C   UNL     1     -10.782  17.258  64.759  1.00  0.00     0.669 C  
HETATM    2  C   UNL     1     -10.924  16.671  66.157  1.00  0.00     0.110 C  
ENDROOT
BRANCH   2   3
HETATM    3  N   UNL     1      -9.721  16.839  66.978  1.00  0.00    -0.244 N  
BRANCH   3   4
HETATM    4  C   UNL     1      -8.418  16.620  66.340  1.00  0.00    -0.313 C  
HETATM    5  C   UNL     1      -7.804  15.262  66.626  1.00  0.00     0.097 C  
ENDBRANCH   3   4
BRANCH   3   6
HETATM    6  C   UNL     1      -9.895  17.395  68.246  1.00  0.00    -0.310 C  
HETATM    7  O   UNL     1      -9.130  18.248  68.692  1.00  0.00    -0.312 OA 
BRANCH   6   8
HETATM    8  N   UNL     1     -11.008  16.940  68.929  1.00  0.00    -0.262 N  
HETATM    9  H   UNL     1     -11.635  17.620  69.359  1.00  0.00     0.000 HD 
BRANCH   8  10
HETATM   10  C   UNL     1     -11.301  15.570  69.049  1.00  0.00    -0.326 A  
HETATM   11  C   UNL     1     -11.540  14.970  70.283  1.00  0.00    -0.329 A  
HETATM   12  C   UNL     1     -11.892  13.620  70.355  1.00  0.00    -0.308 A  
HETATM   13  C   UNL     1     -12.036  12.849  69.193  1.00  0.00    -0.259 A  
HETATM   14  C   UNL     1     -11.369  14.796  67.891  1.00  0.00    -0.331 A  
HETATM   15  C   UNL     1     -11.762  13.446  67.950  1.00  0.00    -0.396 A  
BRANCH  13  16
HETATM   16  O   UNL     1     -12.478  11.553  69.201  1.00  0.00    -0.271 OA 
BRANCH  16  17
HETATM   17  C   UNL     1     -11.507  10.521  68.962  1.00  0.00    -0.237 C  
BRANCH  17  18
HETATM   18  C   UNL     1     -10.913  10.071  70.304  1.00  0.00    -0.316 C  
HETATM   19  H   UNL     1     -11.341  10.326  72.204  1.00  0.00     0.000 HD 
HETATM   20  O   UNL     1     -11.709  10.605  71.373  1.00  0.00    -0.196 OA 
BRANCH  18  21
HETATM   21  C   UNL     1     -10.846   8.540  70.465  1.00  0.00    -0.228 C  
BRANCH  21  22
HETATM   22  N   UNL     1     -12.160   7.887  70.419  1.00  0.00    -0.465 NA 
HETATM   23  C   UNL     1     -12.621   7.312  71.700  1.00  0.00    -0.368 C  
HETATM   24  H   UNL     1     -12.173   7.174  69.689  1.00  0.00     0.000 HD 
HETATM   25  C   UNL     1     -13.961   6.606  71.418  1.00  0.00     0.082 C  
HETATM   26  C   UNL     1     -12.875   8.404  72.755  1.00  0.00    -0.047 C  
HETATM   27  C   UNL     1     -11.632   6.270  72.247  1.00  0.00    -0.355 C  
ENDBRANCH  21  22
ENDBRANCH  18  21
ENDBRANCH  17  18
ENDBRANCH  16  17
ENDBRANCH  13  16
BRANCH  15  28
HETATM   28  C   UNL     1     -11.935  12.793  66.617  1.00  0.00    -0.341 C  
HETATM   29  O   UNL     1     -11.402  11.701  66.411  1.00  0.00    -0.323 OA 
HETATM   30  C   UNL     1     -12.791  13.418  65.549  1.00  0.00    -0.361 C  
ENDBRANCH  15  28
ENDBRANCH   8  10
ENDBRANCH   6   8
ENDBRANCH   3   6
ENDBRANCH   2   3
TORSDOF 11
ENDMDL
MODEL      291
REMARK 921   NORMALIZED FREE ENERGY PREDICTED BY IDOCK:   -0.83 KCAL/MOL
REMARK 922        TOTAL FREE ENERGY PREDICTED BY IDOCK:   -2.49 KCAL/MOL
REMARK 923 INTER-LIGAND FREE ENERGY PREDICTED BY IDOCK:   -3.67 KCAL/MOL
REMARK 924 INTRA-LIGAND FREE ENERGY PREDICTED BY IDOCK:    1.18 KCAL/MOL
REMARK 927      BINDING AFFINITY PREDICTED BY RF-SCORE:    0.00 PKD
ROOT
HETATM    1  C   UNL     1     -10.779   5.729  67.110  1.00  0.00    -0.358 C  
HETATM    2  C   UNL     1     -10.415   7.160  66.736  1.00  0.00    -0.230 C  
ENDROOT
BRANCH   2   3
HETATM    3  N   UNL     1      -9.789   7.902  67.835  1.00  0.00    -0.159 N  
BRANCH   3   4
HETATM    4  C   UNL     1     -10.571   8.962  68.480  1.00  0.00    -0.141 C  
HETATM    5  C   UNL     1     -10.522  10.299  67.763  1.00  0.00    -0.269 C  
ENDBRANCH   3   4
BRANCH   3   6
HETATM    6  C   UNL     1      -8.578   7.409  68.319  1.00  0.00    -0.124 C  
HETATM    7  O   UNL     1      -8.050   6.403  67.846  1.00  0.00    -0.113 OA 
BRANCH   6   8
HETATM    8  N   UNL     1      -8.011   8.159  69.333  1.00  0.00    -0.112 N  
HETATM    9  H   UNL     1      -8.021   7.791  70.284  1.00  0.00     0.000 HD 
BRANCH   8  10
HETATM   10  C   UNL     1      -7.422   9.413  69.092  1.00  0.00    -0.073 A  
HETATM   11  C   UNL     1      -7.437  10.006  67.831  1.00  0.00    -0.089 A  
HETATM   12  C   UNL     1      -6.898  11.282  67.647  1.00  0.00    -0.077 A  
HETATM   13  C   UNL     1      -6.356  12.000  68.721  1.00  0.00    -0.071 A  
HETATM   14  C   UNL     1      -6.819  10.086  70.154  1.00  0.00    -0.137 A  
HETATM   15  C   UNL     1      -6.310  11.386  69.986  1.00  0.00    -0.132 A  
BRANCH  13  16
HETATM   16  O   UNL     1      -5.910  13.290  68.615  1.00  0.00    -0.076 OA 
BRANCH  16  17
HETATM   17  C   UNL     1      -6.843  14.278  68.149  1.00  0.00    -0.124 C  
BRANCH  17  18
HETATM   18  C   UNL     1      -8.233  13.638  68.033  1.00  0.00    -0.162 C  
HETATM   19  H   UNL     1      -9.841  13.520  69.155  1.00  0.00     0.000 HD 
HETATM   20  O   UNL     1      -8.980  13.916  69.227  1.00  0.00     0.271 OA 
BRANCH  18  21
HETATM   21  C   UNL     1      -9.044  14.141  66.823  1.00  0.00    -0.247 C  
BRANCH  21  22
HETATM   22  N   UNL     1     -10.470  13.801  66.891  1.00  0.00    -0.271 NA 
HETATM   23  C   UNL     1     -11.172  13.774  65.590  1.00  0.00    -0.302 C  
HETATM   24  H   UNL     1     -10.951  14.429  67.537  1.00  0.00     0.000 HD 
HETATM   25  C   UNL     1     -12.656  13.488  65.887  1.00  0.00    -0.454 C  
HETATM   26  C   UNL     1     -10.645  12.647  64.684  1.00  0.00    -0.357 C  
HETATM   27  C   UNL     1     -11.076  15.124  64.862  1.00  0.00    -0.425 C  
ENDBRANCH  21  22
ENDBRANCH  18  21
ENDBRANCH  17  18
ENDBRANCH  16  17
ENDBRANCH  13  16
BRANCH  15  28
HETATM   28  C   UNL     1      -5.835  12.033  71.247  1.00  0.00     0.498 C  
HETATM   29  O   UNL     1      -6.052  13.233  71.424  1.00  0.00    -0.185 OA 
HETATM   30  C   UNL     1      -5.147  11.233  72.321  1.00  0.00     0.245 C  
ENDBRANCH  15  28
ENDBRANCH   8  10
ENDBRANCH   6   8
ENDBRANCH   3   6
ENDBRANCH   2   3
TORSDOF 11
ENDMDL
MODEL      292
REMARK 921   NORMALIZED FREE ENERGY PREDICTED BY IDOCK:   -0.09 KCAL/MOL
REMARK 922        TOTAL FREE ENERGY PREDICTED BY IDOCK:   -1.27 KCAL/MOL
REMARK 923 INTER-LIGAND FREE ENERGY PREDICTED BY IDOCK:   -1.56 KCAL/MOL
REMARK 924 INTRA-LIGAND FREE ENERGY PREDICTED BY IDOCK:    0.28 KCAL/MOL
REMARK 927      BINDING AFFINITY PREDICTED BY RF-SCORE:    0.00 PKD
ROOT
HETATM    1  C   UNL     1      -5.426   3.194  68.537  1.00  0.00    -0.013 C  
HETATM    2  C   UNL     1      -5.126   4.154  69.680  1.00  0.00     0.000 C  
ENDROOT
BRANCH   2   3
HETATM    3  N   UNL     1      -6.301   4.453  70.505  1.00  0.00    -0.022 N  
BRANCH   3   4
HETATM    4  C   UNL     1      -6.736   3.440  71.473  1.00  0.00    -0.026 C  
HETATM    5  C   UNL     1      -6.125   2.068  71.257  1.00  0.00    -0.017 C  
ENDBRANCH   3   4
BRANCH   3   6
HETATM    6  C   UNL     1      -6.792   5.758  70.454  1.00  0.00    -0.049 C  
HETATM    7  O   UNL     1      -6.143   6.713  70.877  1.00  0.00    -0.027 OA 
BRANCH   6   8
HETATM    8  N   UNL     1      -8.033   5.887  69.858  1.00  0.00    -0.102 N  
HETATM    9  H   UNL     1      -8.725   5.150  69.993  1.00  0.00     0.000 HD 
BRANCH   8  10
HETATM   10  C   UNL     1      -8.369   7.003  69.071  1.00  0.00    -0.126 A  
HETATM   11  C   UNL     1      -7.650   7.345  67.928  1.00  0.00    -0.114 A  
HETATM   12  C   UNL     1      -8.055   8.422  67.136  1.00  0.00    -0.104 A  
HETATM   13  C   UNL     1      -9.200   9.164  67.457  1.00  0.00    -0.128 A  
HETATM   14  C   UNL     1      -9.467   7.778  69.442  1.00  0.00    -0.156 A  
HETATM   15  C   UNL     1      -9.905   8.840  68.630  1.00  0.00    -0.180 A  
BRANCH  13  16
HETATM   16  O   UNL     1      -9.697  10.162  66.662  1.00  0.00    -0.176 OA 
BRANCH  16  17
HETATM   17  C   UNL     1      -9.038  10.400  65.408  1.00  0.00    -0.189 C  
BRANCH  17  18
HETATM   18  C   UNL     1      -9.964  11.223  64.503  1.00  0.00    -0.284 C  
HETATM   19  H   UNL     1     -10.690  11.057  62.685  1.00  0.00     0.000 HD 
HETATM   20  O   UNL     1     -10.116  10.547  63.246  1.00  0.00    -0.256 OA 
BRANCH  18  21
HETATM   21  C   UNL     1     -11.364  11.456  65.103  1.00  0.00    -0.009 C  
BRANCH  21  22
HETATM   22  N   UNL     1     -11.846  12.834  64.948  1.00  0.00    -0.357 NA 
HETATM   23  C   UNL     1     -11.162  13.836  65.794  1.00  0.00    -0.297 C  
HETATM   24  H   UNL     1     -12.854  12.874  65.101  1.00  0.00     0.000 HD 
HETATM   25  C   UNL     1     -11.868  15.184  65.550  1.00  0.00     0.020 C  
HETATM   26  C   UNL     1      -9.684  13.998  65.402  1.00  0.00    -0.109 C  
HETATM   27  C   UNL     1     -11.278  13.495  67.289  1.00  0.00    -0.319 C  
ENDBRANCH  21  22
ENDBRANCH  18  21
ENDBRANCH  17  18
ENDBRANCH  16  17
ENDBRANCH  13  16
BRANCH  15  28
HETATM   28  C   UNL     1     -11.180   9.478  69.079  1.00  0.00     0.065 C  
HETATM   29  O   UNL     1     -12.194   8.785  69.183  1.00  0.00     1.759 OA 
HETATM   30  C   UNL     1     -11.230  10.934  69.458  1.00  0.00    -0.340 C  
ENDBRANCH  15  28
ENDBRANCH   8  10
ENDBRANCH   6   8
ENDBRANCH   3   6
ENDBRANCH   2   3
TORSDOF 11
ENDMDL
MODEL      293
REMARK 921   NORMALIZED FREE ENERGY PREDICTED BY IDOCK:   -0.06 KCAL/MOL
REMARK 922        TOTAL FREE ENERGY PREDICTED BY IDOCK:   -1.23 KCAL/MOL
REMARK 923 INTER-LIGAND FREE ENERGY PREDICTED BY IDOCK:   -0.96 KCAL/MOL
REMARK 924 INTRA-LIGAND FREE ENERGY PREDICTED BY IDOCK:   -0.26 KCAL/MOL
REMARK 927      BINDING AFFINITY PREDICTED BY RF-SCORE:    0.00 PKD
ROOT
HETATM    1  C   UNL     1      -5.431   3.195  68.545  1.00  0.00    -0.013 C  
HETATM    2  C   UNL     1      -5.304   4.092  69.769  1.00  0.00    -0.008 C  
ENDROOT
BRANCH   2   3
HETATM    3  N   UNL     1      -6.560   4.232  70.514  1.00  0.00    -0.031 N  
BRANCH   3   4
HETATM    4  C   UNL     1      -6.976   3.118  71.372  1.00  0.00    -0.032 C  
HETATM    5  C   UNL     1      -6.228   1.822  71.120  1.00  0.00    -0.018 C  
ENDBRANCH   3   4
BRANCH   3   6
HETATM    6  C   UNL     1      -7.157   5.492  70.511  1.00  0.00    -0.062 C  
HETATM    7  O   UNL     1      -7.385   6.106  71.553  1.00  0.00    -0.085 OA 
BRANCH   6   8
HETATM    8  N   UNL     1      -7.430   6.002  69.255  1.00  0.00    -0.087 N  
HETATM    9  H   UNL     1      -7.646   5.356  68.496  1.00  0.00     0.000 HD 
BRANCH   8  10
HETATM   10  C   UNL     1      -7.418   7.383  68.993  1.00  0.00    -0.100 A  
HETATM   11  C   UNL     1      -6.330   8.188  69.321  1.00  0.00    -0.039 A  
HETATM   12  C   UNL     1      -6.329   9.545  68.985  1.00  0.00    -0.042 A  
HETATM   13  C   UNL     1      -7.405  10.118  68.293  1.00  0.00    -0.081 A  
HETATM   14  C   UNL     1      -8.526   7.957  68.370  1.00  0.00    -0.128 A  
HETATM   15  C   UNL     1      -8.518   9.312  67.992  1.00  0.00    -0.120 A  
BRANCH  13  16
HETATM   16  O   UNL     1      -7.410  11.413  67.851  1.00  0.00    -0.086 OA 
BRANCH  16  17
HETATM   17  C   UNL     1      -6.287  12.237  68.201  1.00  0.00    -0.062 C  
BRANCH  17  18
HETATM   18  C   UNL     1      -6.795  13.613  68.653  1.00  0.00    -0.097 C  
HETATM   19  H   UNL     1      -6.353  15.488  68.269  1.00  0.00     0.000 HD 
HETATM   20  O   UNL     1      -6.038  14.636  67.989  1.00  0.00    -0.131 OA 
BRANCH  18  21
HETATM   21  C   UNL     1      -8.290  13.844  68.360  1.00  0.00    -0.157 C  
BRANCH  21  22
HETATM   22  N   UNL     1      -8.628  15.251  68.115  1.00  0.00    -0.157 NA 
HETATM   23  C   UNL     1      -9.446  15.892  69.167  1.00  0.00    -0.260 C  
HETATM   24  H   UNL     1      -9.082  15.352  67.207  1.00  0.00     0.000 HD 
HETATM   25  C   UNL     1      -9.761  17.320  68.682  1.00  0.00    -0.301 C  
HETATM   26  C   UNL     1      -8.679  16.002  70.496  1.00  0.00     2.129 C  
HETATM   27  C   UNL     1     -10.776  15.151  69.386  1.00  0.00    -0.269 C  
ENDBRANCH  21  22
ENDBRANCH  18  21
ENDBRANCH  17  18
ENDBRANCH  16  17
ENDBRANCH  13  16
BRANCH  15  28
HETATM   28  C   UNL     1      -9.711   9.741  67.201  1.00  0.00    -0.176 C  
HETATM   29  O   UNL     1      -9.963   9.171  66.138  1.00  0.00    -0.286 OA 
HETATM   30  C   UNL     1     -10.635  10.816  67.708  1.00  0.00    -0.266 C  
ENDBRANCH  15  28
ENDBRANCH   8  10
ENDBRANCH   6   8
ENDBRANCH   3   6
ENDBRANCH   2   3
TORSDOF 11
ENDMDL
MODEL      294
REMARK 921   NORMALIZED FREE ENERGY PREDICTED BY IDOCK:    0.19 KCAL/MOL
REMARK 922        TOTAL FREE ENERGY PREDICTED BY IDOCK:   -0.82 KCAL/MOL
REMARK 923 INTER-LIGAND FREE ENERGY PREDICTED BY IDOCK:   -0.70 KCAL/MOL
REMARK 924 INTRA-LIGAND FREE ENERGY PREDICTED BY IDOCK:   -0.11 KCAL/MOL
REMARK 927      BINDING AFFINITY PREDICTED BY RF-SCORE:    0.00 PKD
ROOT
HETATM    1  C   UNL     1     -11.829  10.159  67.108  1.00  0.00     2.089 C  
HETATM    2  C   UNL     1     -10.989   9.227  67.971  1.00  0.00    -0.015 C  
ENDROOT
BRANCH   2   3
HETATM    3  N   UNL     1      -9.895   9.914  68.666  1.00  0.00    -0.154 N  
BRANCH   3   4
HETATM    4  C   UNL     1      -9.579   9.491  70.034  1.00  0.00    -0.238 C  
HETATM    5  C   UNL     1     -10.769   8.967  70.816  1.00  0.00    -0.287 C  
ENDBRANCH   3   4
BRANCH   3   6
HETATM    6  C   UNL     1      -9.105  10.773  67.902  1.00  0.00    -0.150 C  
HETATM    7  O   UNL     1      -9.578  11.462  67.000  1.00  0.00    -0.174 OA 
BRANCH   6   8
HETATM    8  N   UNL     1      -7.772  10.812  68.269  1.00  0.00    -0.104 N  
HETATM    9  H   UNL     1      -7.313   9.949  68.559  1.00  0.00     0.000 HD 
BRANCH   8  10
HETATM   10  C   UNL     1      -7.030  12.007  68.254  1.00  0.00    -0.075 A  
HETATM   11  C   UNL     1      -6.429  12.489  67.094  1.00  0.00    -0.053 A  
HETATM   12  C   UNL     1      -5.756  13.714  67.105  1.00  0.00     0.715 A  
HETATM   13  C   UNL     1      -5.691  14.492  68.269  1.00  0.00    -0.118 A  
HETATM   14  C   UNL     1      -6.910  12.736  69.437  1.00  0.00     0.039 A  
HETATM   15  C   UNL     1      -6.269  13.988  69.448  1.00  0.00    -0.108 A  
BRANCH  13  16
HETATM   16  O   UNL     1      -5.134  15.742  68.308  1.00  0.00    -0.090 OA 
BRANCH  16  17
HETATM   17  C   UNL     1      -5.663  16.731  67.410  1.00  0.00    -0.158 C  
BRANCH  17  18
HETATM   18  C   UNL     1      -6.308  17.858  68.228  1.00  0.00    -0.187 C  
HETATM   19  H   UNL     1      -6.243  19.821  68.239  1.00  0.00     0.000 HD 
HETATM   20  O   UNL     1      -5.844  19.123  67.732  1.00  0.00    -0.191 OA 
BRANCH  18  21
HETATM   21  C   UNL     1      -7.848  17.851  68.182  1.00  0.00    -0.266 C  
BRANCH  21  22
HETATM   22  N   UNL     1      -8.406  18.706  67.128  1.00  0.00    -0.259 NA 
HETATM   23  C   UNL     1      -9.810  19.122  67.336  1.00  0.00    -0.329 C  
HETATM   24  H   UNL     1      -8.304  18.256  66.218  1.00  0.00     0.000 HD 
HETATM   25  C   UNL     1     -10.227  19.929  66.091  1.00  0.00    -0.611 C  
HETATM   26  C   UNL     1      -9.955  20.039  68.564  1.00  0.00    -0.454 C  
HETATM   27  C   UNL     1     -10.750  17.913  67.466  1.00  0.00    -0.333 C  
ENDBRANCH  21  22
ENDBRANCH  18  21
ENDBRANCH  17  18
ENDBRANCH  16  17
ENDBRANCH  13  16
BRANCH  15  28
HETATM   28  C   UNL     1      -6.353  14.715  70.752  1.00  0.00     0.002 C  
HETATM   29  O   UNL     1      -6.928  15.805  70.795  1.00  0.00     0.829 OA 
HETATM   30  C   UNL     1      -5.798  14.114  72.015  1.00  0.00    -0.024 C  
ENDBRANCH  15  28
ENDBRANCH   8  10
ENDBRANCH   6   8
ENDBRANCH   3   6
ENDBRANCH   2   3
TORSDOF 11
ENDMDL
MODEL      295
REMARK 921   NORMALIZED FREE ENERGY PREDICTED BY IDOCK:    0.55 KCAL/MOL
REMARK 922        TOTAL FREE ENERGY PREDICTED BY IDOCK:   -0.23 KCAL/MOL
REMARK 923 INTER-LIGAND FREE ENERGY PREDICTED BY IDOCK:   -3.44 KCAL/MOL
REMARK 924 INTRA-LIGAND FREE ENERGY PREDICTED BY IDOCK:    3.21 KCAL/MOL
REMARK 927      BINDING AFFINITY PREDICTED BY RF-SCORE:    0.00 PKD
ROOT
HETATM    1  C   UNL     1      -7.318   7.542  69.450  1.00  0.00    -0.085 C  
HETATM    2  C   UNL     1      -7.438   8.219  70.809  1.00  0.00    -0.065 C  
ENDROOT
BRANCH   2   3
HETATM    3  N   UNL     1      -8.341   7.516  71.725  1.00  0.00    -0.105 N  
BRANCH   3   4
HETATM    4  C   UNL     1      -7.773   6.468  72.579  1.00  0.00    -0.099 C  
HETATM    5  C   UNL     1      -7.187   5.293  71.819  1.00  0.00    -0.080 C  
ENDBRANCH   3   4
BRANCH   3   6
HETATM    6  C   UNL     1      -9.628   8.037  71.865  1.00  0.00    -0.183 C  
HETATM    7  O   UNL     1      -9.927   8.791  72.790  1.00  0.00    -0.122 OA 
BRANCH   6   8
HETATM    8  N   UNL     1     -10.512   7.671  70.867  1.00  0.00    -0.206 N  
HETATM    9  H   UNL     1     -11.426   7.302  71.127  1.00  0.00     0.000 HD 
BRANCH   8  10
HETATM   10  C   UNL     1     -10.188   7.793  69.503  1.00  0.00    -0.207 A  
HETATM   11  C   UNL     1     -10.206   6.700  68.639  1.00  0.00    -0.184 A  
HETATM   12  C   UNL     1      -9.942   6.874  67.278  1.00  0.00    -0.224 A  
HETATM   13  C   UNL     1      -9.678   8.145  66.750  1.00  0.00    -0.235 A  
HETATM   14  C   UNL     1      -9.855   9.051  69.003  1.00  0.00    -0.178 A  
HETATM   15  C   UNL     1      -9.627   9.242  67.628  1.00  0.00    -0.172 A  
BRANCH  13  16
HETATM   16  O   UNL     1      -9.515   8.384  65.412  1.00  0.00     0.048 OA 
BRANCH  16  17
HETATM   17  C   UNL     1      -8.215   8.802  64.967  1.00  0.00    -0.155 C  
BRANCH  17  18
HETATM   18  C   UNL     1      -7.508   7.617  64.296  1.00  0.00    -0.101 C  
HETATM   19  H   UNL     1      -5.878   6.569  64.616  1.00  0.00     0.000 HD 
HETATM   20  O   UNL     1      -6.315   7.304  65.031  1.00  0.00    -0.037 OA 
BRANCH  18  21
HETATM   21  C   UNL     1      -8.378   6.347  64.215  1.00  0.00     0.076 C  
BRANCH  21  22
HETATM   22  N   UNL     1      -7.642   5.113  64.516  1.00  0.00    -0.075 NA 
HETATM   23  C   UNL     1      -8.480   3.971  64.939  1.00  0.00    -0.113 C  
HETATM   24  H   UNL     1      -6.919   5.295  65.212  1.00  0.00     0.000 HD 
HETATM   25  C   UNL     1      -7.520   2.817  65.288  1.00  0.00    -0.072 C  
HETATM   26  C   UNL     1      -9.403   3.492  63.805  1.00  0.00    -0.124 C  
HETATM   27  C   UNL     1      -9.310   4.304  66.190  1.00  0.00    -0.164 C  
ENDBRANCH  21  22
ENDBRANCH  18  21
ENDBRANCH  17  18
ENDBRANCH  16  17
ENDBRANCH  13  16
BRANCH  15  28
HETATM   28  C   UNL     1      -9.432  10.668  67.225  1.00  0.00    -0.158 C  
HETATM   29  O   UNL     1      -8.661  11.375  67.875  1.00  0.00    -0.131 OA 
HETATM   30  C   UNL     1     -10.117  11.233  66.009  1.00  0.00    -0.283 C  
ENDBRANCH  15  28
ENDBRANCH   8  10
ENDBRANCH   6   8
ENDBRANCH   3   6
ENDBRANCH   2   3
TORSDOF 11
ENDMDL
MODEL      296
REMARK 921   NORMALIZED FREE ENERGY PREDICTED BY IDOCK:    1.51 KCAL/MOL
REMARK 922        TOTAL FREE ENERGY PREDICTED BY IDOCK:    1.35 KCAL/MOL
REMARK 923 INTER-LIGAND FREE ENERGY PREDICTED BY IDOCK:   -1.73 KCAL/MOL
REMARK 924 INTRA-LIGAND FREE ENERGY PREDICTED BY IDOCK:    3.08 KCAL/MOL
REMARK 927      BINDING AFFINITY PREDICTED BY RF-SCORE:    0.00 PKD
ROOT
HETATM    1  C   UNL     1     -11.980   6.486  71.198  1.00  0.00    -0.365 C  
HETATM    2  C   UNL     1     -11.117   6.242  69.967  1.00  0.00    -0.388 C  
ENDROOT
BRANCH   2   3
HETATM    3  N   UNL     1      -9.681   6.356  70.238  1.00  0.00    -0.167 N  
BRANCH   3   4
HETATM    4  C   UNL     1      -9.022   5.242  70.929  1.00  0.00    -0.137 C  
HETATM    5  C   UNL     1      -9.038   5.350  72.443  1.00  0.00    -0.145 C  
ENDBRANCH   3   4
BRANCH   3   6
HETATM    6  C   UNL     1      -9.008   7.420  69.636  1.00  0.00    -0.141 C  
HETATM    7  O   UNL     1      -7.874   7.295  69.176  1.00  0.00    -0.112 OA 
BRANCH   6   8
HETATM    8  N   UNL     1      -9.731   8.596  69.566  1.00  0.00    -0.177 N  
HETATM    9  H   UNL     1     -10.715   8.589  69.836  1.00  0.00     0.000 HD 
BRANCH   8  10
HETATM   10  C   UNL     1      -9.151   9.802  69.133  1.00  0.00    -0.165 A  
HETATM   11  C   UNL     1      -8.608  10.723  70.026  1.00  0.00     0.829 A  
HETATM   12  C   UNL     1      -7.982  11.879  69.553  1.00  0.00     0.787 A  
HETATM   13  C   UNL     1      -7.866  12.126  68.178  1.00  0.00    -0.147 A  
HETATM   14  C   UNL     1      -9.108  10.072  67.766  1.00  0.00    -0.137 A  
HETATM   15  C   UNL     1      -8.445  11.213  67.279  1.00  0.00    -0.137 A  
BRANCH  13  16
HETATM   16  O   UNL     1      -7.175  13.189  67.661  1.00  0.00    -0.130 OA 
BRANCH  16  17
HETATM   17  C   UNL     1      -7.878  14.062  66.762  1.00  0.00     0.507 C  
BRANCH  17  18
HETATM   18  C   UNL     1      -9.235  14.428  67.377  1.00  0.00    -0.198 C  
HETATM   19  H   UNL     1     -10.279  13.874  68.946  1.00  0.00     0.000 HD 
HETATM   20  O   UNL     1      -9.438  13.647  68.565  1.00  0.00    -0.204 OA 
BRANCH  18  21
HETATM   21  C   UNL     1      -9.364  15.918  67.745  1.00  0.00    -0.207 C  
BRANCH  21  22
HETATM   22  N   UNL     1      -9.924  16.742  66.667  1.00  0.00    -0.280 NA 
HETATM   23  C   UNL     1     -10.111  18.170  67.001  1.00  0.00    -0.351 C  
HETATM   24  H   UNL     1     -10.803  16.340  66.338  1.00  0.00     0.000 HD 
HETATM   25  C   UNL     1     -10.784  18.831  65.782  1.00  0.00    -0.263 C  
HETATM   26  C   UNL     1      -8.766  18.878  67.240  1.00  0.00    -0.294 C  
HETATM   27  C   UNL     1     -11.029  18.356  68.220  1.00  0.00     0.219 C  
ENDBRANCH  21  22
ENDBRANCH  18  21
ENDBRANCH  17  18
ENDBRANCH  16  17
ENDBRANCH  13  16
BRANCH  15  28
HETATM   28  C   UNL     1      -8.352  11.286  65.788  1.00  0.00     0.023 C  
HETATM   29  O   UNL     1      -7.261  11.097  65.246  1.00  0.00     0.262 OA 
HETATM   30  C   UNL     1      -9.573  11.530  64.943  1.00  0.00    -0.212 C  
ENDBRANCH  15  28
ENDBRANCH   8  10
ENDBRANCH   6   8
ENDBRANCH   3   6
ENDBRANCH   2   3
TORSDOF 11
ENDMDL
MODEL      297
REMARK 921   NORMALIZED FREE ENERGY PREDICTED BY IDOCK:   11.07 KCAL/MOL
REMARK 922        TOTAL FREE ENERGY PREDICTED BY IDOCK:   17.05 KCAL/MOL
REMARK 923 INTER-LIGAND FREE ENERGY PREDICTED BY IDOCK:   10.99 KCAL/MOL
REMARK 924 INTRA-LIGAND FREE ENERGY PREDICTED BY IDOCK:    6.06 KCAL/MOL
REMARK 927      BINDING AFFINITY PREDICTED BY RF-SCORE:    0.00 PKD
ROOT
HETATM    1  C   UNL     1     -14.394  16.160  72.467  1.00  0.00     0.243 C  
HETATM    2  C   UNL     1     -12.874  16.098  72.517  1.00  0.00    -0.310 C  
ENDROOT
BRANCH   2   3
HETATM    3  N   UNL     1     -12.289  15.362  71.391  1.00  0.00    -0.343 N  
BRANCH   3   4
HETATM    4  C   UNL     1     -12.324  15.993  70.067  1.00  0.00     0.053 C  
HETATM    5  C   UNL     1     -11.551  17.295  69.975  1.00  0.00     1.876 C  
ENDBRANCH   3   4
BRANCH   3   6
HETATM    6  C   UNL     1     -11.561  14.213  71.699  1.00  0.00     0.634 C  
HETATM    7  O   UNL     1     -10.337  14.232  71.821  1.00  0.00     2.750 OA 
BRANCH   6   8
HETATM    8  N   UNL     1     -12.326  13.078  71.893  1.00  0.00     0.097 N  
HETATM    9  H   UNL     1     -13.254  13.171  72.304  1.00  0.00     0.000 HD 
BRANCH   8  10
HETATM   10  C   UNL     1     -11.862  11.798  71.540  1.00  0.00     1.231 A  
HETATM   11  C   UNL     1     -10.975  11.598  70.484  1.00  0.00     1.188 A  
HETATM   12  C   UNL     1     -10.486  10.319  70.206  1.00  0.00    -0.207 A  
HETATM   13  C   UNL     1     -10.855   9.219  70.992  1.00  0.00    -0.314 A  
HETATM   14  C   UNL     1     -12.293  10.700  72.283  1.00  0.00     0.714 A  
HETATM   15  C   UNL     1     -11.776   9.415  72.036  1.00  0.00    -0.269 A  
BRANCH  13  16
HETATM   16  O   UNL     1     -10.327   7.966  70.826  1.00  0.00    -0.201 OA 
BRANCH  16  17
HETATM   17  C   UNL     1      -9.636   7.386  71.945  1.00  0.00    -0.151 C  
BRANCH  17  18
HETATM   18  C   UNL     1      -9.982   5.893  72.027  1.00  0.00    -0.175 C  
HETATM   19  H   UNL     1     -10.778   4.691  73.361  1.00  0.00     0.000 HD 
HETATM   20  O   UNL     1     -10.563   5.615  73.310  1.00  0.00    -0.216 OA 
BRANCH  18  21
HETATM   21  C   UNL     1     -10.965   5.427  70.935  1.00  0.00    -0.048 C  
BRANCH  21  22
HETATM   22  N   UNL     1     -10.403   4.412  70.035  1.00  0.00     0.093 NA 
HETATM   23  C   UNL     1      -9.142   4.797  69.367  1.00  0.00    -0.104 C  
HETATM   24  H   UNL     1     -11.098   4.133  69.342  1.00  0.00     0.000 HD 
HETATM   25  C   UNL     1      -8.772   3.645  68.411  1.00  0.00    -0.135 C  
HETATM   26  C   UNL     1      -7.991   4.963  70.375  1.00  0.00    -0.070 C  
HETATM   27  C   UNL     1      -9.305   6.080  68.536  1.00  0.00    -0.118 C  
ENDBRANCH  21  22
ENDBRANCH  18  21
ENDBRANCH  17  18
ENDBRANCH  16  17
ENDBRANCH  13  16
BRANCH  15  28
HETATM   28  C   UNL     1     -12.218   8.371  73.010  1.00  0.00     0.407 C  
HETATM   29  O   UNL     1     -12.534   8.712  74.152  1.00  0.00     4.090 OA 
HETATM   30  C   UNL     1     -12.335   6.927  72.603  1.00  0.00     0.277 C  
ENDBRANCH  15  28
ENDBRANCH   8  10
ENDBRANCH   6   8
ENDBRANCH   3   6
ENDBRANCH   2   3
TORSDOF 11
ENDMDL
MODEL      298
REMARK 921   NORMALIZED FREE ENERGY PREDICTED BY IDOCK:   16.77 KCAL/MOL
REMARK 922        TOTAL FREE ENERGY PREDICTED BY IDOCK:   26.43 KCAL/MOL
REMARK 923 INTER-LIGAND FREE ENERGY PREDICTED BY IDOCK:    6.52 KCAL/MOL
REMARK 924 INTRA-LIGAND FREE ENERGY PREDICTED BY IDOCK:   19.91 KCAL/MOL
REMARK 927      BINDING AFFINITY PREDICTED BY RF-SCORE:    0.00 PKD
ROOT
HETATM    1  C   UNL     1     -10.259  18.233  65.322  1.00  0.00     0.830 C  
HETATM    2  C   UNL     1      -9.997  17.152  66.362  1.00  0.00    -0.306 C  
ENDROOT
BRANCH   2   3
HETATM    3  N   UNL     1      -8.855  17.454  67.232  1.00  0.00    -0.228 N  
BRANCH   3   4
HETATM    4  C   UNL     1      -7.544  17.641  66.603  1.00  0.00    -0.238 C  
HETATM    5  C   UNL     1      -7.288  19.048  66.097  1.00  0.00    -0.294 C  
ENDBRANCH   3   4
BRANCH   3   6
HETATM    6  C   UNL     1      -9.139  17.743  68.566  1.00  0.00    -0.282 C  
HETATM    7  O   UNL     1      -8.505  18.587  69.198  1.00  0.00    -0.111 OA 
BRANCH   6   8
HETATM    8  N   UNL     1     -10.204  17.039  69.098  1.00  0.00    -0.301 N  
HETATM    9  H   UNL     1     -10.634  17.371  69.961  1.00  0.00     0.000 HD 
BRANCH   8  10
HETATM   10  C   UNL     1     -10.713  15.881  68.484  1.00  0.00    -0.274 A  
HETATM   11  C   UNL     1     -11.927  15.314  68.865  1.00  0.00    -0.292 A  
HETATM   12  C   UNL     1     -12.430  14.201  68.186  1.00  0.00     0.212 A  
HETATM   13  C   UNL     1     -11.741  13.647  67.099  1.00  0.00    -0.383 A  
HETATM   14  C   UNL     1      -9.983  15.295  67.450  1.00  0.00    -0.223 A  
HETATM   15  C   UNL     1     -10.500  14.199  66.736  1.00  0.00    -0.277 A  
BRANCH  13  16
HETATM   16  O   UNL     1     -12.238  12.624  66.337  1.00  0.00    -0.550 OA 
BRANCH  16  17
HETATM   17  C   UNL     1     -11.497  11.393  66.315  1.00  0.00     0.050 C  
BRANCH  17  18
HETATM   18  C   UNL     1     -10.311  11.505  67.283  1.00  0.00    -0.206 C  
HETATM   19  H   UNL     1      -9.862  12.588  68.859  1.00  0.00     0.000 HD 
HETATM   20  O   UNL     1     -10.596  12.519  68.259  1.00  0.00    -0.217 OA 
BRANCH  18  21
HETATM   21  C   UNL     1      -9.994  10.191  68.023  1.00  0.00    -0.148 C  
BRANCH  21  22
HETATM   22  N   UNL     1     -11.188   9.415  68.377  1.00  0.00    -0.478 NA 
HETATM   23  C   UNL     1     -12.278  10.191  69.006  1.00  0.00     0.681 C  
HETATM   24  H   UNL     1     -10.932   8.625  68.970  1.00  0.00     0.000 HD 
HETATM   25  C   UNL     1     -13.387   9.188  69.376  1.00  0.00     4.384 C  
HETATM   26  C   UNL     1     -12.877  11.222  68.033  1.00  0.00     3.256 C  
HETATM   27  C   UNL     1     -11.810  10.890  70.293  1.00  0.00    -0.450 C  
ENDBRANCH  21  22
ENDBRANCH  18  21
ENDBRANCH  17  18
ENDBRANCH  16  17
ENDBRANCH  13  16
BRANCH  15  28
HETATM   28  C   UNL     1      -9.674  13.779  65.562  1.00  0.00    -0.068 C  
HETATM   29  O   UNL     1     -10.217  13.641  64.465  1.00  0.00    -0.402 OA 
HETATM   30  C   UNL     1      -8.187  13.579  65.689  1.00  0.00     2.830 C  
ENDBRANCH  15  28
ENDBRANCH   8  10
ENDBRANCH   6   8
ENDBRANCH   3   6
ENDBRANCH   2   3
TORSDOF 11
ENDMDL
MODEL      299
REMARK 921   NORMALIZED FREE ENERGY PREDICTED BY IDOCK:   20.02 KCAL/MOL
REMARK 922        TOTAL FREE ENERGY PREDICTED BY IDOCK:   31.76 KCAL/MOL
REMARK 923 INTER-LIGAND FREE ENERGY PREDICTED BY IDOCK:   13.39 KCAL/MOL
REMARK 924 INTRA-LIGAND FREE ENERGY PREDICTED BY IDOCK:   18.37 KCAL/MOL
REMARK 927      BINDING AFFINITY PREDICTED BY RF-SCORE:    0.00 PKD
ROOT
HETATM    1  C   UNL     1      -5.581  17.312  70.779  1.00  0.00     0.001 C  
HETATM    2  C   UNL     1      -6.939  16.655  70.576  1.00  0.00     1.726 C  
ENDROOT
BRANCH   2   3
HETATM    3  N   UNL     1      -6.882  15.464  69.722  1.00  0.00    -0.179 N  
BRANCH   3   4
HETATM    4  C   UNL     1      -7.910  14.434  69.911  1.00  0.00     0.505 C  
HETATM    5  C   UNL     1      -8.019  13.914  71.332  1.00  0.00     5.960 C  
ENDBRANCH   3   4
BRANCH   3   6
HETATM    6  C   UNL     1      -5.981  15.493  68.658  1.00  0.00    -0.097 C  
HETATM    7  O   UNL     1      -5.170  16.409  68.518  1.00  0.00    -0.102 OA 
BRANCH   6   8
HETATM    8  N   UNL     1      -6.047  14.402  67.812  1.00  0.00    -0.144 N  
HETATM    9  H   UNL     1      -5.298  13.711  67.837  1.00  0.00     0.000 HD 
BRANCH   8  10
HETATM   10  C   UNL     1      -7.117  14.216  66.918  1.00  0.00     0.932 A  
HETATM   11  C   UNL     1      -7.678  15.275  66.208  1.00  0.00     1.095 A  
HETATM   12  C   UNL     1      -8.697  15.040  65.280  1.00  0.00     2.355 A  
HETATM   13  C   UNL     1      -9.157  13.741  65.026  1.00  0.00     1.688 A  
HETATM   14  C   UNL     1      -7.616  12.928  66.728  1.00  0.00     0.387 A  
HETATM   15  C   UNL     1      -8.613  12.677  65.768  1.00  0.00     0.915 A  
BRANCH  13  16
HETATM   16  O   UNL     1     -10.077  13.446  64.057  1.00  0.00    -0.286 OA 
BRANCH  16  17
HETATM   17  C   UNL     1     -11.299  12.814  64.473  1.00  0.00    -0.334 C  
BRANCH  17  18
HETATM   18  C   UNL     1     -11.803  13.494  65.753  1.00  0.00    -0.372 C  
HETATM   19  H   UNL     1     -12.498  12.907  67.494  1.00  0.00     0.000 HD 
HETATM   20  O   UNL     1     -12.186  12.486  66.701  1.00  0.00    -0.552 OA 
BRANCH  18  21
HETATM   21  C   UNL     1     -10.759  14.414  66.415  1.00  0.00    -0.306 C  
BRANCH  21  22
HETATM   22  N   UNL     1     -10.398  14.006  67.778  1.00  0.00    -0.234 NA 
HETATM   23  C   UNL     1     -11.344  13.070  68.423  1.00  0.00    -0.291 C  
HETATM   24  H   UNL     1     -10.261  14.828  68.367  1.00  0.00     0.000 HD 
HETATM   25  C   UNL     1     -10.836  12.840  69.860  1.00  0.00     0.624 C  
HETATM   26  C   UNL     1     -11.372  11.708  67.708  1.00  0.00    -0.356 C  
HETATM   27  C   UNL     1     -12.763  13.656  68.501  1.00  0.00     0.962 C  
ENDBRANCH  21  22
ENDBRANCH  18  21
ENDBRANCH  17  18
ENDBRANCH  16  17
ENDBRANCH  13  16
BRANCH  15  28
HETATM   28  C   UNL     1      -8.936  11.231  65.574  1.00  0.00    -0.129 C  
HETATM   29  O   UNL     1      -9.966  10.921  64.972  1.00  0.00    -0.255 OA 
HETATM   30  C   UNL     1      -7.999  10.153  66.051  1.00  0.00    -0.124 C  
ENDBRANCH  15  28
ENDBRANCH   8  10
ENDBRANCH   6   8
ENDBRANCH   3   6
ENDBRANCH   2   3
TORSDOF 11
ENDMDL
MODEL      300
REMARK 921   NORMALIZED FREE ENERGY PREDICTED BY IDOCK:   21.12 KCAL/MOL
REMARK 922        TOTAL FREE ENERGY PREDICTED BY IDOCK:   33.56 KCAL/MOL
REMARK 923 INTER-LIGAND FREE ENERGY PREDICTED BY IDOCK:   11.78 KCAL/MOL
REMARK 924 INTRA-LIGAND FREE ENERGY PREDICTED BY IDOCK:   21.78 KCAL/MOL
REMARK 927      BINDING AFFINITY PREDICTED BY RF-SCORE:    0.00 PKD
ROOT
HETATM    1  C   UNL     1     -10.222  18.244  65.297  1.00  0.00     0.830 C  
HETATM    2  C   UNL     1      -9.697  17.196  66.269  1.00  0.00    -0.278 C  
ENDROOT
BRANCH   2   3
HETATM    3  N   UNL     1      -8.550  17.661  67.055  1.00  0.00    -0.231 N  
BRANCH   3   4
HETATM    4  C   UNL     1      -7.220  17.159  66.693  1.00  0.00    -0.247 C  
HETATM    5  C   UNL     1      -6.539  17.939  65.584  1.00  0.00    -0.194 C  
ENDBRANCH   3   4
BRANCH   3   6
HETATM    6  C   UNL     1      -8.782  18.702  67.954  1.00  0.00    -0.288 C  
HETATM    7  O   UNL     1      -7.996  19.641  68.079  1.00  0.00    -0.292 OA 
BRANCH   6   8
HETATM    8  N   UNL     1      -9.973  18.611  68.651  1.00  0.00    -0.379 N  
HETATM    9  H   UNL     1     -10.350  19.448  69.096  1.00  0.00     0.000 HD 
BRANCH   8  10
HETATM   10  C   UNL     1     -10.680  17.401  68.763  1.00  0.00    -0.197 A  
HETATM   11  C   UNL     1     -11.976  17.346  69.270  1.00  0.00     2.929 A  
HETATM   12  C   UNL     1     -12.669  16.133  69.305  1.00  0.00     1.174 A  
HETATM   13  C   UNL     1     -12.089  14.956  68.813  1.00  0.00    -0.177 A  
HETATM   14  C   UNL     1     -10.065  16.224  68.339  1.00  0.00    -0.237 A  
HETATM   15  C   UNL     1     -10.768  15.006  68.333  1.00  0.00    -0.245 A  
BRANCH  13  16
HETATM   16  O   UNL     1     -12.760  13.765  68.730  1.00  0.00     0.282 OA 
BRANCH  16  17
HETATM   17  C   UNL     1     -12.225  12.651  69.462  1.00  0.00    -0.090 C  
BRANCH  17  18
HETATM   18  C   UNL     1     -10.953  13.097  70.195  1.00  0.00     0.803 C  
HETATM   19  H   UNL     1     -10.151  14.806  70.737  1.00  0.00     0.000 HD 
HETATM   20  O   UNL     1     -10.939  14.530  70.283  1.00  0.00    -0.117 OA 
BRANCH  18  21
HETATM   21  C   UNL     1     -10.828  12.521  71.619  1.00  0.00     6.816 C  
BRANCH  21  22
HETATM   22  N   UNL     1     -12.105  12.461  72.341  1.00  0.00     1.597 NA 
HETATM   23  C   UNL     1     -12.925  13.689  72.267  1.00  0.00    -0.320 C  
HETATM   24  H   UNL     1     -11.946  12.202  73.315  1.00  0.00     0.000 HD 
HETATM   25  C   UNL     1     -14.164  13.453  73.153  1.00  0.00     1.761 C  
HETATM   26  C   UNL     1     -13.413  13.961  70.834  1.00  0.00    -0.043 C  
HETATM   27  C   UNL     1     -12.170  14.913  72.810  1.00  0.00    -0.397 C  
ENDBRANCH  21  22
ENDBRANCH  18  21
ENDBRANCH  17  18
ENDBRANCH  16  17
ENDBRANCH  13  16
BRANCH  15  28
HETATM   28  C   UNL     1     -10.028  13.866  67.710  1.00  0.00    -0.241 C  
HETATM   29  O   UNL     1     -10.588  13.189  66.845  1.00  0.00    -0.260 OA 
HETATM   30  C   UNL     1      -8.600  13.570  68.081  1.00  0.00    -0.173 C  
ENDBRANCH  15  28
ENDBRANCH   8  10
ENDBRANCH   6   8
ENDBRANCH   3   6
ENDBRANCH   2   3
TORSDOF 11
ENDMDL
