MODEL        1
REMARK 921   NORMALIZED FREE ENERGY PREDICTED BY IDOCK:   -6.21 KCAL/MOL
REMARK 922        TOTAL FREE ENERGY PREDICTED BY IDOCK:   -8.83 KCAL/MOL
REMARK 923 INTER-LIGAND FREE ENERGY PREDICTED BY IDOCK:   -8.03 KCAL/MOL
REMARK 924 INTRA-LIGAND FREE ENERGY PREDICTED BY IDOCK:   -0.80 KCAL/MOL
REMARK 927      BINDING AFFINITY PREDICTED BY RF-SCORE:    0.00 PKD
ROOT
HETATM    1  N   UNL     1     -12.389  14.639  63.942  1.00  0.00    -1.060 N  
HETATM    2  C   UNL     1     -12.646  13.731  64.907  1.00  0.00    -0.341 C  
HETATM    3  H1  UNL     1     -11.988  15.561  64.108  1.00  0.00     0.000 HD 
HETATM    4  H2  UNL     1     -12.613  14.384  62.980  1.00  0.00     0.000 HD 
HETATM    5  O   UNL     1     -13.126  12.629  64.709  1.00  0.00    -0.852 OA 
ENDROOT
BRANCH   2   6
HETATM    6  O   UNL     1     -12.269  14.230  66.098  1.00  0.00    -0.431 OA 
BRANCH   6   7
HETATM    7  C   UNL     1     -11.094  13.674  66.748  1.00  0.00    -0.307 C  
BRANCH   7   8
HETATM    8  C   UNL     1     -11.511  13.225  68.157  1.00  0.00    -0.347 A  
HETATM    9  C   UNL     1     -12.346  12.502  70.774  1.00  0.00    -0.376 A  
HETATM   10  C   UNL     1     -11.929  14.188  69.103  1.00  0.00    -0.388 A  
HETATM   11  C   UNL     1     -11.559  11.876  68.561  1.00  0.00    -0.318 A  
HETATM   12  C   UNL     1     -12.346  13.835  70.388  1.00  0.00    -0.423 A  
HETATM   13  C   UNL     1     -11.952  11.526  69.863  1.00  0.00    -0.426 A  
HETATM   14 CL   UNL     1     -11.214  10.563  67.493  1.00  0.00    -0.363 Cl 
ENDBRANCH   7   8
BRANCH   7  15
HETATM   15  C   UNL     1      -9.917  14.661  66.679  1.00  0.00    -0.274 C  
BRANCH  15  16
HETATM   16  N   UNL     1     -10.326  16.028  66.448  1.00  0.00    -0.296 NA 
HETATM   17  N   UNL     1     -10.438  16.920  67.451  1.00  0.00    -0.317 NA 
HETATM   18  N   UNL     1     -10.599  17.842  65.391  1.00  0.00    -0.614 NA 
HETATM   19  C   UNL     1     -10.617  18.036  66.740  1.00  0.00    -0.270 A  
HETATM   20  N   UNL     1     -10.397  16.544  65.206  1.00  0.00    -0.628 NA 
ENDBRANCH  15  16
ENDBRANCH   7  15
ENDBRANCH   6   7
ENDBRANCH   2   6
TORSDOF 5
ENDMDL
MODEL        2
REMARK 921   NORMALIZED FREE ENERGY PREDICTED BY IDOCK:   -5.83 KCAL/MOL
REMARK 922        TOTAL FREE ENERGY PREDICTED BY IDOCK:   -8.33 KCAL/MOL
REMARK 923 INTER-LIGAND FREE ENERGY PREDICTED BY IDOCK:   -7.15 KCAL/MOL
REMARK 924 INTRA-LIGAND FREE ENERGY PREDICTED BY IDOCK:   -1.18 KCAL/MOL
REMARK 927      BINDING AFFINITY PREDICTED BY RF-SCORE:    0.00 PKD
ROOT
HETATM    1  N   UNL     1      -9.561  14.656  65.458  1.00  0.00    -0.520 N  
HETATM    2  C   UNL     1      -9.151  14.639  66.742  1.00  0.00    -0.264 C  
HETATM    3  H1  UNL     1     -10.399  14.189  65.111  1.00  0.00     0.000 HD 
HETATM    4  H2  UNL     1      -8.993  15.171  64.785  1.00  0.00     0.000 HD 
HETATM    5  O   UNL     1      -8.149  15.196  67.157  1.00  0.00    -0.186 OA 
ENDROOT
BRANCH   2   6
HETATM    6  O   UNL     1     -10.029  13.934  67.480  1.00  0.00    -0.234 OA 
BRANCH   6   7
HETATM    7  C   UNL     1     -11.373  14.460  67.654  1.00  0.00    -0.329 C  
BRANCH   7   8
HETATM    8  C   UNL     1     -11.572  14.737  69.153  1.00  0.00    -0.330 A  
HETATM    9  C   UNL     1     -11.942  15.126  71.942  1.00  0.00    -0.465 A  
HETATM   10  C   UNL     1     -12.123  13.734  69.982  1.00  0.00    -0.416 A  
HETATM   11  C   UNL     1     -11.180  15.936  69.780  1.00  0.00    -0.339 A  
HETATM   12  C   UNL     1     -12.300  13.921  71.355  1.00  0.00    -0.383 A  
HETATM   13  C   UNL     1     -11.385  16.131  71.155  1.00  0.00    -0.368 A  
HETATM   14 CL   UNL     1     -10.369  17.212  68.945  1.00  0.00    -0.335 Cl 
ENDBRANCH   7   8
BRANCH   7  15
HETATM   15  C   UNL     1     -12.408  13.530  67.001  1.00  0.00    -0.211 C  
BRANCH  15  16
HETATM   16  N   UNL     1     -12.239  13.396  65.572  1.00  0.00    -0.427 NA 
HETATM   17  N   UNL     1     -11.904  12.223  64.999  1.00  0.00    -0.372 NA 
HETATM   18  N   UNL     1     -12.510  13.820  63.516  1.00  0.00    -0.813 NA 
HETATM   19  C   UNL     1     -12.079  12.543  63.714  1.00  0.00    -0.529 A  
HETATM   20  N   UNL     1     -12.626  14.364  64.720  1.00  0.00    -0.631 NA 
ENDBRANCH  15  16
ENDBRANCH   7  15
ENDBRANCH   6   7
ENDBRANCH   2   6
TORSDOF 5
ENDMDL
MODEL        3
REMARK 921   NORMALIZED FREE ENERGY PREDICTED BY IDOCK:   -5.82 KCAL/MOL
REMARK 922        TOTAL FREE ENERGY PREDICTED BY IDOCK:   -8.33 KCAL/MOL
REMARK 923 INTER-LIGAND FREE ENERGY PREDICTED BY IDOCK:   -7.31 KCAL/MOL
REMARK 924 INTRA-LIGAND FREE ENERGY PREDICTED BY IDOCK:   -1.01 KCAL/MOL
REMARK 927      BINDING AFFINITY PREDICTED BY RF-SCORE:    0.00 PKD
ROOT
HETATM    1  N   UNL     1     -12.419  15.175  63.733  1.00  0.00    -1.007 N  
HETATM    2  C   UNL     1     -11.480  15.926  64.343  1.00  0.00    -0.264 C  
HETATM    3  H1  UNL     1     -12.459  14.157  63.770  1.00  0.00     0.000 HD 
HETATM    4  H2  UNL     1     -13.139  15.659  63.196  1.00  0.00     0.000 HD 
HETATM    5  O   UNL     1     -11.431  17.144  64.298  1.00  0.00    -1.062 OA 
ENDROOT
BRANCH   2   6
HETATM    6  O   UNL     1     -10.635  15.123  65.015  1.00  0.00    -0.393 OA 
BRANCH   6   7
HETATM    7  C   UNL     1     -10.980  14.723  66.369  1.00  0.00    -0.331 C  
BRANCH   7   8
HETATM    8  C   UNL     1      -9.806  15.111  67.281  1.00  0.00    -0.228 A  
HETATM    9  C   UNL     1      -7.569  15.735  68.917  1.00  0.00    -0.181 A  
HETATM   10  C   UNL     1      -8.789  14.168  67.551  1.00  0.00    -0.202 A  
HETATM   11  C   UNL     1      -9.644  16.396  67.836  1.00  0.00    -0.228 A  
HETATM   12  C   UNL     1      -7.685  14.475  68.349  1.00  0.00    -0.128 A  
HETATM   13  C   UNL     1      -8.548  16.692  68.662  1.00  0.00    -0.253 A  
HETATM   14 CL   UNL     1     -10.719  17.706  67.501  1.00  0.00    -0.335 Cl 
ENDBRANCH   7   8
BRANCH   7  15
HETATM   15  C   UNL     1     -11.400  13.245  66.408  1.00  0.00    -0.312 C  
BRANCH  15  16
HETATM   16  N   UNL     1     -11.758  12.714  65.112  1.00  0.00    -0.348 NA 
HETATM   17  N   UNL     1     -10.843  12.167  64.286  1.00  0.00    -0.314 NA 
HETATM   18  N   UNL     1     -12.981  11.854  63.613  1.00  0.00    -0.673 NA 
HETATM   19  C   UNL     1     -11.657  11.651  63.361  1.00  0.00    -0.237 A  
HETATM   20  N   UNL     1     -13.042  12.530  64.753  1.00  0.00    -0.814 NA 
ENDBRANCH  15  16
ENDBRANCH   7  15
ENDBRANCH   6   7
ENDBRANCH   2   6
TORSDOF 5
ENDMDL
MODEL        4
REMARK 921   NORMALIZED FREE ENERGY PREDICTED BY IDOCK:   -5.81 KCAL/MOL
REMARK 922        TOTAL FREE ENERGY PREDICTED BY IDOCK:   -8.32 KCAL/MOL
REMARK 923 INTER-LIGAND FREE ENERGY PREDICTED BY IDOCK:   -7.29 KCAL/MOL
REMARK 924 INTRA-LIGAND FREE ENERGY PREDICTED BY IDOCK:   -1.03 KCAL/MOL
REMARK 927      BINDING AFFINITY PREDICTED BY RF-SCORE:    0.00 PKD
ROOT
HETATM    1  N   UNL     1     -11.582  14.093  65.528  1.00  0.00    -0.329 N  
HETATM    2  C   UNL     1     -11.966  13.392  66.615  1.00  0.00    -0.399 C  
HETATM    3  H1  UNL     1     -11.447  15.103  65.509  1.00  0.00     0.000 HD 
HETATM    4  H2  UNL     1     -11.417  13.576  64.664  1.00  0.00     0.000 HD 
HETATM    5  O   UNL     1     -12.128  12.185  66.638  1.00  0.00    -0.622 OA 
ENDROOT
BRANCH   2   6
HETATM    6  O   UNL     1     -12.114  14.233  67.655  1.00  0.00    -0.376 OA 
BRANCH   6   7
HETATM    7  C   UNL     1     -11.260  14.059  68.819  1.00  0.00    -0.271 C  
BRANCH   7   8
HETATM    8  C   UNL     1     -12.163  14.071  70.063  1.00  0.00    -0.414 A  
HETATM    9  C   UNL     1     -13.878  14.202  72.323  1.00  0.00    -0.643 A  
HETATM   10  C   UNL     1     -12.714  15.291  70.515  1.00  0.00    -0.440 A  
HETATM   11  C   UNL     1     -12.531  12.908  70.767  1.00  0.00    -0.286 A  
HETATM   12  C   UNL     1     -13.563  15.357  71.623  1.00  0.00    -0.603 A  
HETATM   13  C   UNL     1     -13.362  12.981  71.896  1.00  0.00    -0.539 A  
HETATM   14 CL   UNL     1     -12.059  11.322  70.272  1.00  0.00    -0.431 Cl 
ENDBRANCH   7   8
BRANCH   7  15
HETATM   15  C   UNL     1     -10.116  15.087  68.810  1.00  0.00    -0.231 C  
BRANCH  15  16
HETATM   16  N   UNL     1     -10.112  15.932  67.638  1.00  0.00    -0.239 NA 
HETATM   17  N   UNL     1     -10.690  17.149  67.632  1.00  0.00    -0.336 NA 
HETATM   18  N   UNL     1      -9.438  16.727  65.795  1.00  0.00    -0.527 NA 
HETATM   19  C   UNL     1     -10.247  17.602  66.455  1.00  0.00    -0.355 A  
HETATM   20  N   UNL     1      -9.341  15.654  66.569  1.00  0.00    -0.252 NA 
ENDBRANCH  15  16
ENDBRANCH   7  15
ENDBRANCH   6   7
ENDBRANCH   2   6
TORSDOF 5
ENDMDL
MODEL        5
REMARK 921   NORMALIZED FREE ENERGY PREDICTED BY IDOCK:   -5.81 KCAL/MOL
REMARK 922        TOTAL FREE ENERGY PREDICTED BY IDOCK:   -8.31 KCAL/MOL
REMARK 923 INTER-LIGAND FREE ENERGY PREDICTED BY IDOCK:   -7.08 KCAL/MOL
REMARK 924 INTRA-LIGAND FREE ENERGY PREDICTED BY IDOCK:   -1.24 KCAL/MOL
REMARK 927      BINDING AFFINITY PREDICTED BY RF-SCORE:    0.00 PKD
ROOT
HETATM    1  N   UNL     1     -10.941  10.733  66.398  1.00  0.00    -0.109 N  
HETATM    2  C   UNL     1     -11.168  11.023  67.695  1.00  0.00    -0.305 C  
HETATM    3  H1  UNL     1     -11.405  11.189  65.613  1.00  0.00     0.000 HD 
HETATM    4  H2  UNL     1     -10.257  10.006  66.187  1.00  0.00     0.000 HD 
HETATM    5  O   UNL     1     -10.613  10.478  68.634  1.00  0.00    -0.177 OA 
ENDROOT
BRANCH   2   6
HETATM    6  O   UNL     1     -12.076  12.012  67.777  1.00  0.00    -0.537 OA 
BRANCH   6   7
HETATM    7  C   UNL     1     -11.662  13.368  67.455  1.00  0.00    -0.366 C  
BRANCH   7   8
HETATM    8  C   UNL     1     -11.704  14.187  68.755  1.00  0.00    -0.380 A  
HETATM    9  C   UNL     1     -11.796  15.593  71.221  1.00  0.00    -0.473 A  
HETATM   10  C   UNL     1     -12.283  13.626  69.916  1.00  0.00    -0.367 A  
HETATM   11  C   UNL     1     -11.139  15.471  68.883  1.00  0.00    -0.282 A  
HETATM   12  C   UNL     1     -12.324  14.314  71.131  1.00  0.00    -0.440 A  
HETATM   13  C   UNL     1     -11.207  16.170  70.099  1.00  0.00    -0.374 A  
HETATM   14 CL   UNL     1     -10.275  16.249  67.606  1.00  0.00    -0.266 Cl 
ENDBRANCH   7   8
BRANCH   7  15
HETATM   15  C   UNL     1     -12.489  13.925  66.284  1.00  0.00    -0.409 C  
BRANCH  15  16
HETATM   16  N   UNL     1     -12.204  13.281  65.022  1.00  0.00    -0.406 NA 
HETATM   17  N   UNL     1     -10.994  13.363  64.434  1.00  0.00    -0.388 NA 
HETATM   18  N   UNL     1     -12.380  11.865  63.458  1.00  0.00    -0.541 NA 
HETATM   19  C   UNL     1     -11.158  12.468  63.457  1.00  0.00    -0.439 A  
HETATM   20  N   UNL     1     -13.048  12.383  64.480  1.00  0.00    -0.815 NA 
ENDBRANCH  15  16
ENDBRANCH   7  15
ENDBRANCH   6   7
ENDBRANCH   2   6
TORSDOF 5
ENDMDL
MODEL        6
REMARK 921   NORMALIZED FREE ENERGY PREDICTED BY IDOCK:   -5.79 KCAL/MOL
REMARK 922        TOTAL FREE ENERGY PREDICTED BY IDOCK:   -8.29 KCAL/MOL
REMARK 923 INTER-LIGAND FREE ENERGY PREDICTED BY IDOCK:   -7.34 KCAL/MOL
REMARK 924 INTRA-LIGAND FREE ENERGY PREDICTED BY IDOCK:   -0.95 KCAL/MOL
REMARK 927      BINDING AFFINITY PREDICTED BY RF-SCORE:    0.00 PKD
ROOT
HETATM    1  N   UNL     1     -12.308  14.173  63.805  1.00  0.00    -1.027 N  
HETATM    2  C   UNL     1     -12.661  12.906  64.103  1.00  0.00    -0.262 C  
HETATM    3  H1  UNL     1     -12.017  14.870  64.491  1.00  0.00     0.000 HD 
HETATM    4  H2  UNL     1     -12.335  14.456  62.826  1.00  0.00     0.000 HD 
HETATM    5  O   UNL     1     -13.009  12.074  63.283  1.00  0.00    -0.736 OA 
ENDROOT
BRANCH   2   6
HETATM    6  O   UNL     1     -12.544  12.712  65.429  1.00  0.00    -0.641 OA 
BRANCH   6   7
HETATM    7  C   UNL     1     -11.226  12.803  66.034  1.00  0.00    -0.299 C  
BRANCH   7   8
HETATM    8  C   UNL     1     -10.802  11.383  66.440  1.00  0.00    -0.323 A  
HETATM    9  C   UNL     1     -10.105   8.761  67.281  1.00  0.00    -0.301 A  
HETATM   10  C   UNL     1     -11.103  10.907  67.737  1.00  0.00    -0.371 A  
HETATM   11  C   UNL     1     -10.166  10.481  65.565  1.00  0.00    -0.256 A  
HETATM   12  C   UNL     1     -10.766   9.616  68.150  1.00  0.00    -0.266 A  
HETATM   13  C   UNL     1      -9.805   9.193  65.992  1.00  0.00    -0.342 A  
HETATM   14 CL   UNL     1      -9.848  10.849  63.907  1.00  0.00    -0.349 Cl 
ENDBRANCH   7   8
BRANCH   7  15
HETATM   15  C   UNL     1     -11.216  13.853  67.158  1.00  0.00    -0.313 C  
BRANCH  15  16
HETATM   16  N   UNL     1     -10.831  15.172  66.709  1.00  0.00    -0.319 NA 
HETATM   17  N   UNL     1     -10.777  16.225  67.547  1.00  0.00    -0.316 NA 
HETATM   18  N   UNL     1      -9.883  16.637  65.510  1.00  0.00    -0.550 NA 
HETATM   19  C   UNL     1     -10.186  17.118  66.748  1.00  0.00    -0.311 A  
HETATM   20  N   UNL     1     -10.288  15.374  65.493  1.00  0.00    -0.356 NA 
ENDBRANCH  15  16
ENDBRANCH   7  15
ENDBRANCH   6   7
ENDBRANCH   2   6
TORSDOF 5
ENDMDL
MODEL        7
REMARK 921   NORMALIZED FREE ENERGY PREDICTED BY IDOCK:   -5.79 KCAL/MOL
REMARK 922        TOTAL FREE ENERGY PREDICTED BY IDOCK:   -8.29 KCAL/MOL
REMARK 923 INTER-LIGAND FREE ENERGY PREDICTED BY IDOCK:   -7.37 KCAL/MOL
REMARK 924 INTRA-LIGAND FREE ENERGY PREDICTED BY IDOCK:   -0.92 KCAL/MOL
REMARK 927      BINDING AFFINITY PREDICTED BY RF-SCORE:    0.00 PKD
ROOT
HETATM    1  N   UNL     1     -11.807  15.635  64.012  1.00  0.00    -0.955 N  
HETATM    2  C   UNL     1     -12.247  14.385  64.260  1.00  0.00    -0.423 C  
HETATM    3  H1  UNL     1     -11.668  16.352  64.724  1.00  0.00     0.000 HD 
HETATM    4  H2  UNL     1     -11.599  15.881  63.044  1.00  0.00     0.000 HD 
HETATM    5  O   UNL     1     -12.413  13.528  63.410  1.00  0.00    -0.750 OA 
ENDROOT
BRANCH   2   6
HETATM    6  O   UNL     1     -12.447  14.238  65.583  1.00  0.00    -0.445 OA 
BRANCH   6   7
HETATM    7  C   UNL     1     -11.292  14.234  66.467  1.00  0.00    -0.346 C  
BRANCH   7   8
HETATM    8  C   UNL     1     -11.347  12.941  67.296  1.00  0.00    -0.356 A  
HETATM    9  C   UNL     1     -11.534  10.606  68.902  1.00  0.00    -0.334 A  
HETATM   10  C   UNL     1     -11.839  12.980  68.620  1.00  0.00    -0.353 A  
HETATM   11  C   UNL     1     -10.982  11.678  66.791  1.00  0.00    -0.290 A  
HETATM   12  C   UNL     1     -11.937  11.832  69.410  1.00  0.00    -0.361 A  
HETATM   13  C   UNL     1     -11.056  10.530  67.596  1.00  0.00    -0.375 A  
HETATM   14 CL   UNL     1     -10.490  11.427  65.154  1.00  0.00    -0.337 Cl 
ENDBRANCH   7   8
BRANCH   7  15
HETATM   15  C   UNL     1     -11.219  15.543  67.269  1.00  0.00    -0.226 C  
BRANCH  15  16
HETATM   16  N   UNL     1     -10.302  16.510  66.710  1.00  0.00    -0.297 NA 
HETATM   17  N   UNL     1     -10.249  17.783  67.149  1.00  0.00    -0.339 NA 
HETATM   18  N   UNL     1      -8.564  17.234  65.743  1.00  0.00    -0.497 NA 
HETATM   19  C   UNL     1      -9.151  18.196  66.508  1.00  0.00    -0.276 A  
HETATM   20  N   UNL     1      -9.302  16.142  65.886  1.00  0.00    -0.405 NA 
ENDBRANCH  15  16
ENDBRANCH   7  15
ENDBRANCH   6   7
ENDBRANCH   2   6
TORSDOF 5
ENDMDL
MODEL        8
REMARK 921   NORMALIZED FREE ENERGY PREDICTED BY IDOCK:   -5.76 KCAL/MOL
REMARK 922        TOTAL FREE ENERGY PREDICTED BY IDOCK:   -8.24 KCAL/MOL
REMARK 923 INTER-LIGAND FREE ENERGY PREDICTED BY IDOCK:   -6.86 KCAL/MOL
REMARK 924 INTRA-LIGAND FREE ENERGY PREDICTED BY IDOCK:   -1.39 KCAL/MOL
REMARK 927      BINDING AFFINITY PREDICTED BY RF-SCORE:    0.00 PKD
ROOT
HETATM    1  N   UNL     1     -11.828  13.805  67.870  1.00  0.00    -0.365 N  
HETATM    2  C   UNL     1     -11.363  14.989  68.317  1.00  0.00    -0.318 C  
HETATM    3  H1  UNL     1     -12.255  13.658  66.956  1.00  0.00     0.000 HD 
HETATM    4  H2  UNL     1     -11.748  13.000  68.491  1.00  0.00     0.000 HD 
HETATM    5  O   UNL     1     -10.852  15.165  69.410  1.00  0.00    -0.239 OA 
ENDROOT
BRANCH   2   6
HETATM    6  O   UNL     1     -11.533  15.922  67.362  1.00  0.00    -0.134 OA 
BRANCH   6   7
HETATM    7  C   UNL     1     -10.502  16.079  66.349  1.00  0.00    -0.309 C  
BRANCH   7   8
HETATM    8  C   UNL     1      -9.874  17.469  66.538  1.00  0.00    -0.315 A  
HETATM    9  C   UNL     1      -8.824  20.089  66.855  1.00  0.00    -0.433 A  
HETATM   10  C   UNL     1     -10.470  18.595  65.925  1.00  0.00    -0.395 A  
HETATM   11  C   UNL     1      -8.747  17.710  67.347  1.00  0.00    -0.234 A  
HETATM   12  C   UNL     1      -9.959  19.885  66.085  1.00  0.00    -0.593 A  
HETATM   13  C   UNL     1      -8.219  19.004  67.483  1.00  0.00    -0.301 A  
HETATM   14 CL   UNL     1      -7.976  16.473  68.275  1.00  0.00    -0.171 Cl 
ENDBRANCH   7   8
BRANCH   7  15
HETATM   15  C   UNL     1     -11.067  15.782  64.950  1.00  0.00    -0.399 C  
BRANCH  15  16
HETATM   16  N   UNL     1     -11.561  14.432  64.804  1.00  0.00    -0.388 NA 
HETATM   17  N   UNL     1     -10.735  13.369  64.756  1.00  0.00    -0.366 NA 
HETATM   18  N   UNL     1     -12.920  12.815  64.944  1.00  0.00    -0.853 NA 
HETATM   19  C   UNL     1     -11.632  12.383  64.836  1.00  0.00    -0.343 A  
HETATM   20  N   UNL     1     -12.869  14.140  64.937  1.00  0.00    -0.702 NA 
ENDBRANCH  15  16
ENDBRANCH   7  15
ENDBRANCH   6   7
ENDBRANCH   2   6
TORSDOF 5
ENDMDL
MODEL        9
REMARK 921   NORMALIZED FREE ENERGY PREDICTED BY IDOCK:   -5.62 KCAL/MOL
REMARK 922        TOTAL FREE ENERGY PREDICTED BY IDOCK:   -8.07 KCAL/MOL
REMARK 923 INTER-LIGAND FREE ENERGY PREDICTED BY IDOCK:   -7.42 KCAL/MOL
REMARK 924 INTRA-LIGAND FREE ENERGY PREDICTED BY IDOCK:   -0.65 KCAL/MOL
REMARK 927      BINDING AFFINITY PREDICTED BY RF-SCORE:    0.00 PKD
ROOT
HETATM    1  N   UNL     1     -12.564  11.380  62.966  1.00  0.00    -0.851 N  
HETATM    2  C   UNL     1     -12.604  12.564  63.611  1.00  0.00    -0.392 C  
HETATM    3  H1  UNL     1     -12.599  10.470  63.424  1.00  0.00     0.000 HD 
HETATM    4  H2  UNL     1     -12.494  11.396  61.949  1.00  0.00     0.000 HD 
HETATM    5  O   UNL     1     -12.562  13.652  63.064  1.00  0.00    -0.729 OA 
ENDROOT
BRANCH   2   6
HETATM    6  O   UNL     1     -12.718  12.345  64.934  1.00  0.00    -0.620 OA 
BRANCH   6   7
HETATM    7  C   UNL     1     -11.710  12.902  65.822  1.00  0.00    -0.390 C  
BRANCH   7   8
HETATM    8  C   UNL     1     -11.277  11.788  66.788  1.00  0.00    -0.388 A  
HETATM    9  C   UNL     1     -10.579   9.754  68.644  1.00  0.00    -0.249 A  
HETATM   10  C   UNL     1     -11.785  11.771  68.107  1.00  0.00    -0.377 A  
HETATM   11  C   UNL     1     -10.429  10.725  66.420  1.00  0.00    -0.233 A  
HETATM   12  C   UNL     1     -11.448  10.768  69.019  1.00  0.00    -0.368 A  
HETATM   13  C   UNL     1     -10.070   9.734  67.348  1.00  0.00    -0.259 A  
HETATM   14 CL   UNL     1      -9.828  10.517  64.814  1.00  0.00    -0.359 Cl 
ENDBRANCH   7   8
BRANCH   7  15
HETATM   15  C   UNL     1     -12.219  14.197  66.476  1.00  0.00    -0.433 C  
BRANCH  15  16
HETATM   16  N   UNL     1     -11.274  15.288  66.402  1.00  0.00    -0.279 NA 
HETATM   17  N   UNL     1     -10.658  15.776  67.496  1.00  0.00    -0.303 NA 
HETATM   18  N   UNL     1      -9.820  16.570  65.551  1.00  0.00    -0.542 NA 
HETATM   19  C   UNL     1      -9.765  16.579  66.912  1.00  0.00    -0.251 A  
HETATM   20  N   UNL     1     -10.788  15.724  65.224  1.00  0.00    -0.396 NA 
ENDBRANCH  15  16
ENDBRANCH   7  15
ENDBRANCH   6   7
ENDBRANCH   2   6
TORSDOF 5
ENDMDL
MODEL       10
REMARK 921   NORMALIZED FREE ENERGY PREDICTED BY IDOCK:   -5.60 KCAL/MOL
REMARK 922        TOTAL FREE ENERGY PREDICTED BY IDOCK:   -8.04 KCAL/MOL
REMARK 923 INTER-LIGAND FREE ENERGY PREDICTED BY IDOCK:   -7.15 KCAL/MOL
REMARK 924 INTRA-LIGAND FREE ENERGY PREDICTED BY IDOCK:   -0.89 KCAL/MOL
REMARK 927      BINDING AFFINITY PREDICTED BY RF-SCORE:    0.00 PKD
ROOT
HETATM    1  N   UNL     1     -11.662  15.921  64.131  1.00  0.00    -0.876 N  
HETATM    2  C   UNL     1     -12.040  14.644  64.344  1.00  0.00    -0.462 C  
HETATM    3  H1  UNL     1     -11.182  16.504  64.817  1.00  0.00     0.000 HD 
HETATM    4  H2  UNL     1     -11.871  16.333  63.222  1.00  0.00     0.000 HD 
HETATM    5  O   UNL     1     -12.615  13.947  63.525  1.00  0.00    -0.842 OA 
ENDROOT
BRANCH   2   6
HETATM    6  O   UNL     1     -11.665  14.269  65.580  1.00  0.00    -0.343 OA 
BRANCH   6   7
HETATM    7  C   UNL     1     -10.310  13.782  65.780  1.00  0.00    -0.307 C  
BRANCH   7   8
HETATM    8  C   UNL     1     -10.399  12.282  66.103  1.00  0.00    -0.269 A  
HETATM    9  C   UNL     1     -10.463   9.491  66.628  1.00  0.00    -0.241 A  
HETATM   10  C   UNL     1      -9.778  11.344  65.248  1.00  0.00    -0.276 A  
HETATM   11  C   UNL     1     -11.028  11.771  67.255  1.00  0.00    -0.267 A  
HETATM   12  C   UNL     1      -9.802   9.972  65.507  1.00  0.00    -0.373 A  
HETATM   13  C   UNL     1     -11.075  10.389  67.499  1.00  0.00    -0.336 A  
HETATM   14 CL   UNL     1     -11.718  12.781  68.474  1.00  0.00    -0.351 Cl 
ENDBRANCH   7   8
BRANCH   7  15
HETATM   15  C   UNL     1      -9.568  14.648  66.811  1.00  0.00    -0.253 C  
BRANCH  15  16
HETATM   16  N   UNL     1      -9.845  16.060  66.681  1.00  0.00    -0.248 NA 
HETATM   17  N   UNL     1     -10.641  16.715  67.548  1.00  0.00    -0.323 NA 
HETATM   18  N   UNL     1      -9.528  18.078  66.126  1.00  0.00    -0.499 NA 
HETATM   19  C   UNL     1     -10.416  17.972  67.154  1.00  0.00    -0.367 A  
HETATM   20  N   UNL     1      -9.150  16.841  65.832  1.00  0.00    -0.520 NA 
ENDBRANCH  15  16
ENDBRANCH   7  15
ENDBRANCH   6   7
ENDBRANCH   2   6
TORSDOF 5
ENDMDL
MODEL       11
REMARK 921   NORMALIZED FREE ENERGY PREDICTED BY IDOCK:   -5.60 KCAL/MOL
REMARK 922        TOTAL FREE ENERGY PREDICTED BY IDOCK:   -8.04 KCAL/MOL
REMARK 923 INTER-LIGAND FREE ENERGY PREDICTED BY IDOCK:   -7.15 KCAL/MOL
REMARK 924 INTRA-LIGAND FREE ENERGY PREDICTED BY IDOCK:   -0.89 KCAL/MOL
REMARK 927      BINDING AFFINITY PREDICTED BY RF-SCORE:    0.00 PKD
ROOT
HETATM    1  N   UNL     1     -11.241  16.461  68.271  1.00  0.00    -0.343 N  
HETATM    2  C   UNL     1     -10.150  15.909  68.841  1.00  0.00    -0.225 C  
HETATM    3  H1  UNL     1     -12.075  15.942  67.994  1.00  0.00     0.000 HD 
HETATM    4  H2  UNL     1     -11.232  17.467  68.103  1.00  0.00     0.000 HD 
HETATM    5  O   UNL     1      -9.154  16.529  69.171  1.00  0.00    -0.254 OA 
ENDROOT
BRANCH   2   6
HETATM    6  O   UNL     1     -10.352  14.589  69.001  1.00  0.00    -0.237 OA 
BRANCH   6   7
HETATM    7  C   UNL     1     -11.624  14.021  68.583  1.00  0.00    -0.325 C  
BRANCH   7   8
HETATM    8  C   UNL     1     -12.178  13.206  69.762  1.00  0.00    -0.266 A  
HETATM    9  C   UNL     1     -13.124  11.607  71.910  1.00  0.00    -0.490 A  
HETATM   10  C   UNL     1     -12.011  11.803  69.781  1.00  0.00    -0.392 A  
HETATM   11  C   UNL     1     -12.810  13.786  70.879  1.00  0.00    -0.271 A  
HETATM   12  C   UNL     1     -12.470  11.015  70.840  1.00  0.00    -0.509 A  
HETATM   13  C   UNL     1     -13.295  12.989  71.928  1.00  0.00    -0.539 A  
HETATM   14 CL   UNL     1     -12.976  15.493  71.083  1.00  0.00    -0.533 Cl 
ENDBRANCH   7   8
BRANCH   7  15
HETATM   15  C   UNL     1     -11.468  13.261  67.256  1.00  0.00    -0.338 C  
BRANCH  15  16
HETATM   16  N   UNL     1     -11.782  14.062  66.094  1.00  0.00    -0.367 NA 
HETATM   17  N   UNL     1     -10.925  14.979  65.605  1.00  0.00    -0.342 NA 
HETATM   18  N   UNL     1     -12.696  14.578  64.256  1.00  0.00    -0.670 NA 
HETATM   19  C   UNL     1     -11.545  15.278  64.460  1.00  0.00    -0.312 A  
HETATM   20  N   UNL     1     -12.839  13.783  65.308  1.00  0.00    -0.737 NA 
ENDBRANCH  15  16
ENDBRANCH   7  15
ENDBRANCH   6   7
ENDBRANCH   2   6
TORSDOF 5
ENDMDL
MODEL       12
REMARK 921   NORMALIZED FREE ENERGY PREDICTED BY IDOCK:   -5.60 KCAL/MOL
REMARK 922        TOTAL FREE ENERGY PREDICTED BY IDOCK:   -8.03 KCAL/MOL
REMARK 923 INTER-LIGAND FREE ENERGY PREDICTED BY IDOCK:   -7.32 KCAL/MOL
REMARK 924 INTRA-LIGAND FREE ENERGY PREDICTED BY IDOCK:   -0.72 KCAL/MOL
REMARK 927      BINDING AFFINITY PREDICTED BY RF-SCORE:    0.00 PKD
ROOT
HETATM    1  N   UNL     1     -13.969   8.901  73.039  1.00  0.00    -0.882 N  
HETATM    2  C   UNL     1     -14.013   8.648  71.715  1.00  0.00    -0.434 C  
HETATM    3  H1  UNL     1     -13.667   9.784  73.450  1.00  0.00     0.000 HD 
HETATM    4  H2  UNL     1     -14.257   8.157  73.674  1.00  0.00     0.000 HD 
HETATM    5  O   UNL     1     -14.373   7.592  71.224  1.00  0.00    -0.413 OA 
ENDROOT
BRANCH   2   6
HETATM    6  O   UNL     1     -13.621   9.743  71.040  1.00  0.00    -0.320 OA 
BRANCH   6   7
HETATM    7  C   UNL     1     -12.265  10.233  71.231  1.00  0.00    -0.395 C  
BRANCH   7   8
HETATM    8  C   UNL     1     -12.137  11.558  70.463  1.00  0.00    -0.472 A  
HETATM    9  C   UNL     1     -11.893  13.940  68.936  1.00  0.00    -0.393 A  
HETATM   10  C   UNL     1     -11.577  11.562  69.165  1.00  0.00    -0.382 A  
HETATM   11  C   UNL     1     -12.604  12.792  70.957  1.00  0.00    -0.271 A  
HETATM   12  C   UNL     1     -11.462  12.731  68.410  1.00  0.00    -0.349 A  
HETATM   13  C   UNL     1     -12.461  13.969  70.207  1.00  0.00    -0.403 A  
HETATM   14 CL   UNL     1     -13.435  12.946  72.463  1.00  0.00    -0.584 Cl 
ENDBRANCH   7   8
BRANCH   7  15
HETATM   15  C   UNL     1     -11.240   9.146  70.870  1.00  0.00    -0.295 C  
BRANCH  15  16
HETATM   16  N   UNL     1     -10.416   8.739  71.986  1.00  0.00    -0.346 NA 
HETATM   17  N   UNL     1     -10.836   7.835  72.893  1.00  0.00    -0.370 NA 
HETATM   18  N   UNL     1      -8.645   8.364  73.083  1.00  0.00    -0.353 NA 
HETATM   19  C   UNL     1      -9.696   7.641  73.561  1.00  0.00    -0.299 A  
HETATM   20  N   UNL     1      -9.111   9.062  72.056  1.00  0.00    -0.355 NA 
ENDBRANCH  15  16
ENDBRANCH   7  15
ENDBRANCH   6   7
ENDBRANCH   2   6
TORSDOF 5
ENDMDL
MODEL       13
REMARK 921   NORMALIZED FREE ENERGY PREDICTED BY IDOCK:   -5.58 KCAL/MOL
REMARK 922        TOTAL FREE ENERGY PREDICTED BY IDOCK:   -8.01 KCAL/MOL
REMARK 923 INTER-LIGAND FREE ENERGY PREDICTED BY IDOCK:   -6.90 KCAL/MOL
REMARK 924 INTRA-LIGAND FREE ENERGY PREDICTED BY IDOCK:   -1.11 KCAL/MOL
REMARK 927      BINDING AFFINITY PREDICTED BY RF-SCORE:    0.00 PKD
ROOT
HETATM    1  N   UNL     1     -10.952  14.848  64.493  1.00  0.00    -0.638 N  
HETATM    2  C   UNL     1     -10.708  16.087  64.967  1.00  0.00    -0.378 C  
HETATM    3  H1  UNL     1     -10.514  13.997  64.845  1.00  0.00     0.000 HD 
HETATM    4  H2  UNL     1     -11.620  14.755  63.728  1.00  0.00     0.000 HD 
HETATM    5  O   UNL     1     -11.232  17.104  64.545  1.00  0.00    -1.104 OA 
ENDROOT
BRANCH   2   6
HETATM    6  O   UNL     1      -9.825  16.011  65.978  1.00  0.00    -0.292 OA 
BRANCH   6   7
HETATM    7  C   UNL     1     -10.269  16.351  67.320  1.00  0.00    -0.278 C  
BRANCH   7   8
HETATM    8  C   UNL     1      -9.344  17.459  67.848  1.00  0.00    -0.267 A  
HETATM    9  C   UNL     1      -7.537  19.429  68.807  1.00  0.00    -0.398 A  
HETATM   10  C   UNL     1      -8.066  17.123  68.350  1.00  0.00    -0.255 A  
HETATM   11  C   UNL     1      -9.672  18.829  67.812  1.00  0.00    -0.318 A  
HETATM   12  C   UNL     1      -7.174  18.091  68.817  1.00  0.00    -0.283 A  
HETATM   13  C   UNL     1      -8.783  19.796  68.308  1.00  0.00    -0.323 A  
HETATM   14 CL   UNL     1     -11.132  19.426  67.109  1.00  0.00    -0.449 Cl 
ENDBRANCH   7   8
BRANCH   7  15
HETATM   15  C   UNL     1     -10.372  15.090  68.194  1.00  0.00    -0.239 C  
BRANCH  15  16
HETATM   16  N   UNL     1     -10.687  13.895  67.444  1.00  0.00    -0.270 NA 
HETATM   17  N   UNL     1      -9.808  12.882  67.312  1.00  0.00    -0.215 NA 
HETATM   18  N   UNL     1     -11.887  12.387  66.571  1.00  0.00    -0.563 NA 
HETATM   19  C   UNL     1     -10.604  11.967  66.752  1.00  0.00    -0.229 A  
HETATM   20  N   UNL     1     -11.941  13.629  67.032  1.00  0.00    -0.404 NA 
ENDBRANCH  15  16
ENDBRANCH   7  15
ENDBRANCH   6   7
ENDBRANCH   2   6
TORSDOF 5
ENDMDL
MODEL       14
REMARK 921   NORMALIZED FREE ENERGY PREDICTED BY IDOCK:   -5.54 KCAL/MOL
REMARK 922        TOTAL FREE ENERGY PREDICTED BY IDOCK:   -7.97 KCAL/MOL
REMARK 923 INTER-LIGAND FREE ENERGY PREDICTED BY IDOCK:   -7.32 KCAL/MOL
REMARK 924 INTRA-LIGAND FREE ENERGY PREDICTED BY IDOCK:   -0.65 KCAL/MOL
REMARK 927      BINDING AFFINITY PREDICTED BY RF-SCORE:    0.00 PKD
ROOT
HETATM    1  N   UNL     1     -12.339  13.930  63.137  1.00  0.00    -1.106 N  
HETATM    2  C   UNL     1     -12.211  13.463  64.395  1.00  0.00    -0.389 C  
HETATM    3  H1  UNL     1     -11.747  14.649  62.723  1.00  0.00     0.000 HD 
HETATM    4  H2  UNL     1     -13.081  13.536  62.558  1.00  0.00     0.000 HD 
HETATM    5  O   UNL     1     -12.919  12.603  64.890  1.00  0.00    -0.830 OA 
ENDROOT
BRANCH   2   6
HETATM    6  O   UNL     1     -11.174  14.078  64.994  1.00  0.00    -0.324 OA 
BRANCH   6   7
HETATM    7  C   UNL     1     -11.066  14.012  66.442  1.00  0.00    -0.316 C  
BRANCH   7   8
HETATM    8  C   UNL     1     -10.744  15.427  66.948  1.00  0.00    -0.314 A  
HETATM    9  C   UNL     1     -10.147  18.081  67.765  1.00  0.00    -0.359 A  
HETATM   10  C   UNL     1     -10.148  16.364  66.074  1.00  0.00    -0.373 A  
HETATM   11  C   UNL     1     -11.063  15.880  68.243  1.00  0.00    -0.345 A  
HETATM   12  C   UNL     1      -9.860  17.671  66.471  1.00  0.00    -0.323 A  
HETATM   13  C   UNL     1     -10.746  17.187  68.648  1.00  0.00    -0.306 A  
HETATM   14 CL   UNL     1     -11.913  14.913  69.394  1.00  0.00    -0.340 Cl 
ENDBRANCH   7   8
BRANCH   7  15
HETATM   15  C   UNL     1     -10.081  12.908  66.863  1.00  0.00    -0.241 C  
BRANCH  15  16
HETATM   16  N   UNL     1     -10.657  11.938  67.766  1.00  0.00    -0.198 NA 
HETATM   17  N   UNL     1      -9.911  11.268  68.666  1.00  0.00    -0.203 NA 
HETATM   18  N   UNL     1     -12.139  10.994  68.947  1.00  0.00    -0.511 NA 
HETATM   19  C   UNL     1     -10.882  10.686  69.375  1.00  0.00    -0.246 A  
HETATM   20  N   UNL     1     -11.989  11.814  67.915  1.00  0.00    -0.597 NA 
ENDBRANCH  15  16
ENDBRANCH   7  15
ENDBRANCH   6   7
ENDBRANCH   2   6
TORSDOF 5
ENDMDL
MODEL       15
REMARK 921   NORMALIZED FREE ENERGY PREDICTED BY IDOCK:   -5.53 KCAL/MOL
REMARK 922        TOTAL FREE ENERGY PREDICTED BY IDOCK:   -7.96 KCAL/MOL
REMARK 923 INTER-LIGAND FREE ENERGY PREDICTED BY IDOCK:   -6.79 KCAL/MOL
REMARK 924 INTRA-LIGAND FREE ENERGY PREDICTED BY IDOCK:   -1.16 KCAL/MOL
REMARK 927      BINDING AFFINITY PREDICTED BY RF-SCORE:    0.00 PKD
ROOT
HETATM    1  N   UNL     1     -11.505  10.112  68.164  1.00  0.00    -0.518 N  
HETATM    2  C   UNL     1     -11.346  10.631  69.399  1.00  0.00    -0.284 C  
HETATM    3  H1  UNL     1     -12.175  10.453  67.475  1.00  0.00     0.000 HD 
HETATM    4  H2  UNL     1     -10.914   9.324  67.901  1.00  0.00     0.000 HD 
HETATM    5  O   UNL     1     -10.545  10.223  70.223  1.00  0.00    -0.282 OA 
ENDROOT
BRANCH   2   6
HETATM    6  O   UNL     1     -12.189  11.667  69.557  1.00  0.00    -0.271 OA 
BRANCH   6   7
HETATM    7  C   UNL     1     -11.677  13.016  69.378  1.00  0.00    -0.326 C  
BRANCH   7   8
HETATM    8  C   UNL     1     -12.066  13.829  70.623  1.00  0.00    -0.405 A  
HETATM    9  C   UNL     1     -12.822  15.225  72.978  1.00  0.00    -0.577 A  
HETATM   10  C   UNL     1     -12.992  13.294  71.546  1.00  0.00    -0.426 A  
HETATM   11  C   UNL     1     -11.503  15.081  70.941  1.00  0.00    -0.288 A  
HETATM   12  C   UNL     1     -13.361  13.976  72.708  1.00  0.00    -0.603 A  
HETATM   13  C   UNL     1     -11.897  15.776  72.096  1.00  0.00    -0.593 A  
HETATM   14 CL   UNL     1     -10.260  15.819  69.996  1.00  0.00    -0.287 Cl 
ENDBRANCH   7   8
BRANCH   7  15
HETATM   15  C   UNL     1     -12.133  13.595  68.029  1.00  0.00    -0.274 C  
BRANCH  15  16
HETATM   16  N   UNL     1     -11.380  13.093  66.903  1.00  0.00    -0.304 NA 
HETATM   17  N   UNL     1     -10.077  13.388  66.726  1.00  0.00    -0.254 NA 
HETATM   18  N   UNL     1     -10.846  11.785  65.326  1.00  0.00    -0.286 NA 
HETATM   19  C   UNL     1      -9.792  12.552  65.723  1.00  0.00    -0.234 A  
HETATM   20  N   UNL     1     -11.867  12.127  66.100  1.00  0.00    -0.582 NA 
ENDBRANCH  15  16
ENDBRANCH   7  15
ENDBRANCH   6   7
ENDBRANCH   2   6
TORSDOF 5
ENDMDL
MODEL       16
REMARK 921   NORMALIZED FREE ENERGY PREDICTED BY IDOCK:   -5.47 KCAL/MOL
REMARK 922        TOTAL FREE ENERGY PREDICTED BY IDOCK:   -7.88 KCAL/MOL
REMARK 923 INTER-LIGAND FREE ENERGY PREDICTED BY IDOCK:   -6.93 KCAL/MOL
REMARK 924 INTRA-LIGAND FREE ENERGY PREDICTED BY IDOCK:   -0.95 KCAL/MOL
REMARK 927      BINDING AFFINITY PREDICTED BY RF-SCORE:    0.00 PKD
ROOT
HETATM    1  N   UNL     1     -11.508  14.141  64.247  1.00  0.00    -0.602 N  
HETATM    2  C   UNL     1     -11.421  15.482  64.354  1.00  0.00    -0.259 C  
HETATM    3  H1  UNL     1     -10.861  13.482  64.680  1.00  0.00     0.000 HD 
HETATM    4  H2  UNL     1     -12.274  13.758  63.694  1.00  0.00     0.000 HD 
HETATM    5  O   UNL     1     -12.194  16.270  63.836  1.00  0.00    -0.945 OA 
ENDROOT
BRANCH   2   6
HETATM    6  O   UNL     1     -10.370  15.799  65.132  1.00  0.00    -0.425 OA 
BRANCH   6   7
HETATM    7  C   UNL     1     -10.621  16.353  66.452  1.00  0.00    -0.236 C  
BRANCH   7   8
HETATM    8  C   UNL     1      -9.791  17.640  66.581  1.00  0.00    -0.309 A  
HETATM    9  C   UNL     1      -8.355  20.073  66.876  1.00  0.00    -0.376 A  
HETATM   10  C   UNL     1     -10.446  18.879  66.764  1.00  0.00    -0.497 A  
HETATM   11  C   UNL     1      -8.382  17.659  66.586  1.00  0.00    -0.260 A  
HETATM   12  C   UNL     1      -9.742  20.076  66.915  1.00  0.00    -0.557 A  
HETATM   13  C   UNL     1      -7.678  18.867  66.710  1.00  0.00    -0.252 A  
HETATM   14 CL   UNL     1      -7.424  16.225  66.510  1.00  0.00    -0.238 Cl 
ENDBRANCH   7   8
BRANCH   7  15
HETATM   15  C   UNL     1     -10.387  15.292  67.540  1.00  0.00    -0.244 C  
BRANCH  15  16
HETATM   16  N   UNL     1     -10.718  13.950  67.114  1.00  0.00    -0.281 NA 
HETATM   17  N   UNL     1      -9.771  13.018  66.890  1.00  0.00    -0.232 NA 
HETATM   18  N   UNL     1     -11.878  12.195  66.884  1.00  0.00    -0.601 NA 
HETATM   19  C   UNL     1     -10.547  11.941  66.742  1.00  0.00    -0.229 A  
HETATM   20  N   UNL     1     -11.984  13.493  67.138  1.00  0.00    -0.389 NA 
ENDBRANCH  15  16
ENDBRANCH   7  15
ENDBRANCH   6   7
ENDBRANCH   2   6
TORSDOF 5
ENDMDL
MODEL       17
REMARK 921   NORMALIZED FREE ENERGY PREDICTED BY IDOCK:   -5.44 KCAL/MOL
REMARK 922        TOTAL FREE ENERGY PREDICTED BY IDOCK:   -7.83 KCAL/MOL
REMARK 923 INTER-LIGAND FREE ENERGY PREDICTED BY IDOCK:   -7.01 KCAL/MOL
REMARK 924 INTRA-LIGAND FREE ENERGY PREDICTED BY IDOCK:   -0.82 KCAL/MOL
REMARK 927      BINDING AFFINITY PREDICTED BY RF-SCORE:    0.00 PKD
ROOT
HETATM    1  N   UNL     1     -11.373  14.471  65.386  1.00  0.00    -0.331 N  
HETATM    2  C   UNL     1     -11.996  13.612  66.218  1.00  0.00    -0.423 C  
HETATM    3  H1  UNL     1     -11.047  15.400  65.651  1.00  0.00     0.000 HD 
HETATM    4  H2  UNL     1     -11.218  14.171  64.423  1.00  0.00     0.000 HD 
HETATM    5  O   UNL     1     -12.386  12.501  65.902  1.00  0.00    -0.626 OA 
ENDROOT
BRANCH   2   6
HETATM    6  O   UNL     1     -12.092  14.168  67.440  1.00  0.00    -0.402 OA 
BRANCH   6   7
HETATM    7  C   UNL     1     -11.085  13.841  68.436  1.00  0.00    -0.263 C  
BRANCH   7   8
HETATM    8  C   UNL     1     -11.810  13.239  69.650  1.00  0.00    -0.391 A  
HETATM    9  C   UNL     1     -13.081  12.023  71.880  1.00  0.00    -0.475 A  
HETATM   10  C   UNL     1     -11.822  11.838  69.833  1.00  0.00    -0.423 A  
HETATM   11  C   UNL     1     -12.432  14.016  70.648  1.00  0.00    -0.365 A  
HETATM   12  C   UNL     1     -12.442  11.238  70.932  1.00  0.00    -0.493 A  
HETATM   13  C   UNL     1     -13.077  13.408  71.736  1.00  0.00    -0.479 A  
HETATM   14 CL   UNL     1     -12.394  15.743  70.653  1.00  0.00    -0.437 Cl 
ENDBRANCH   7   8
BRANCH   7  15
HETATM   15  C   UNL     1     -10.192  15.059  68.724  1.00  0.00    -0.235 C  
BRANCH  15  16
HETATM   16  N   UNL     1     -10.020  15.929  67.582  1.00  0.00    -0.235 NA 
HETATM   17  N   UNL     1     -10.673  17.103  67.473  1.00  0.00    -0.318 NA 
HETATM   18  N   UNL     1      -9.060  16.810  65.914  1.00  0.00    -0.520 NA 
HETATM   19  C   UNL     1     -10.043  17.611  66.410  1.00  0.00    -0.356 A  
HETATM   20  N   UNL     1      -9.038  15.729  66.682  1.00  0.00    -0.243 NA 
ENDBRANCH  15  16
ENDBRANCH   7  15
ENDBRANCH   6   7
ENDBRANCH   2   6
TORSDOF 5
ENDMDL
MODEL       18
REMARK 921   NORMALIZED FREE ENERGY PREDICTED BY IDOCK:   -5.44 KCAL/MOL
REMARK 922        TOTAL FREE ENERGY PREDICTED BY IDOCK:   -7.83 KCAL/MOL
REMARK 923 INTER-LIGAND FREE ENERGY PREDICTED BY IDOCK:   -6.81 KCAL/MOL
REMARK 924 INTRA-LIGAND FREE ENERGY PREDICTED BY IDOCK:   -1.02 KCAL/MOL
REMARK 927      BINDING AFFINITY PREDICTED BY RF-SCORE:    0.00 PKD
ROOT
HETATM    1  N   UNL     1      -9.377  14.391  66.366  1.00  0.00    -0.390 N  
HETATM    2  C   UNL     1      -9.294  14.172  67.694  1.00  0.00    -0.209 C  
HETATM    3  H1  UNL     1      -9.870  13.787  65.709  1.00  0.00     0.000 HD 
HETATM    4  H2  UNL     1      -8.912  15.219  65.992  1.00  0.00     0.000 HD 
HETATM    5  O   UNL     1      -8.703  14.894  68.479  1.00  0.00    -0.158 OA 
ENDROOT
BRANCH   2   6
HETATM    6  O   UNL     1      -9.979  13.056  68.004  1.00  0.00    -0.220 OA 
BRANCH   6   7
HETATM    7  C   UNL     1     -11.425  13.063  67.859  1.00  0.00    -0.311 C  
BRANCH   7   8
HETATM    8  C   UNL     1     -12.033  12.958  69.267  1.00  0.00    -0.313 A  
HETATM    9  C   UNL     1     -13.105  12.649  71.880  1.00  0.00    -0.470 A  
HETATM   10  C   UNL     1     -12.218  11.686  69.856  1.00  0.00    -0.310 A  
HETATM   11  C   UNL     1     -12.374  14.076  70.052  1.00  0.00    -0.337 A  
HETATM   12  C   UNL     1     -12.739  11.532  71.142  1.00  0.00    -0.458 A  
HETATM   13  C   UNL     1     -12.924  13.917  71.334  1.00  0.00    -0.430 A  
HETATM   14 CL   UNL     1     -12.088  15.702  69.544  1.00  0.00    -0.358 Cl 
ENDBRANCH   7   8
BRANCH   7  15
HETATM   15  C   UNL     1     -11.875  11.991  66.853  1.00  0.00    -0.173 C  
BRANCH  15  16
HETATM   16  N   UNL     1     -11.804  12.428  65.477  1.00  0.00    -0.415 NA 
HETATM   17  N   UNL     1     -10.862  11.970  64.630  1.00  0.00    -0.296 NA 
HETATM   18  N   UNL     1     -12.486  13.177  63.619  1.00  0.00    -0.735 NA 
HETATM   19  C   UNL     1     -11.327  12.473  63.483  1.00  0.00    -0.486 A  
HETATM   20  N   UNL     1     -12.798  13.134  64.907  1.00  0.00    -0.742 NA 
ENDBRANCH  15  16
ENDBRANCH   7  15
ENDBRANCH   6   7
ENDBRANCH   2   6
TORSDOF 5
ENDMDL
MODEL       19
REMARK 921   NORMALIZED FREE ENERGY PREDICTED BY IDOCK:   -5.39 KCAL/MOL
REMARK 922        TOTAL FREE ENERGY PREDICTED BY IDOCK:   -7.77 KCAL/MOL
REMARK 923 INTER-LIGAND FREE ENERGY PREDICTED BY IDOCK:   -7.18 KCAL/MOL
REMARK 924 INTRA-LIGAND FREE ENERGY PREDICTED BY IDOCK:   -0.59 KCAL/MOL
REMARK 927      BINDING AFFINITY PREDICTED BY RF-SCORE:    0.00 PKD
ROOT
HETATM    1  N   UNL     1     -12.312  14.138  63.322  1.00  0.00    -1.133 N  
HETATM    2  C   UNL     1     -12.447  14.383  64.642  1.00  0.00    -0.345 C  
HETATM    3  H1  UNL     1     -11.543  14.479  62.746  1.00  0.00     0.000 HD 
HETATM    4  H2  UNL     1     -13.030  13.573  62.869  1.00  0.00     0.000 HD 
HETATM    5  O   UNL     1     -13.366  13.975  65.331  1.00  0.00    -0.721 OA 
ENDROOT
BRANCH   2   6
HETATM    6  O   UNL     1     -11.403  15.119  65.066  1.00  0.00    -0.373 OA 
BRANCH   6   7
HETATM    7  C   UNL     1     -11.006  15.027  66.461  1.00  0.00    -0.327 C  
BRANCH   7   8
HETATM    8  C   UNL     1     -10.558  16.427  66.909  1.00  0.00    -0.252 A  
HETATM    9  C   UNL     1      -9.770  19.060  67.628  1.00  0.00    -0.373 A  
HETATM   10  C   UNL     1     -10.317  17.428  65.941  1.00  0.00    -0.276 A  
HETATM   11  C   UNL     1     -10.421  16.804  68.260  1.00  0.00    -0.341 A  
HETATM   12  C   UNL     1      -9.935  18.724  66.292  1.00  0.00    -0.418 A  
HETATM   13  C   UNL     1     -10.010  18.101  68.608  1.00  0.00    -0.409 A  
HETATM   14 CL   UNL     1     -10.805  15.750  69.573  1.00  0.00    -0.261 Cl 
ENDBRANCH   7   8
BRANCH   7  15
HETATM   15  C   UNL     1      -9.980  13.899  66.660  1.00  0.00    -0.279 C  
BRANCH  15  16
HETATM   16  N   UNL     1     -10.579  12.637  67.033  1.00  0.00    -0.238 NA 
HETATM   17  N   UNL     1      -9.952  11.461  66.832  1.00  0.00    -0.203 NA 
HETATM   18  N   UNL     1     -11.818  11.293  68.100  1.00  0.00    -0.607 NA 
HETATM   19  C   UNL     1     -10.771  10.652  67.510  1.00  0.00    -0.272 A  
HETATM   20  N   UNL     1     -11.683  12.578  67.801  1.00  0.00    -0.354 NA 
ENDBRANCH  15  16
ENDBRANCH   7  15
ENDBRANCH   6   7
ENDBRANCH   2   6
TORSDOF 5
ENDMDL
MODEL       20
REMARK 921   NORMALIZED FREE ENERGY PREDICTED BY IDOCK:   -5.36 KCAL/MOL
REMARK 922        TOTAL FREE ENERGY PREDICTED BY IDOCK:   -7.73 KCAL/MOL
REMARK 923 INTER-LIGAND FREE ENERGY PREDICTED BY IDOCK:   -7.04 KCAL/MOL
REMARK 924 INTRA-LIGAND FREE ENERGY PREDICTED BY IDOCK:   -0.69 KCAL/MOL
REMARK 927      BINDING AFFINITY PREDICTED BY RF-SCORE:    0.00 PKD
ROOT
HETATM    1  N   UNL     1     -12.366  13.922  63.358  1.00  0.00    -1.139 N  
HETATM    2  C   UNL     1     -12.218  14.961  64.205  1.00  0.00    -0.344 C  
HETATM    3  H1  UNL     1     -12.408  12.944  63.644  1.00  0.00     0.000 HD 
HETATM    4  H2  UNL     1     -12.440  14.128  62.362  1.00  0.00     0.000 HD 
HETATM    5  O   UNL     1     -12.167  16.130  63.864  1.00  0.00    -0.935 OA 
ENDROOT
BRANCH   2   6
HETATM    6  O   UNL     1     -12.159  14.500  65.468  1.00  0.00    -0.357 OA 
BRANCH   6   7
HETATM    7  C   UNL     1     -10.933  14.690  66.224  1.00  0.00    -0.327 C  
BRANCH   7   8
HETATM    8  C   UNL     1     -10.475  13.311  66.723  1.00  0.00    -0.270 A  
HETATM    9  C   UNL     1      -9.720  10.708  67.574  1.00  0.00    -0.189 A  
HETATM   10  C   UNL     1     -11.356  12.209  66.637  1.00  0.00    -0.405 A  
HETATM   11  C   UNL     1      -9.184  13.053  67.223  1.00  0.00    -0.213 A  
HETATM   12  C   UNL     1     -10.985  10.927  67.049  1.00  0.00    -0.310 A  
HETATM   13  C   UNL     1      -8.823  11.770  67.662  1.00  0.00    -0.162 A  
HETATM   14 CL   UNL     1      -7.940  14.251  67.272  1.00  0.00    -0.210 Cl 
ENDBRANCH   7   8
BRANCH   7  15
HETATM   15  C   UNL     1     -11.124  15.766  67.306  1.00  0.00    -0.211 C  
BRANCH  15  16
HETATM   16  N   UNL     1     -10.395  16.986  67.040  1.00  0.00    -0.309 NA 
HETATM   17  N   UNL     1     -10.126  17.883  68.008  1.00  0.00    -0.338 NA 
HETATM   18  N   UNL     1      -9.045  18.290  66.062  1.00  0.00    -0.513 NA 
HETATM   19  C   UNL     1      -9.286  18.683  67.344  1.00  0.00    -0.279 A  
HETATM   20  N   UNL     1      -9.753  17.185  65.873  1.00  0.00    -0.529 NA 
ENDBRANCH  15  16
ENDBRANCH   7  15
ENDBRANCH   6   7
ENDBRANCH   2   6
TORSDOF 5
ENDMDL
MODEL       21
REMARK 921   NORMALIZED FREE ENERGY PREDICTED BY IDOCK:   -5.35 KCAL/MOL
REMARK 922        TOTAL FREE ENERGY PREDICTED BY IDOCK:   -7.72 KCAL/MOL
REMARK 923 INTER-LIGAND FREE ENERGY PREDICTED BY IDOCK:   -7.02 KCAL/MOL
REMARK 924 INTRA-LIGAND FREE ENERGY PREDICTED BY IDOCK:   -0.70 KCAL/MOL
REMARK 927      BINDING AFFINITY PREDICTED BY RF-SCORE:    0.00 PKD
ROOT
HETATM    1  N   UNL     1     -11.993  14.843  64.252  1.00  0.00    -0.698 N  
HETATM    2  C   UNL     1     -11.298  15.903  64.713  1.00  0.00    -0.309 C  
HETATM    3  H1  UNL     1     -11.986  13.916  64.677  1.00  0.00     0.000 HD 
HETATM    4  H2  UNL     1     -12.565  14.977  63.419  1.00  0.00     0.000 HD 
HETATM    5  O   UNL     1     -11.307  17.010  64.204  1.00  0.00    -1.164 OA 
ENDROOT
BRANCH   2   6
HETATM    6  O   UNL     1     -10.625  15.544  65.821  1.00  0.00    -0.318 OA 
BRANCH   6   7
HETATM    7  C   UNL     1     -10.861  14.226  66.386  1.00  0.00    -0.307 C  
BRANCH   7   8
HETATM    8  C   UNL     1     -11.365  14.420  67.824  1.00  0.00    -0.331 A  
HETATM    9  C   UNL     1     -12.327  14.897  70.454  1.00  0.00    -0.401 A  
HETATM   10  C   UNL     1     -11.469  15.724  68.359  1.00  0.00    -0.367 A  
HETATM   11  C   UNL     1     -11.795  13.360  68.647  1.00  0.00    -0.362 A  
HETATM   12  C   UNL     1     -11.948  15.961  69.649  1.00  0.00    -0.272 A  
HETATM   13  C   UNL     1     -12.249  13.600  69.954  1.00  0.00    -0.367 A  
HETATM   14 CL   UNL     1     -11.863  11.721  68.108  1.00  0.00    -0.363 Cl 
ENDBRANCH   7   8
BRANCH   7  15
HETATM   15  C   UNL     1      -9.617  13.336  66.225  1.00  0.00    -0.235 C  
BRANCH  15  16
HETATM   16  N   UNL     1      -9.794  12.268  65.267  1.00  0.00    -0.224 NA 
HETATM   17  N   UNL     1      -9.666  10.971  65.610  1.00  0.00    -0.219 NA 
HETATM   18  N   UNL     1     -10.512  11.286  63.535  1.00  0.00    -0.389 NA 
HETATM   19  C   UNL     1     -10.118  10.398  64.491  1.00  0.00    -0.295 A  
HETATM   20  N   UNL     1     -10.314  12.494  64.045  1.00  0.00    -0.402 NA 
ENDBRANCH  15  16
ENDBRANCH   7  15
ENDBRANCH   6   7
ENDBRANCH   2   6
TORSDOF 5
ENDMDL
MODEL       22
REMARK 921   NORMALIZED FREE ENERGY PREDICTED BY IDOCK:   -5.34 KCAL/MOL
REMARK 922        TOTAL FREE ENERGY PREDICTED BY IDOCK:   -7.71 KCAL/MOL
REMARK 923 INTER-LIGAND FREE ENERGY PREDICTED BY IDOCK:   -7.32 KCAL/MOL
REMARK 924 INTRA-LIGAND FREE ENERGY PREDICTED BY IDOCK:   -0.39 KCAL/MOL
REMARK 927      BINDING AFFINITY PREDICTED BY RF-SCORE:    0.00 PKD
ROOT
HETATM    1  N   UNL     1      -8.531  14.836  69.565  1.00  0.00    -0.415 N  
HETATM    2  C   UNL     1      -8.889  14.199  68.431  1.00  0.00    -0.187 C  
HETATM    3  H1  UNL     1      -9.013  14.742  70.459  1.00  0.00     0.000 HD 
HETATM    4  H2  UNL     1      -7.722  15.456  69.525  1.00  0.00     0.000 HD 
HETATM    5  O   UNL     1      -8.313  14.311  67.363  1.00  0.00    -0.174 OA 
ENDROOT
BRANCH   2   6
HETATM    6  O   UNL     1      -9.955  13.416  68.679  1.00  0.00    -0.216 OA 
BRANCH   6   7
HETATM    7  C   UNL     1     -11.285  13.959  68.460  1.00  0.00    -0.270 C  
BRANCH   7   8
HETATM    8  C   UNL     1     -12.045  13.877  69.793  1.00  0.00    -0.404 A  
HETATM    9  C   UNL     1     -13.508  13.834  72.228  1.00  0.00    -0.638 A  
HETATM   10  C   UNL     1     -12.621  15.045  70.342  1.00  0.00    -0.399 A  
HETATM   11  C   UNL     1     -12.258  12.674  70.494  1.00  0.00    -0.299 A  
HETATM   12  C   UNL     1     -13.346  15.025  71.536  1.00  0.00    -0.500 A  
HETATM   13  C   UNL     1     -12.964  12.662  71.708  1.00  0.00    -0.417 A  
HETATM   14 CL   UNL     1     -11.743  11.137  69.899  1.00  0.00    -0.397 Cl 
ENDBRANCH   7   8
BRANCH   7  15
HETATM   15  C   UNL     1     -11.960  13.275  67.260  1.00  0.00    -0.343 C  
BRANCH  15  16
HETATM   16  N   UNL     1     -12.061  14.125  66.095  1.00  0.00    -0.424 NA 
HETATM   17  N   UNL     1     -11.129  15.055  65.806  1.00  0.00    -0.346 NA 
HETATM   18  N   UNL     1     -12.629  14.722  64.146  1.00  0.00    -0.787 NA 
HETATM   19  C   UNL     1     -11.534  15.405  64.582  1.00  0.00    -0.337 A  
HETATM   20  N   UNL     1     -12.959  13.885  65.121  1.00  0.00    -0.773 NA 
ENDBRANCH  15  16
ENDBRANCH   7  15
ENDBRANCH   6   7
ENDBRANCH   2   6
TORSDOF 5
ENDMDL
MODEL       23
REMARK 921   NORMALIZED FREE ENERGY PREDICTED BY IDOCK:   -5.32 KCAL/MOL
REMARK 922        TOTAL FREE ENERGY PREDICTED BY IDOCK:   -7.68 KCAL/MOL
REMARK 923 INTER-LIGAND FREE ENERGY PREDICTED BY IDOCK:   -7.01 KCAL/MOL
REMARK 924 INTRA-LIGAND FREE ENERGY PREDICTED BY IDOCK:   -0.67 KCAL/MOL
REMARK 927      BINDING AFFINITY PREDICTED BY RF-SCORE:    0.00 PKD
ROOT
HETATM    1  N   UNL     1     -12.353  14.587  63.861  1.00  0.00    -1.047 N  
HETATM    2  C   UNL     1     -12.508  13.699  64.864  1.00  0.00    -0.384 C  
HETATM    3  H1  UNL     1     -11.835  15.462  63.938  1.00  0.00     0.000 HD 
HETATM    4  H2  UNL     1     -12.786  14.369  62.964  1.00  0.00     0.000 HD 
HETATM    5  O   UNL     1     -13.128  12.653  64.774  1.00  0.00    -0.852 OA 
ENDROOT
BRANCH   2   6
HETATM    6  O   UNL     1     -11.856  14.142  65.955  1.00  0.00    -0.357 OA 
BRANCH   6   7
HETATM    7  C   UNL     1     -11.376  13.170  66.924  1.00  0.00    -0.318 C  
BRANCH   7   8
HETATM    8  C   UNL     1     -11.672  13.727  68.325  1.00  0.00    -0.394 A  
HETATM    9  C   UNL     1     -12.246  14.867  70.863  1.00  0.00    -0.389 A  
HETATM   10  C   UNL     1     -11.641  15.123  68.543  1.00  0.00    -0.354 A  
HETATM   11  C   UNL     1     -12.036  12.921  69.422  1.00  0.00    -0.269 A  
HETATM   12  C   UNL     1     -11.929  15.686  69.789  1.00  0.00    -0.371 A  
HETATM   13  C   UNL     1     -12.297  13.488  70.679  1.00  0.00    -0.432 A  
HETATM   14 CL   UNL     1     -12.254  11.212  69.298  1.00  0.00    -0.370 Cl 
ENDBRANCH   7   8
BRANCH   7  15
HETATM   15  C   UNL     1      -9.910  12.803  66.644  1.00  0.00    -0.250 C  
BRANCH  15  16
HETATM   16  N   UNL     1      -9.751  11.511  66.014  1.00  0.00    -0.219 NA 
HETATM   17  N   UNL     1      -9.908  10.359  66.696  1.00  0.00    -0.194 NA 
HETATM   18  N   UNL     1      -9.732  10.076  64.458  1.00  0.00    -0.295 NA 
HETATM   19  C   UNL     1      -9.879   9.492  65.680  1.00  0.00    -0.272 A  
HETATM   20  N   UNL     1      -9.663  11.382  64.677  1.00  0.00    -0.245 NA 
ENDBRANCH  15  16
ENDBRANCH   7  15
ENDBRANCH   6   7
ENDBRANCH   2   6
TORSDOF 5
ENDMDL
MODEL       24
REMARK 921   NORMALIZED FREE ENERGY PREDICTED BY IDOCK:   -5.31 KCAL/MOL
REMARK 922        TOTAL FREE ENERGY PREDICTED BY IDOCK:   -7.66 KCAL/MOL
REMARK 923 INTER-LIGAND FREE ENERGY PREDICTED BY IDOCK:   -6.43 KCAL/MOL
REMARK 924 INTRA-LIGAND FREE ENERGY PREDICTED BY IDOCK:   -1.24 KCAL/MOL
REMARK 927      BINDING AFFINITY PREDICTED BY RF-SCORE:    0.00 PKD
ROOT
HETATM    1  N   UNL     1      -8.606  13.641  66.804  1.00  0.00    -0.436 N  
HETATM    2  C   UNL     1      -8.865  12.825  67.847  1.00  0.00    -0.186 C  
HETATM    3  H1  UNL     1      -9.306  13.971  66.140  1.00  0.00     0.000 HD 
HETATM    4  H2  UNL     1      -7.643  13.948  66.671  1.00  0.00     0.000 HD 
HETATM    5  O   UNL     1      -8.029  12.430  68.641  1.00  0.00    -0.122 OA 
ENDROOT
BRANCH   2   6
HETATM    6  O   UNL     1     -10.181  12.545  67.875  1.00  0.00    -0.207 OA 
BRANCH   6   7
HETATM    7  C   UNL     1     -11.079  13.478  68.534  1.00  0.00    -0.272 C  
BRANCH   7   8
HETATM    8  C   UNL     1     -11.790  12.718  69.665  1.00  0.00    -0.384 A  
HETATM    9  C   UNL     1     -13.039  11.211  71.723  1.00  0.00    -0.536 A  
HETATM   10  C   UNL     1     -11.841  11.306  69.634  1.00  0.00    -0.430 A  
HETATM   11  C   UNL     1     -12.361  13.349  70.788  1.00  0.00    -0.354 A  
HETATM   12  C   UNL     1     -12.450  10.562  70.648  1.00  0.00    -0.456 A  
HETATM   13  C   UNL     1     -12.996  12.601  71.791  1.00  0.00    -0.417 A  
HETATM   14 CL   UNL     1     -12.269  15.054  71.054  1.00  0.00    -0.351 Cl 
ENDBRANCH   7   8
BRANCH   7  15
HETATM   15  C   UNL     1     -11.995  14.166  67.509  1.00  0.00    -0.384 C  
BRANCH  15  16
HETATM   16  N   UNL     1     -11.331  15.200  66.748  1.00  0.00    -0.296 NA 
HETATM   17  N   UNL     1     -10.567  16.142  67.336  1.00  0.00    -0.311 NA 
HETATM   18  N   UNL     1     -10.418  16.127  65.078  1.00  0.00    -0.615 NA 
HETATM   19  C   UNL     1     -10.025  16.700  66.250  1.00  0.00    -0.320 A  
HETATM   20  N   UNL     1     -11.252  15.148  65.405  1.00  0.00    -0.350 NA 
ENDBRANCH  15  16
ENDBRANCH   7  15
ENDBRANCH   6   7
ENDBRANCH   2   6
TORSDOF 5
ENDMDL
MODEL       25
REMARK 921   NORMALIZED FREE ENERGY PREDICTED BY IDOCK:   -5.26 KCAL/MOL
REMARK 922        TOTAL FREE ENERGY PREDICTED BY IDOCK:   -7.60 KCAL/MOL
REMARK 923 INTER-LIGAND FREE ENERGY PREDICTED BY IDOCK:   -6.70 KCAL/MOL
REMARK 924 INTRA-LIGAND FREE ENERGY PREDICTED BY IDOCK:   -0.90 KCAL/MOL
REMARK 927      BINDING AFFINITY PREDICTED BY RF-SCORE:    0.00 PKD
ROOT
HETATM    1  N   UNL     1     -10.900  12.445  69.224  1.00  0.00    -0.444 N  
HETATM    2  C   UNL     1     -11.826  11.649  68.651  1.00  0.00    -0.308 C  
HETATM    3  H1  UNL     1     -10.926  12.757  70.194  1.00  0.00     0.000 HD 
HETATM    4  H2  UNL     1     -10.119  12.756  68.646  1.00  0.00     0.000 HD 
HETATM    5  O   UNL     1     -11.795  11.275  67.491  1.00  0.00    -0.613 OA 
ENDROOT
BRANCH   2   6
HETATM    6  O   UNL     1     -12.759  11.325  69.564  1.00  0.00    -0.143 OA 
BRANCH   6   7
HETATM    7  C   UNL     1     -12.344  11.113  70.941  1.00  0.00    -0.399 C  
BRANCH   7   8
HETATM    8  C   UNL     1     -12.314   9.597  71.189  1.00  0.00    -0.427 A  
HETATM    9  C   UNL     1     -12.383   6.791  71.626  1.00  0.00    -0.409 A  
HETATM   10  C   UNL     1     -13.509   8.920  71.524  1.00  0.00    -0.381 A  
HETATM   11  C   UNL     1     -11.156   8.808  71.048  1.00  0.00    -0.270 A  
HETATM   12  C   UNL     1     -13.546   7.539  71.733  1.00  0.00    -0.397 A  
HETATM   13  C   UNL     1     -11.191   7.425  71.286  1.00  0.00    -0.275 A  
HETATM   14 CL   UNL     1      -9.643   9.450  70.514  1.00  0.00    -0.310 Cl 
ENDBRANCH   7   8
BRANCH   7  15
HETATM   15  C   UNL     1     -13.219  11.934  71.904  1.00  0.00    -0.362 C  
BRANCH  15  16
HETATM   16  N   UNL     1     -13.233  13.348  71.604  1.00  0.00    -0.377 NA 
HETATM   17  N   UNL     1     -14.323  14.112  71.814  1.00  0.00    -0.433 NA 
HETATM   18  N   UNL     1     -12.465  15.297  71.301  1.00  0.00    -0.336 NA 
HETATM   19  C   UNL     1     -13.794  15.320  71.603  1.00  0.00    -0.519 A  
HETATM   20  N   UNL     1     -12.103  14.021  71.316  1.00  0.00    -0.299 NA 
ENDBRANCH  15  16
ENDBRANCH   7  15
ENDBRANCH   6   7
ENDBRANCH   2   6
TORSDOF 5
ENDMDL
MODEL       26
REMARK 921   NORMALIZED FREE ENERGY PREDICTED BY IDOCK:   -5.25 KCAL/MOL
REMARK 922        TOTAL FREE ENERGY PREDICTED BY IDOCK:   -7.59 KCAL/MOL
REMARK 923 INTER-LIGAND FREE ENERGY PREDICTED BY IDOCK:   -6.23 KCAL/MOL
REMARK 924 INTRA-LIGAND FREE ENERGY PREDICTED BY IDOCK:   -1.36 KCAL/MOL
REMARK 927      BINDING AFFINITY PREDICTED BY RF-SCORE:    0.00 PKD
ROOT
HETATM    1  N   UNL     1      -8.160  17.588  68.681  1.00  0.00    -0.273 N  
HETATM    2  C   UNL     1      -8.853  16.431  68.688  1.00  0.00    -0.234 C  
HETATM    3  H1  UNL     1      -7.829  18.059  67.840  1.00  0.00     0.000 HD 
HETATM    4  H2  UNL     1      -7.952  18.022  69.580  1.00  0.00     0.000 HD 
HETATM    5  O   UNL     1      -9.249  15.868  69.694  1.00  0.00    -0.236 OA 
ENDROOT
BRANCH   2   6
HETATM    6  O   UNL     1      -9.050  16.023  67.421  1.00  0.00    -0.196 OA 
BRANCH   6   7
HETATM    7  C   UNL     1     -10.370  16.183  66.834  1.00  0.00    -0.297 C  
BRANCH   7   8
HETATM    8  C   UNL     1     -10.809  14.812  66.298  1.00  0.00    -0.322 A  
HETATM    9  C   UNL     1     -11.529  12.283  65.224  1.00  0.00    -0.399 A  
HETATM   10  C   UNL     1     -10.436  14.418  64.993  1.00  0.00    -0.454 A  
HETATM   11  C   UNL     1     -11.531  13.874  67.062  1.00  0.00    -0.346 A  
HETATM   12  C   UNL     1     -10.783  13.173  64.465  1.00  0.00    -0.416 A  
HETATM   13  C   UNL     1     -11.903  12.634  66.518  1.00  0.00    -0.463 A  
HETATM   14 CL   UNL     1     -11.951  14.134  68.717  1.00  0.00    -0.378 Cl 
ENDBRANCH   7   8
BRANCH   7  15
HETATM   15  C   UNL     1     -10.374  17.335  65.815  1.00  0.00    -0.234 C  
BRANCH  15  16
HETATM   16  N   UNL     1     -10.095  18.625  66.403  1.00  0.00    -0.382 NA 
HETATM   17  N   UNL     1     -10.906  19.182  67.324  1.00  0.00    -0.480 NA 
HETATM   18  N   UNL     1      -8.939  20.269  67.067  1.00  0.00    -0.348 NA 
HETATM   19  C   UNL     1     -10.143  20.211  67.702  1.00  0.00    -0.402 A  
HETATM   20  N   UNL     1      -8.905  19.234  66.239  1.00  0.00    -0.374 NA 
ENDBRANCH  15  16
ENDBRANCH   7  15
ENDBRANCH   6   7
ENDBRANCH   2   6
TORSDOF 5
ENDMDL
MODEL       27
REMARK 921   NORMALIZED FREE ENERGY PREDICTED BY IDOCK:   -5.25 KCAL/MOL
REMARK 922        TOTAL FREE ENERGY PREDICTED BY IDOCK:   -7.58 KCAL/MOL
REMARK 923 INTER-LIGAND FREE ENERGY PREDICTED BY IDOCK:   -6.34 KCAL/MOL
REMARK 924 INTRA-LIGAND FREE ENERGY PREDICTED BY IDOCK:   -1.24 KCAL/MOL
REMARK 927      BINDING AFFINITY PREDICTED BY RF-SCORE:    0.00 PKD
ROOT
HETATM    1  N   UNL     1     -12.274  14.450  67.929  1.00  0.00    -0.620 N  
HETATM    2  C   UNL     1     -11.882  13.720  68.993  1.00  0.00    -0.357 C  
HETATM    3  H1  UNL     1     -11.887  14.360  66.990  1.00  0.00     0.000 HD 
HETATM    4  H2  UNL     1     -13.010  15.142  68.074  1.00  0.00     0.000 HD 
HETATM    5  O   UNL     1     -12.344  13.828  70.115  1.00  0.00    -0.335 OA 
ENDROOT
BRANCH   2   6
HETATM    6  O   UNL     1     -10.927  12.853  68.609  1.00  0.00    -0.244 OA 
BRANCH   6   7
HETATM    7  C   UNL     1     -11.316  11.496  68.262  1.00  0.00    -0.286 C  
BRANCH   7   8
HETATM    8  C   UNL     1     -10.798  10.567  69.372  1.00  0.00    -0.291 A  
HETATM    9  C   UNL     1      -9.726   8.895  71.402  1.00  0.00    -0.370 A  
HETATM   10  C   UNL     1      -9.428  10.223  69.412  1.00  0.00    -0.225 A  
HETATM   11  C   UNL     1     -11.609  10.068  70.410  1.00  0.00    -0.302 A  
HETATM   12  C   UNL     1      -8.897   9.406  70.413  1.00  0.00    -0.290 A  
HETATM   13  C   UNL     1     -11.078   9.225  71.398  1.00  0.00    -0.437 A  
HETATM   14 CL   UNL     1     -13.273  10.498  70.590  1.00  0.00    -0.286 Cl 
ENDBRANCH   7   8
BRANCH   7  15
HETATM   15  C   UNL     1     -10.865  11.151  66.833  1.00  0.00    -0.279 C  
BRANCH  15  16
HETATM   16  N   UNL     1     -11.187  12.175  65.865  1.00  0.00    -0.326 NA 
HETATM   17  N   UNL     1     -12.447  12.380  65.434  1.00  0.00    -0.613 NA 
HETATM   18  N   UNL     1     -10.990  13.984  64.785  1.00  0.00    -0.386 NA 
HETATM   19  C   UNL     1     -12.270  13.517  64.755  1.00  0.00    -0.409 A  
HETATM   20  N   UNL     1     -10.296  13.121  65.515  1.00  0.00    -0.286 NA 
ENDBRANCH  15  16
ENDBRANCH   7  15
ENDBRANCH   6   7
ENDBRANCH   2   6
TORSDOF 5
ENDMDL
MODEL       28
REMARK 921   NORMALIZED FREE ENERGY PREDICTED BY IDOCK:   -5.24 KCAL/MOL
REMARK 922        TOTAL FREE ENERGY PREDICTED BY IDOCK:   -7.57 KCAL/MOL
REMARK 923 INTER-LIGAND FREE ENERGY PREDICTED BY IDOCK:   -7.22 KCAL/MOL
REMARK 924 INTRA-LIGAND FREE ENERGY PREDICTED BY IDOCK:   -0.35 KCAL/MOL
REMARK 927      BINDING AFFINITY PREDICTED BY RF-SCORE:    0.00 PKD
ROOT
HETATM    1  N   UNL     1     -12.403  14.965  63.745  1.00  0.00    -1.071 N  
HETATM    2  C   UNL     1     -11.563  15.677  64.523  1.00  0.00    -0.262 C  
HETATM    3  H1  UNL     1     -12.579  13.966  63.846  1.00  0.00     0.000 HD 
HETATM    4  H2  UNL     1     -12.897  15.461  63.003  1.00  0.00     0.000 HD 
HETATM    5  O   UNL     1     -11.352  16.872  64.403  1.00  0.00    -1.133 OA 
ENDROOT
BRANCH   2   6
HETATM    6  O   UNL     1     -11.023  14.867  65.452  1.00  0.00    -0.325 OA 
BRANCH   6   7
HETATM    7  C   UNL     1     -11.881  14.339  66.500  1.00  0.00    -0.415 C  
BRANCH   7   8
HETATM    8  C   UNL     1     -11.427  14.962  67.830  1.00  0.00    -0.353 A  
HETATM    9  C   UNL     1     -10.685  16.058  70.343  1.00  0.00    -0.218 A  
HETATM   10  C   UNL     1     -12.348  15.086  68.895  1.00  0.00    -0.023 A  
HETATM   11  C   UNL     1     -10.105  15.379  68.082  1.00  0.00    -0.222 A  
HETATM   12  C   UNL     1     -11.984  15.618  70.133  1.00  0.00    -0.387 A  
HETATM   13  C   UNL     1      -9.749  15.940  69.319  1.00  0.00    -0.263 A  
HETATM   14 CL   UNL     1      -8.824  15.176  66.942  1.00  0.00    -0.263 Cl 
ENDBRANCH   7   8
BRANCH   7  15
HETATM   15  C   UNL     1     -11.910  12.802  66.455  1.00  0.00    -0.408 C  
BRANCH  15  16
HETATM   16  N   UNL     1     -11.926  12.267  65.112  1.00  0.00    -0.370 NA 
HETATM   17  N   UNL     1     -13.067  12.142  64.407  1.00  0.00    -0.713 NA 
HETATM   18  N   UNL     1     -11.197  11.779  63.186  1.00  0.00    -0.233 NA 
HETATM   19  C   UNL     1     -12.559  11.827  63.212  1.00  0.00    -0.254 A  
HETATM   20  N   UNL     1     -10.792  12.078  64.413  1.00  0.00    -0.308 NA 
ENDBRANCH  15  16
ENDBRANCH   7  15
ENDBRANCH   6   7
ENDBRANCH   2   6
TORSDOF 5
ENDMDL
MODEL       29
REMARK 921   NORMALIZED FREE ENERGY PREDICTED BY IDOCK:   -5.21 KCAL/MOL
REMARK 922        TOTAL FREE ENERGY PREDICTED BY IDOCK:   -7.54 KCAL/MOL
REMARK 923 INTER-LIGAND FREE ENERGY PREDICTED BY IDOCK:   -6.52 KCAL/MOL
REMARK 924 INTRA-LIGAND FREE ENERGY PREDICTED BY IDOCK:   -1.02 KCAL/MOL
REMARK 927      BINDING AFFINITY PREDICTED BY RF-SCORE:    0.00 PKD
ROOT
HETATM    1  N   UNL     1     -10.983  14.254  69.820  1.00  0.00    -0.447 N  
HETATM    2  C   UNL     1     -11.893  15.249  69.838  1.00  0.00    -0.335 C  
HETATM    3  H1  UNL     1     -10.388  14.028  69.023  1.00  0.00     0.000 HD 
HETATM    4  H2  UNL     1     -10.883  13.687  70.662  1.00  0.00     0.000 HD 
HETATM    5  O   UNL     1     -12.605  15.519  70.791  1.00  0.00    -0.409 OA 
ENDROOT
BRANCH   2   6
HETATM    6  O   UNL     1     -11.869  15.895  68.659  1.00  0.00    -0.388 OA 
BRANCH   6   7
HETATM    7  C   UNL     1     -10.638  15.890  67.886  1.00  0.00    -0.300 C  
BRANCH   7   8
HETATM    8  C   UNL     1     -10.038  17.303  67.957  1.00  0.00    -0.324 A  
HETATM    9  C   UNL     1      -9.047  19.962  68.081  1.00  0.00    -0.349 A  
HETATM   10  C   UNL     1     -10.785  18.404  67.480  1.00  0.00    -0.399 A  
HETATM   11  C   UNL     1      -8.784  17.588  68.533  1.00  0.00    -0.282 A  
HETATM   12  C   UNL     1     -10.302  19.713  67.545  1.00  0.00    -0.578 A  
HETATM   13  C   UNL     1      -8.290  18.902  68.571  1.00  0.00    -0.384 A  
HETATM   14 CL   UNL     1      -7.801  16.383  69.285  1.00  0.00    -0.212 Cl 
ENDBRANCH   7   8
BRANCH   7  15
HETATM   15  C   UNL     1     -10.886  15.337  66.473  1.00  0.00    -0.311 C  
BRANCH  15  16
HETATM   16  N   UNL     1     -11.036  13.900  66.436  1.00  0.00    -0.301 NA 
HETATM   17  N   UNL     1     -10.183  13.076  67.075  1.00  0.00    -0.243 NA 
HETATM   18  N   UNL     1     -12.020  12.034  66.265  1.00  0.00    -0.574 NA 
HETATM   19  C   UNL     1     -10.838  11.920  66.932  1.00  0.00    -0.263 A  
HETATM   20  N   UNL     1     -12.152  13.318  65.958  1.00  0.00    -0.424 NA 
ENDBRANCH  15  16
ENDBRANCH   7  15
ENDBRANCH   6   7
ENDBRANCH   2   6
TORSDOF 5
ENDMDL
MODEL       30
REMARK 921   NORMALIZED FREE ENERGY PREDICTED BY IDOCK:   -5.18 KCAL/MOL
REMARK 922        TOTAL FREE ENERGY PREDICTED BY IDOCK:   -7.50 KCAL/MOL
REMARK 923 INTER-LIGAND FREE ENERGY PREDICTED BY IDOCK:   -6.71 KCAL/MOL
REMARK 924 INTRA-LIGAND FREE ENERGY PREDICTED BY IDOCK:   -0.79 KCAL/MOL
REMARK 927      BINDING AFFINITY PREDICTED BY RF-SCORE:    0.00 PKD
ROOT
HETATM    1  N   UNL     1      -9.666  16.174  65.745  1.00  0.00    -0.324 N  
HETATM    2  C   UNL     1     -10.792  16.194  65.003  1.00  0.00    -0.363 C  
HETATM    3  H1  UNL     1      -9.322  15.360  66.255  1.00  0.00     0.000 HD 
HETATM    4  H2  UNL     1      -9.120  17.034  65.801  1.00  0.00     0.000 HD 
HETATM    5  O   UNL     1     -11.203  17.166  64.394  1.00  0.00    -1.143 OA 
ENDROOT
BRANCH   2   6
HETATM    6  O   UNL     1     -11.362  14.975  65.029  1.00  0.00    -0.370 OA 
BRANCH   6   7
HETATM    7  C   UNL     1     -10.931  14.025  66.040  1.00  0.00    -0.298 C  
BRANCH   7   8
HETATM    8  C   UNL     1     -10.497  12.741  65.316  1.00  0.00    -0.312 A  
HETATM    9  C   UNL     1      -9.711  10.427  63.867  1.00  0.00    -0.367 A  
HETATM   10  C   UNL     1     -10.851  12.548  63.961  1.00  0.00    -0.446 A  
HETATM   11  C   UNL     1      -9.702  11.742  65.912  1.00  0.00    -0.237 A  
HETATM   12  C   UNL     1     -10.461  11.415  63.245  1.00  0.00    -0.397 A  
HETATM   13  C   UNL     1      -9.334  10.591  65.198  1.00  0.00    -0.262 A  
HETATM   14 CL   UNL     1      -9.068  11.879  67.513  1.00  0.00    -0.173 Cl 
ENDBRANCH   7   8
BRANCH   7  15
HETATM   15  C   UNL     1     -12.012  13.853  67.120  1.00  0.00    -0.420 C  
BRANCH  15  16
HETATM   16  N   UNL     1     -11.667  14.466  68.383  1.00  0.00    -0.319 NA 
HETATM   17  N   UNL     1     -11.200  15.728  68.460  1.00  0.00    -0.335 NA 
HETATM   18  N   UNL     1     -11.713  14.822  70.469  1.00  0.00    -0.280 NA 
HETATM   19  C   UNL     1     -11.238  15.900  69.785  1.00  0.00    -0.339 A  
HETATM   20  N   UNL     1     -12.002  13.902  69.558  1.00  0.00    -0.325 NA 
ENDBRANCH  15  16
ENDBRANCH   7  15
ENDBRANCH   6   7
ENDBRANCH   2   6
TORSDOF 5
ENDMDL
MODEL       31
REMARK 921   NORMALIZED FREE ENERGY PREDICTED BY IDOCK:   -5.17 KCAL/MOL
REMARK 922        TOTAL FREE ENERGY PREDICTED BY IDOCK:   -7.49 KCAL/MOL
REMARK 923 INTER-LIGAND FREE ENERGY PREDICTED BY IDOCK:   -6.38 KCAL/MOL
REMARK 924 INTRA-LIGAND FREE ENERGY PREDICTED BY IDOCK:   -1.11 KCAL/MOL
REMARK 927      BINDING AFFINITY PREDICTED BY RF-SCORE:    0.00 PKD
ROOT
HETATM    1  N   UNL     1     -12.320  14.602  68.345  1.00  0.00    -0.606 N  
HETATM    2  C   UNL     1     -11.785  15.723  68.872  1.00  0.00    -0.394 C  
HETATM    3  H1  UNL     1     -12.402  14.414  67.346  1.00  0.00     0.000 HD 
HETATM    4  H2  UNL     1     -12.667  13.894  68.991  1.00  0.00     0.000 HD 
HETATM    5  O   UNL     1     -11.688  15.949  70.066  1.00  0.00    -0.338 OA 
ENDROOT
BRANCH   2   6
HETATM    6  O   UNL     1     -11.365  16.525  67.876  1.00  0.00    -0.218 OA 
BRANCH   6   7
HETATM    7  C   UNL     1     -10.081  16.250  67.253  1.00  0.00    -0.264 C  
BRANCH   7   8
HETATM    8  C   UNL     1      -9.145  17.424  67.582  1.00  0.00    -0.234 A  
HETATM    9  C   UNL     1      -7.324  19.509  68.217  1.00  0.00    -0.346 A  
HETATM   10  C   UNL     1      -8.009  17.205  68.394  1.00  0.00    -0.250 A  
HETATM   11  C   UNL     1      -9.318  18.724  67.070  1.00  0.00    -0.297 A  
HETATM   12  C   UNL     1      -7.109  18.228  68.702  1.00  0.00    -0.285 A  
HETATM   13  C   UNL     1      -8.427  19.756  67.404  1.00  0.00    -0.360 A  
HETATM   14 CL   UNL     1     -10.574  19.135  65.956  1.00  0.00    -0.542 Cl 
ENDBRANCH   7   8
BRANCH   7  15
HETATM   15  C   UNL     1     -10.260  15.932  65.760  1.00  0.00    -0.365 C  
BRANCH  15  16
HETATM   16  N   UNL     1     -11.006  14.719  65.515  1.00  0.00    -0.329 NA 
HETATM   17  N   UNL     1     -10.544  13.508  65.883  1.00  0.00    -0.280 NA 
HETATM   18  N   UNL     1     -12.698  13.489  65.193  1.00  0.00    -0.682 NA 
HETATM   19  C   UNL     1     -11.635  12.772  65.653  1.00  0.00    -0.370 A  
HETATM   20  N   UNL     1     -12.293  14.749  65.118  1.00  0.00    -0.226 NA 
ENDBRANCH  15  16
ENDBRANCH   7  15
ENDBRANCH   6   7
ENDBRANCH   2   6
TORSDOF 5
ENDMDL
MODEL       32
REMARK 921   NORMALIZED FREE ENERGY PREDICTED BY IDOCK:   -5.17 KCAL/MOL
REMARK 922        TOTAL FREE ENERGY PREDICTED BY IDOCK:   -7.49 KCAL/MOL
REMARK 923 INTER-LIGAND FREE ENERGY PREDICTED BY IDOCK:   -6.17 KCAL/MOL
REMARK 924 INTRA-LIGAND FREE ENERGY PREDICTED BY IDOCK:   -1.31 KCAL/MOL
REMARK 927      BINDING AFFINITY PREDICTED BY RF-SCORE:    0.00 PKD
ROOT
HETATM    1  N   UNL     1      -9.519  20.918  66.963  1.00  0.00    -0.690 N  
HETATM    2  C   UNL     1     -10.293  19.855  66.664  1.00  0.00    -0.485 C  
HETATM    3  H1  UNL     1      -9.015  21.039  67.841  1.00  0.00     0.000 HD 
HETATM    4  H2  UNL     1      -9.432  21.654  66.262  1.00  0.00     0.000 HD 
HETATM    5  O   UNL     1     -10.896  19.711  65.614  1.00  0.00    -0.473 OA 
ENDROOT
BRANCH   2   6
HETATM    6  O   UNL     1     -10.271  18.986  67.691  1.00  0.00    -0.353 OA 
BRANCH   6   7
HETATM    7  C   UNL     1      -9.444  17.796  67.579  1.00  0.00    -0.257 C  
BRANCH   7   8
HETATM    8  C   UNL     1     -10.329  16.583  67.909  1.00  0.00    -0.294 A  
HETATM    9  C   UNL     1     -11.998  14.400  68.626  1.00  0.00    -0.332 A  
HETATM   10  C   UNL     1     -10.714  16.342  69.247  1.00  0.00    -0.325 A  
HETATM   11  C   UNL     1     -10.841  15.706  66.933  1.00  0.00    -0.282 A  
HETATM   12  C   UNL     1     -11.539  15.273  69.602  1.00  0.00    -0.340 A  
HETATM   13  C   UNL     1     -11.648  14.615  67.296  1.00  0.00    -0.404 A  
HETATM   14 CL   UNL     1     -10.584  15.931  65.240  1.00  0.00    -0.436 Cl 
ENDBRANCH   7   8
BRANCH   7  15
HETATM   15  C   UNL     1      -8.166  17.942  68.420  1.00  0.00    -0.300 C  
BRANCH  15  16
HETATM   16  N   UNL     1      -7.258  18.947  67.916  1.00  0.00    -0.236 NA 
HETATM   17  N   UNL     1      -6.841  18.956  66.634  1.00  0.00    -0.193 NA 
HETATM   18  N   UNL     1      -6.280  20.820  67.787  1.00  0.00    -0.282 NA 
HETATM   19  C   UNL     1      -6.227  20.142  66.607  1.00  0.00    -0.185 A  
HETATM   20  N   UNL     1      -6.959  20.050  68.628  1.00  0.00    -0.306 NA 
ENDBRANCH  15  16
ENDBRANCH   7  15
ENDBRANCH   6   7
ENDBRANCH   2   6
TORSDOF 5
ENDMDL
MODEL       33
REMARK 921   NORMALIZED FREE ENERGY PREDICTED BY IDOCK:   -5.17 KCAL/MOL
REMARK 922        TOTAL FREE ENERGY PREDICTED BY IDOCK:   -7.48 KCAL/MOL
REMARK 923 INTER-LIGAND FREE ENERGY PREDICTED BY IDOCK:   -7.17 KCAL/MOL
REMARK 924 INTRA-LIGAND FREE ENERGY PREDICTED BY IDOCK:   -0.31 KCAL/MOL
REMARK 927      BINDING AFFINITY PREDICTED BY RF-SCORE:    0.00 PKD
ROOT
HETATM    1  N   UNL     1     -12.568  11.588  62.956  1.00  0.00    -0.904 N  
HETATM    2  C   UNL     1     -12.661  12.713  63.694  1.00  0.00    -0.337 C  
HETATM    3  H1  UNL     1     -12.579  10.643  63.338  1.00  0.00     0.000 HD 
HETATM    4  H2  UNL     1     -12.479  11.690  61.945  1.00  0.00     0.000 HD 
HETATM    5  O   UNL     1     -12.646  13.844  63.237  1.00  0.00    -0.824 OA 
ENDROOT
BRANCH   2   6
HETATM    6  O   UNL     1     -12.792  12.384  64.992  1.00  0.00    -0.673 OA 
BRANCH   6   7
HETATM    7  C   UNL     1     -11.617  11.936  65.720  1.00  0.00    -0.215 C  
BRANCH   7   8
HETATM    8  C   UNL     1     -11.753  12.429  67.169  1.00  0.00    -0.415 A  
HETATM    9  C   UNL     1     -11.956  13.230  69.887  1.00  0.00    -0.400 A  
HETATM   10  C   UNL     1     -11.774  11.492  68.227  1.00  0.00    -0.371 A  
HETATM   11  C   UNL     1     -11.803  13.791  67.526  1.00  0.00    -0.387 A  
HETATM   12  C   UNL     1     -11.868  11.884  69.565  1.00  0.00    -0.395 A  
HETATM   13  C   UNL     1     -11.925  14.180  68.869  1.00  0.00    -0.376 A  
HETATM   14 CL   UNL     1     -11.653  15.069  66.374  1.00  0.00    -0.241 Cl 
ENDBRANCH   7   8
BRANCH   7  15
HETATM   15  C   UNL     1     -10.332  12.355  64.987  1.00  0.00    -0.293 C  
BRANCH  15  16
HETATM   16  N   UNL     1      -9.783  11.313  64.149  1.00  0.00    -0.250 NA 
HETATM   17  N   UNL     1      -9.415  11.542  62.872  1.00  0.00    -0.365 NA 
HETATM   18  N   UNL     1      -8.771   9.520  63.657  1.00  0.00    -0.219 NA 
HETATM   19  C   UNL     1      -8.796  10.388  62.607  1.00  0.00    -0.246 A  
HETATM   20  N   UNL     1      -9.398  10.127  64.656  1.00  0.00    -0.254 NA 
ENDBRANCH  15  16
ENDBRANCH   7  15
ENDBRANCH   6   7
ENDBRANCH   2   6
TORSDOF 5
ENDMDL
MODEL       34
REMARK 921   NORMALIZED FREE ENERGY PREDICTED BY IDOCK:   -5.15 KCAL/MOL
REMARK 922        TOTAL FREE ENERGY PREDICTED BY IDOCK:   -7.46 KCAL/MOL
REMARK 923 INTER-LIGAND FREE ENERGY PREDICTED BY IDOCK:   -6.95 KCAL/MOL
REMARK 924 INTRA-LIGAND FREE ENERGY PREDICTED BY IDOCK:   -0.51 KCAL/MOL
REMARK 927      BINDING AFFINITY PREDICTED BY RF-SCORE:    0.00 PKD
ROOT
HETATM    1  N   UNL     1     -11.853  16.175  69.890  1.00  0.00    -0.335 N  
HETATM    2  C   UNL     1     -11.611  15.379  68.829  1.00  0.00    -0.368 C  
HETATM    3  H1  UNL     1     -11.752  17.190  69.888  1.00  0.00     0.000 HD 
HETATM    4  H2  UNL     1     -12.158  15.731  70.756  1.00  0.00     0.000 HD 
HETATM    5  O   UNL     1     -11.732  14.166  68.831  1.00  0.00    -0.292 OA 
ENDROOT
BRANCH   2   6
HETATM    6  O   UNL     1     -11.243  16.138  67.780  1.00  0.00    -0.299 OA 
BRANCH   6   7
HETATM    7  C   UNL     1      -9.826  16.301  67.500  1.00  0.00    -0.238 C  
BRANCH   7   8
HETATM    8  C   UNL     1      -9.535  17.809  67.444  1.00  0.00    -0.254 A  
HETATM    9  C   UNL     1      -9.120  20.617  67.346  1.00  0.00    -0.392 A  
HETATM   10  C   UNL     1     -10.555  18.704  67.050  1.00  0.00    -0.448 A  
HETATM   11  C   UNL     1      -8.302  18.377  67.821  1.00  0.00    -0.262 A  
HETATM   12  C   UNL     1     -10.355  20.085  67.007  1.00  0.00    -0.555 A  
HETATM   13  C   UNL     1      -8.096  19.764  67.751  1.00  0.00    -0.332 A  
HETATM   14 CL   UNL     1      -6.994  17.445  68.455  1.00  0.00    -0.205 Cl 
ENDBRANCH   7   8
BRANCH   7  15
HETATM   15  C   UNL     1      -9.421  15.492  66.257  1.00  0.00    -0.323 C  
BRANCH  15  16
HETATM   16  N   UNL     1     -10.470  15.398  65.266  1.00  0.00    -0.398 NA 
HETATM   17  N   UNL     1     -11.272  14.319  65.175  1.00  0.00    -0.328 NA 
HETATM   18  N   UNL     1     -11.942  16.063  63.899  1.00  0.00    -0.814 NA 
HETATM   19  C   UNL     1     -12.171  14.782  64.301  1.00  0.00    -0.379 A  
HETATM   20  N   UNL     1     -10.850  16.463  64.536  1.00  0.00    -0.731 NA 
ENDBRANCH  15  16
ENDBRANCH   7  15
ENDBRANCH   6   7
ENDBRANCH   2   6
TORSDOF 5
ENDMDL
MODEL       35
REMARK 921   NORMALIZED FREE ENERGY PREDICTED BY IDOCK:   -5.15 KCAL/MOL
REMARK 922        TOTAL FREE ENERGY PREDICTED BY IDOCK:   -7.46 KCAL/MOL
REMARK 923 INTER-LIGAND FREE ENERGY PREDICTED BY IDOCK:   -7.10 KCAL/MOL
REMARK 924 INTRA-LIGAND FREE ENERGY PREDICTED BY IDOCK:   -0.36 KCAL/MOL
REMARK 927      BINDING AFFINITY PREDICTED BY RF-SCORE:    0.00 PKD
ROOT
HETATM    1  N   UNL     1     -12.340  14.224  63.655  1.00  0.00    -1.109 N  
HETATM    2  C   UNL     1     -12.721  13.509  64.733  1.00  0.00    -0.230 C  
HETATM    3  H1  UNL     1     -11.842  15.113  63.696  1.00  0.00     0.000 HD 
HETATM    4  H2  UNL     1     -12.567  13.850  62.733  1.00  0.00     0.000 HD 
HETATM    5  O   UNL     1     -13.317  12.447  64.684  1.00  0.00    -0.778 OA 
ENDROOT
BRANCH   2   6
HETATM    6  O   UNL     1     -12.320  14.143  65.850  1.00  0.00    -0.448 OA 
BRANCH   6   7
HETATM    7  C   UNL     1     -11.510  13.415  66.813  1.00  0.00    -0.343 C  
BRANCH   7   8
HETATM    8  C   UNL     1     -11.665  14.113  68.173  1.00  0.00    -0.390 A  
HETATM    9  C   UNL     1     -11.942  15.291  70.743  1.00  0.00    -0.384 A  
HETATM   10  C   UNL     1     -12.074  13.365  69.300  1.00  0.00    -0.312 A  
HETATM   11  C   UNL     1     -11.366  15.473  68.388  1.00  0.00    -0.354 A  
HETATM   12  C   UNL     1     -12.205  13.940  70.566  1.00  0.00    -0.443 A  
HETATM   13  C   UNL     1     -11.526  16.055  69.655  1.00  0.00    -0.326 A  
HETATM   14 CL   UNL     1     -10.727  16.499  67.155  1.00  0.00    -0.270 Cl 
ENDBRANCH   7   8
BRANCH   7  15
HETATM   15  C   UNL     1     -10.069  13.257  66.300  1.00  0.00    -0.294 C  
BRANCH  15  16
HETATM   16  N   UNL     1      -9.945  12.313  65.213  1.00  0.00    -0.255 NA 
HETATM   17  N   UNL     1     -10.202  11.000  65.374  1.00  0.00    -0.262 NA 
HETATM   18  N   UNL     1      -9.918  11.614  63.215  1.00  0.00    -0.410 NA 
HETATM   19  C   UNL     1     -10.164  10.606  64.098  1.00  0.00    -0.295 A  
HETATM   20  N   UNL     1      -9.791  12.718  63.938  1.00  0.00    -0.198 NA 
ENDBRANCH  15  16
ENDBRANCH   7  15
ENDBRANCH   6   7
ENDBRANCH   2   6
TORSDOF 5
ENDMDL
MODEL       36
REMARK 921   NORMALIZED FREE ENERGY PREDICTED BY IDOCK:   -5.15 KCAL/MOL
REMARK 922        TOTAL FREE ENERGY PREDICTED BY IDOCK:   -7.46 KCAL/MOL
REMARK 923 INTER-LIGAND FREE ENERGY PREDICTED BY IDOCK:   -6.80 KCAL/MOL
REMARK 924 INTRA-LIGAND FREE ENERGY PREDICTED BY IDOCK:   -0.65 KCAL/MOL
REMARK 927      BINDING AFFINITY PREDICTED BY RF-SCORE:    0.00 PKD
ROOT
HETATM    1  N   UNL     1     -10.479  14.084  69.186  1.00  0.00    -0.402 N  
HETATM    2  C   UNL     1     -11.597  13.653  68.566  1.00  0.00    -0.335 C  
HETATM    3  H1  UNL     1     -10.051  13.628  69.991  1.00  0.00     0.000 HD 
HETATM    4  H2  UNL     1     -10.032  14.926  68.824  1.00  0.00     0.000 HD 
HETATM    5  O   UNL     1     -12.110  14.198  67.604  1.00  0.00    -0.378 OA 
ENDROOT
BRANCH   2   6
HETATM    6  O   UNL     1     -12.030  12.527  69.164  1.00  0.00    -0.287 OA 
BRANCH   6   7
HETATM    7  C   UNL     1     -12.135  12.503  70.613  1.00  0.00    -0.221 C  
BRANCH   7   8
HETATM    8  C   UNL     1     -12.179  11.031  71.051  1.00  0.00    -0.456 A  
HETATM    9  C   UNL     1     -12.383   8.322  71.880  1.00  0.00    -0.379 A  
HETATM   10  C   UNL     1     -13.254  10.569  71.844  1.00  0.00    -0.526 A  
HETATM   11  C   UNL     1     -11.222  10.074  70.659  1.00  0.00    -0.350 A  
HETATM   12  C   UNL     1     -13.360   9.236  72.247  1.00  0.00    -0.547 A  
HETATM   13  C   UNL     1     -11.317   8.741  71.089  1.00  0.00    -0.345 A  
HETATM   14 CL   UNL     1      -9.920  10.435  69.583  1.00  0.00    -0.240 Cl 
ENDBRANCH   7   8
BRANCH   7  15
HETATM   15  C   UNL     1     -13.307  13.379  71.087  1.00  0.00    -0.026 C  
BRANCH  15  16
HETATM   16  N   UNL     1     -12.917  14.397  72.035  1.00  0.00    -0.335 NA 
HETATM   17  N   UNL     1     -11.776  15.102  71.900  1.00  0.00    -0.396 NA 
HETATM   18  N   UNL     1     -13.151  15.898  73.510  1.00  0.00    -0.572 NA 
HETATM   19  C   UNL     1     -11.966  16.021  72.850  1.00  0.00    -0.506 A  
HETATM   20  N   UNL     1     -13.769  14.855  72.972  1.00  0.00    -0.501 NA 
ENDBRANCH  15  16
ENDBRANCH   7  15
ENDBRANCH   6   7
ENDBRANCH   2   6
TORSDOF 5
ENDMDL
MODEL       37
REMARK 921   NORMALIZED FREE ENERGY PREDICTED BY IDOCK:   -5.12 KCAL/MOL
REMARK 922        TOTAL FREE ENERGY PREDICTED BY IDOCK:   -7.43 KCAL/MOL
REMARK 923 INTER-LIGAND FREE ENERGY PREDICTED BY IDOCK:   -6.45 KCAL/MOL
REMARK 924 INTRA-LIGAND FREE ENERGY PREDICTED BY IDOCK:   -0.98 KCAL/MOL
REMARK 927      BINDING AFFINITY PREDICTED BY RF-SCORE:    0.00 PKD
ROOT
HETATM    1  N   UNL     1      -8.195  16.609  69.012  1.00  0.00    -0.224 N  
HETATM    2  C   UNL     1      -8.262  15.300  69.328  1.00  0.00    -0.244 C  
HETATM    3  H1  UNL     1      -8.991  17.177  68.725  1.00  0.00     0.000 HD 
HETATM    4  H2  UNL     1      -7.282  17.063  69.061  1.00  0.00     0.000 HD 
HETATM    5  O   UNL     1      -7.310  14.620  69.670  1.00  0.00    -0.143 OA 
ENDROOT
BRANCH   2   6
HETATM    6  O   UNL     1      -9.538  14.883  69.226  1.00  0.00    -0.195 OA 
BRANCH   6   7
HETATM    7  C   UNL     1     -10.605  15.840  69.466  1.00  0.00    -0.272 C  
BRANCH   7   8
HETATM    8  C   UNL     1     -11.487  15.280  70.593  1.00  0.00    -0.353 A  
HETATM    9  C   UNL     1     -13.137  14.362  72.715  1.00  0.00    -0.595 A  
HETATM   10  C   UNL     1     -11.740  16.067  71.739  1.00  0.00    -0.593 A  
HETATM   11  C   UNL     1     -12.121  14.023  70.532  1.00  0.00    -0.353 A  
HETATM   12  C   UNL     1     -12.556  15.620  72.781  1.00  0.00    -0.536 A  
HETATM   13  C   UNL     1     -12.918  13.566  71.594  1.00  0.00    -0.447 A  
HETATM   14 CL   UNL     1     -12.030  12.991  69.150  1.00  0.00    -0.341 Cl 
ENDBRANCH   7   8
BRANCH   7  15
HETATM   15  C   UNL     1     -11.331  16.184  68.154  1.00  0.00    -0.270 C  
BRANCH  15  16
HETATM   16  N   UNL     1     -10.634  17.163  67.351  1.00  0.00    -0.326 NA 
HETATM   17  N   UNL     1     -10.551  18.458  67.716  1.00  0.00    -0.411 NA 
HETATM   18  N   UNL     1      -9.227  17.919  65.963  1.00  0.00    -0.525 NA 
HETATM   19  C   UNL     1      -9.667  18.889  66.812  1.00  0.00    -0.327 A  
HETATM   20  N   UNL     1      -9.843  16.802  66.323  1.00  0.00    -0.294 NA 
ENDBRANCH  15  16
ENDBRANCH   7  15
ENDBRANCH   6   7
ENDBRANCH   2   6
TORSDOF 5
ENDMDL
MODEL       38
REMARK 921   NORMALIZED FREE ENERGY PREDICTED BY IDOCK:   -5.12 KCAL/MOL
REMARK 922        TOTAL FREE ENERGY PREDICTED BY IDOCK:   -7.42 KCAL/MOL
REMARK 923 INTER-LIGAND FREE ENERGY PREDICTED BY IDOCK:   -6.20 KCAL/MOL
REMARK 924 INTRA-LIGAND FREE ENERGY PREDICTED BY IDOCK:   -1.22 KCAL/MOL
REMARK 927      BINDING AFFINITY PREDICTED BY RF-SCORE:    0.00 PKD
ROOT
HETATM    1  N   UNL     1      -8.962  12.479  68.653  1.00  0.00    -0.388 N  
HETATM    2  C   UNL     1      -8.598  13.684  68.167  1.00  0.00    -0.176 C  
HETATM    3  H1  UNL     1      -9.765  12.319  69.260  1.00  0.00     0.000 HD 
HETATM    4  H2  UNL     1      -8.393  11.673  68.395  1.00  0.00     0.000 HD 
HETATM    5  O   UNL     1      -7.638  13.876  67.441  1.00  0.00    -0.176 OA 
ENDROOT
BRANCH   2   6
HETATM    6  O   UNL     1      -9.470  14.616  68.592  1.00  0.00    -0.204 OA 
BRANCH   6   7
HETATM    7  C   UNL     1     -10.540  15.029  67.699  1.00  0.00    -0.267 C  
BRANCH   7   8
HETATM    8  C   UNL     1     -10.414  16.547  67.494  1.00  0.00    -0.310 A  
HETATM    9  C   UNL     1     -10.111  19.358  67.221  1.00  0.00    -0.497 A  
HETATM   10  C   UNL     1     -10.077  17.375  68.589  1.00  0.00    -0.355 A  
HETATM   11  C   UNL     1     -10.562  17.178  66.244  1.00  0.00    -0.185 A  
HETATM   12  C   UNL     1      -9.921  18.756  68.456  1.00  0.00    -0.450 A  
HETATM   13  C   UNL     1     -10.432  18.571  66.118  1.00  0.00    -0.447 A  
HETATM   14 CL   UNL     1     -10.839  16.306  64.779  1.00  0.00    -0.368 Cl 
ENDBRANCH   7   8
BRANCH   7  15
HETATM   15  C   UNL     1     -11.900  14.533  68.216  1.00  0.00    -0.312 C  
BRANCH  15  16
HETATM   16  N   UNL     1     -11.877  13.160  68.667  1.00  0.00    -0.325 NA 
HETATM   17  N   UNL     1     -12.028  12.831  69.965  1.00  0.00    -0.335 NA 
HETATM   18  N   UNL     1     -12.096  11.057  68.563  1.00  0.00    -0.565 NA 
HETATM   19  C   UNL     1     -12.150  11.506  69.848  1.00  0.00    -0.316 A  
HETATM   20  N   UNL     1     -11.933  12.130  67.801  1.00  0.00    -0.524 NA 
ENDBRANCH  15  16
ENDBRANCH   7  15
ENDBRANCH   6   7
ENDBRANCH   2   6
TORSDOF 5
ENDMDL
MODEL       39
REMARK 921   NORMALIZED FREE ENERGY PREDICTED BY IDOCK:   -5.12 KCAL/MOL
REMARK 922        TOTAL FREE ENERGY PREDICTED BY IDOCK:   -7.42 KCAL/MOL
REMARK 923 INTER-LIGAND FREE ENERGY PREDICTED BY IDOCK:   -6.80 KCAL/MOL
REMARK 924 INTRA-LIGAND FREE ENERGY PREDICTED BY IDOCK:   -0.61 KCAL/MOL
REMARK 927      BINDING AFFINITY PREDICTED BY RF-SCORE:    0.00 PKD
ROOT
HETATM    1  N   UNL     1     -12.369  14.467  63.637  1.00  0.00    -1.104 N  
HETATM    2  C   UNL     1     -11.773  15.456  64.335  1.00  0.00    -0.258 C  
HETATM    3  H1  UNL     1     -12.529  13.525  63.991  1.00  0.00     0.000 HD 
HETATM    4  H2  UNL     1     -12.680  14.677  62.689  1.00  0.00     0.000 HD 
HETATM    5  O   UNL     1     -11.580  16.583  63.911  1.00  0.00    -1.175 OA 
ENDROOT
BRANCH   2   6
HETATM    6  O   UNL     1     -11.452  15.004  65.561  1.00  0.00    -0.336 OA 
BRANCH   6   7
HETATM    7  C   UNL     1     -10.363  15.646  66.278  1.00  0.00    -0.306 C  
BRANCH   7   8
HETATM    8  C   UNL     1      -9.483  14.537  66.876  1.00  0.00    -0.263 A  
HETATM    9  C   UNL     1      -7.937  12.403  67.937  1.00  0.00    -0.155 A  
HETATM   10  C   UNL     1     -10.039  13.262  67.127  1.00  0.00    -0.239 A  
HETATM   11  C   UNL     1      -8.109  14.696  67.146  1.00  0.00    -0.185 A  
HETATM   12  C   UNL     1      -9.279  12.210  67.642  1.00  0.00    -0.181 A  
HETATM   13  C   UNL     1      -7.355  13.644  67.691  1.00  0.00    -0.185 A  
HETATM   14 CL   UNL     1      -7.240  16.141  66.774  1.00  0.00    -0.232 Cl 
ENDBRANCH   7   8
BRANCH   7  15
HETATM   15  C   UNL     1     -10.908  16.682  67.276  1.00  0.00    -0.158 C  
BRANCH  15  16
HETATM   16  N   UNL     1     -10.400  18.017  67.054  1.00  0.00    -0.361 NA 
HETATM   17  N   UNL     1      -9.742  18.352  65.927  1.00  0.00    -0.494 NA 
HETATM   18  N   UNL     1     -10.272  20.122  67.233  1.00  0.00    -0.415 NA 
HETATM   19  C   UNL     1      -9.677  19.677  66.091  1.00  0.00    -0.406 A  
HETATM   20  N   UNL     1     -10.751  19.048  67.846  1.00  0.00    -0.350 NA 
ENDBRANCH  15  16
ENDBRANCH   7  15
ENDBRANCH   6   7
ENDBRANCH   2   6
TORSDOF 5
ENDMDL
MODEL       40
REMARK 921   NORMALIZED FREE ENERGY PREDICTED BY IDOCK:   -5.10 KCAL/MOL
REMARK 922        TOTAL FREE ENERGY PREDICTED BY IDOCK:   -7.39 KCAL/MOL
REMARK 923 INTER-LIGAND FREE ENERGY PREDICTED BY IDOCK:   -6.14 KCAL/MOL
REMARK 924 INTRA-LIGAND FREE ENERGY PREDICTED BY IDOCK:   -1.25 KCAL/MOL
REMARK 927      BINDING AFFINITY PREDICTED BY RF-SCORE:    0.00 PKD
ROOT
HETATM    1  N   UNL     1     -13.533   9.592  72.403  1.00  0.00    -0.619 N  
HETATM    2  C   UNL     1     -13.472  10.776  71.761  1.00  0.00    -0.203 C  
HETATM    3  H1  UNL     1     -13.318   8.691  71.977  1.00  0.00     0.000 HD 
HETATM    4  H2  UNL     1     -13.814   9.598  73.384  1.00  0.00     0.000 HD 
HETATM    5  O   UNL     1     -13.729  11.854  72.270  1.00  0.00    -0.260 OA 
ENDROOT
BRANCH   2   6
HETATM    6  O   UNL     1     -13.066  10.575  70.494  1.00  0.00    -0.322 OA 
BRANCH   6   7
HETATM    7  C   UNL     1     -11.686  10.875  70.148  1.00  0.00    -0.347 C  
BRANCH   7   8
HETATM    8  C   UNL     1     -11.708  11.919  69.020  1.00  0.00    -0.391 A  
HETATM    9  C   UNL     1     -11.791  13.760  66.858  1.00  0.00    -0.447 A  
HETATM   10  C   UNL     1     -11.705  11.493  67.673  1.00  0.00    -0.283 A  
HETATM   11  C   UNL     1     -11.789  13.307  69.247  1.00  0.00    -0.331 A  
HETATM   12  C   UNL     1     -11.751  12.396  66.608  1.00  0.00    -0.438 A  
HETATM   13  C   UNL     1     -11.808  14.213  68.175  1.00  0.00    -0.387 A  
HETATM   14 CL   UNL     1     -11.938  13.993  70.825  1.00  0.00    -0.388 Cl 
ENDBRANCH   7   8
BRANCH   7  15
HETATM   15  C   UNL     1     -10.908   9.583  69.851  1.00  0.00    -0.246 C  
BRANCH  15  16
HETATM   16  N   UNL     1     -10.914   8.643  70.949  1.00  0.00    -0.244 NA 
HETATM   17  N   UNL     1     -10.268   8.891  72.106  1.00  0.00    -0.297 NA 
HETATM   18  N   UNL     1     -11.617   7.077  72.187  1.00  0.00    -0.275 NA 
HETATM   19  C   UNL     1     -10.734   7.879  72.844  1.00  0.00    -0.375 A  
HETATM   20  N   UNL     1     -11.742   7.582  70.967  1.00  0.00    -0.289 NA 
ENDBRANCH  15  16
ENDBRANCH   7  15
ENDBRANCH   6   7
ENDBRANCH   2   6
TORSDOF 5
ENDMDL
MODEL       41
REMARK 921   NORMALIZED FREE ENERGY PREDICTED BY IDOCK:   -5.08 KCAL/MOL
REMARK 922        TOTAL FREE ENERGY PREDICTED BY IDOCK:   -7.37 KCAL/MOL
REMARK 923 INTER-LIGAND FREE ENERGY PREDICTED BY IDOCK:   -6.77 KCAL/MOL
REMARK 924 INTRA-LIGAND FREE ENERGY PREDICTED BY IDOCK:   -0.60 KCAL/MOL
REMARK 927      BINDING AFFINITY PREDICTED BY RF-SCORE:    0.00 PKD
ROOT
HETATM    1  N   UNL     1     -11.285  11.615  69.861  1.00  0.00    -0.486 N  
HETATM    2  C   UNL     1     -11.736  11.730  68.595  1.00  0.00    -0.330 C  
HETATM    3  H1  UNL     1     -11.250  12.380  70.534  1.00  0.00     0.000 HD 
HETATM    4  H2  UNL     1     -10.954  10.700  70.165  1.00  0.00     0.000 HD 
HETATM    5  O   UNL     1     -11.778  10.817  67.789  1.00  0.00    -0.547 OA 
ENDROOT
BRANCH   2   6
HETATM    6  O   UNL     1     -12.147  12.994  68.383  1.00  0.00    -0.305 OA 
BRANCH   6   7
HETATM    7  C   UNL     1     -11.564  13.740  67.279  1.00  0.00    -0.361 C  
BRANCH   7   8
HETATM    8  C   UNL     1     -11.115  15.104  67.827  1.00  0.00    -0.313 A  
HETATM    9  C   UNL     1     -10.296  17.579  68.956  1.00  0.00    -0.303 A  
HETATM   10  C   UNL     1     -11.424  15.458  69.160  1.00  0.00    -0.344 A  
HETATM   11  C   UNL     1     -10.348  16.025  67.087  1.00  0.00    -0.295 A  
HETATM   12  C   UNL     1     -11.017  16.672  69.719  1.00  0.00    -0.208 A  
HETATM   13  C   UNL     1      -9.965  17.256  67.643  1.00  0.00    -0.297 A  
HETATM   14 CL   UNL     1      -9.768  15.697  65.493  1.00  0.00    -0.336 Cl 
ENDBRANCH   7   8
BRANCH   7  15
HETATM   15  C   UNL     1     -12.530  13.783  66.083  1.00  0.00    -0.418 C  
BRANCH  15  16
HETATM   16  N   UNL     1     -12.092  12.982  64.962  1.00  0.00    -0.399 NA 
HETATM   17  N   UNL     1     -10.808  12.601  64.815  1.00  0.00    -0.289 NA 
HETATM   18  N   UNL     1     -12.229  11.592  63.372  1.00  0.00    -0.355 NA 
HETATM   19  C   UNL     1     -10.945  11.740  63.802  1.00  0.00    -0.429 A  
HETATM   20  N   UNL     1     -12.970  12.387  64.133  1.00  0.00    -0.753 NA 
ENDBRANCH  15  16
ENDBRANCH   7  15
ENDBRANCH   6   7
ENDBRANCH   2   6
TORSDOF 5
ENDMDL
MODEL       42
REMARK 921   NORMALIZED FREE ENERGY PREDICTED BY IDOCK:   -5.07 KCAL/MOL
REMARK 922        TOTAL FREE ENERGY PREDICTED BY IDOCK:   -7.35 KCAL/MOL
REMARK 923 INTER-LIGAND FREE ENERGY PREDICTED BY IDOCK:   -6.81 KCAL/MOL
REMARK 924 INTRA-LIGAND FREE ENERGY PREDICTED BY IDOCK:   -0.55 KCAL/MOL
REMARK 927      BINDING AFFINITY PREDICTED BY RF-SCORE:    0.00 PKD
ROOT
HETATM    1  N   UNL     1     -12.420  14.205  63.686  1.00  0.00    -1.071 N  
HETATM    2  C   UNL     1     -12.524  13.649  64.910  1.00  0.00    -0.384 C  
HETATM    3  H1  UNL     1     -12.130  15.166  63.510  1.00  0.00     0.000 HD 
HETATM    4  H2  UNL     1     -12.648  13.623  62.880  1.00  0.00     0.000 HD 
HETATM    5  O   UNL     1     -12.871  12.499  65.121  1.00  0.00    -0.685 OA 
ENDROOT
BRANCH   2   6
HETATM    6  O   UNL     1     -12.166  14.552  65.841  1.00  0.00    -0.349 OA 
BRANCH   6   7
HETATM    7  C   UNL     1     -11.007  14.274  66.674  1.00  0.00    -0.310 C  
BRANCH   7   8
HETATM    8  C   UNL     1     -11.461  14.346  68.140  1.00  0.00    -0.337 A  
HETATM    9  C   UNL     1     -12.336  14.599  70.831  1.00  0.00    -0.406 A  
HETATM   10  C   UNL     1     -11.603  15.605  68.767  1.00  0.00    -0.393 A  
HETATM   11  C   UNL     1     -11.808  13.214  68.904  1.00  0.00    -0.320 A  
HETATM   12  C   UNL     1     -12.039  15.732  70.088  1.00  0.00    -0.355 A  
HETATM   13  C   UNL     1     -12.219  13.344  70.240  1.00  0.00    -0.405 A  
HETATM   14 CL   UNL     1     -11.823  11.613  68.255  1.00  0.00    -0.367 Cl 
ENDBRANCH   7   8
BRANCH   7  15
HETATM   15  C   UNL     1      -9.831  15.186  66.290  1.00  0.00    -0.295 C  
BRANCH  15  16
HETATM   16  N   UNL     1      -8.584  14.813  66.918  1.00  0.00    -0.235 NA 
HETATM   17  N   UNL     1      -8.318  13.542  67.279  1.00  0.00    -0.191 NA 
HETATM   18  N   UNL     1      -6.532  14.923  67.423  1.00  0.00    -0.311 NA 
HETATM   19  C   UNL     1      -7.026  13.665  67.595  1.00  0.00    -0.172 A  
HETATM   20  N   UNL     1      -7.538  15.659  66.972  1.00  0.00    -0.221 NA 
ENDBRANCH  15  16
ENDBRANCH   7  15
ENDBRANCH   6   7
ENDBRANCH   2   6
TORSDOF 5
ENDMDL
MODEL       43
REMARK 921   NORMALIZED FREE ENERGY PREDICTED BY IDOCK:   -5.06 KCAL/MOL
REMARK 922        TOTAL FREE ENERGY PREDICTED BY IDOCK:   -7.34 KCAL/MOL
REMARK 923 INTER-LIGAND FREE ENERGY PREDICTED BY IDOCK:   -6.73 KCAL/MOL
REMARK 924 INTRA-LIGAND FREE ENERGY PREDICTED BY IDOCK:   -0.61 KCAL/MOL
REMARK 927      BINDING AFFINITY PREDICTED BY RF-SCORE:    0.00 PKD
ROOT
HETATM    1  N   UNL     1     -12.526  14.306  63.347  1.00  0.00    -1.101 N  
HETATM    2  C   UNL     1     -12.224  13.423  64.320  1.00  0.00    -0.392 C  
HETATM    3  H1  UNL     1     -11.926  15.080  63.060  1.00  0.00     0.000 HD 
HETATM    4  H2  UNL     1     -13.417  14.194  62.864  1.00  0.00     0.000 HD 
HETATM    5  O   UNL     1     -12.942  12.499  64.664  1.00  0.00    -0.803 OA 
ENDROOT
BRANCH   2   6
HETATM    6  O   UNL     1     -11.011  13.715  64.824  1.00  0.00    -0.338 OA 
BRANCH   6   7
HETATM    7  C   UNL     1     -10.831  13.689  66.266  1.00  0.00    -0.282 C  
BRANCH   7   8
HETATM    8  C   UNL     1     -10.726  15.145  66.748  1.00  0.00    -0.311 A  
HETATM    9  C   UNL     1     -10.531  17.872  67.517  1.00  0.00    -0.398 A  
HETATM   10  C   UNL     1     -10.231  16.137  65.871  1.00  0.00    -0.381 A  
HETATM   11  C   UNL     1     -11.153  15.576  68.019  1.00  0.00    -0.322 A  
HETATM   12  C   UNL     1     -10.140  17.480  66.245  1.00  0.00    -0.341 A  
HETATM   13  C   UNL     1     -11.034  16.922  68.401  1.00  0.00    -0.296 A  
HETATM   14 CL   UNL     1     -11.906  14.524  69.163  1.00  0.00    -0.344 Cl 
ENDBRANCH   7   8
BRANCH   7  15
HETATM   15  C   UNL     1      -9.659  12.770  66.650  1.00  0.00    -0.255 C  
BRANCH  15  16
HETATM   16  N   UNL     1      -9.858  11.392  66.261  1.00  0.00    -0.212 NA 
HETATM   17  N   UNL     1      -9.210  10.844  65.214  1.00  0.00    -0.206 NA 
HETATM   18  N   UNL     1     -10.331   9.340  66.480  1.00  0.00    -0.238 NA 
HETATM   19  C   UNL     1      -9.545   9.562  65.389  1.00  0.00    -0.272 A  
HETATM   20  N   UNL     1     -10.520  10.523  67.049  1.00  0.00    -0.237 NA 
ENDBRANCH  15  16
ENDBRANCH   7  15
ENDBRANCH   6   7
ENDBRANCH   2   6
TORSDOF 5
ENDMDL
MODEL       44
REMARK 921   NORMALIZED FREE ENERGY PREDICTED BY IDOCK:   -5.05 KCAL/MOL
REMARK 922        TOTAL FREE ENERGY PREDICTED BY IDOCK:   -7.33 KCAL/MOL
REMARK 923 INTER-LIGAND FREE ENERGY PREDICTED BY IDOCK:   -6.01 KCAL/MOL
REMARK 924 INTRA-LIGAND FREE ENERGY PREDICTED BY IDOCK:   -1.32 KCAL/MOL
REMARK 927      BINDING AFFINITY PREDICTED BY RF-SCORE:    0.00 PKD
ROOT
HETATM    1  N   UNL     1     -10.831  12.192  63.008  1.00  0.00    -0.610 N  
HETATM    2  C   UNL     1     -10.047  11.239  63.553  1.00  0.00    -0.396 C  
HETATM    3  H1  UNL     1     -11.732  12.485  63.384  1.00  0.00     0.000 HD 
HETATM    4  H2  UNL     1     -10.499  12.651  62.160  1.00  0.00     0.000 HD 
HETATM    5  O   UNL     1      -8.969  10.888  63.104  1.00  0.00    -0.210 OA 
ENDROOT
BRANCH   2   6
HETATM    6  O   UNL     1     -10.633  10.766  64.668  1.00  0.00    -0.328 OA 
BRANCH   6   7
HETATM    7  C   UNL     1     -10.328  11.400  65.940  1.00  0.00    -0.250 C  
BRANCH   7   8
HETATM    8  C   UNL     1      -9.821  10.307  66.894  1.00  0.00    -0.244 A  
HETATM    9  C   UNL     1      -8.911   8.202  68.569  1.00  0.00    -0.134 A  
HETATM   10  C   UNL     1     -10.230   8.968  66.703  1.00  0.00    -0.333 A  
HETATM   11  C   UNL     1      -8.908  10.550  67.939  1.00  0.00    -0.133 A  
HETATM   12  C   UNL     1      -9.779   7.930  67.522  1.00  0.00    -0.204 A  
HETATM   13  C   UNL     1      -8.479   9.509  68.778  1.00  0.00    -0.122 A  
HETATM   14 CL   UNL     1      -8.202  12.099  68.229  1.00  0.00    -0.164 Cl 
ENDBRANCH   7   8
BRANCH   7  15
HETATM   15  C   UNL     1     -11.528  12.222  66.438  1.00  0.00    -0.378 C  
BRANCH  15  16
HETATM   16  N   UNL     1     -11.747  13.435  65.684  1.00  0.00    -0.332 NA 
HETATM   17  N   UNL     1     -10.806  14.395  65.585  1.00  0.00    -0.304 NA 
HETATM   18  N   UNL     1     -12.568  14.701  64.199  1.00  0.00    -0.790 NA 
HETATM   19  C   UNL     1     -11.371  15.167  64.652  1.00  0.00    -0.356 A  
HETATM   20  N   UNL     1     -12.801  13.574  64.858  1.00  0.00    -0.718 NA 
ENDBRANCH  15  16
ENDBRANCH   7  15
ENDBRANCH   6   7
ENDBRANCH   2   6
TORSDOF 5
ENDMDL
MODEL       45
REMARK 921   NORMALIZED FREE ENERGY PREDICTED BY IDOCK:   -5.01 KCAL/MOL
REMARK 922        TOTAL FREE ENERGY PREDICTED BY IDOCK:   -7.28 KCAL/MOL
REMARK 923 INTER-LIGAND FREE ENERGY PREDICTED BY IDOCK:   -6.96 KCAL/MOL
REMARK 924 INTRA-LIGAND FREE ENERGY PREDICTED BY IDOCK:   -0.32 KCAL/MOL
REMARK 927      BINDING AFFINITY PREDICTED BY RF-SCORE:    0.00 PKD
ROOT
HETATM    1  N   UNL     1     -11.547  13.321  70.368  1.00  0.00    -0.527 N  
HETATM    2  C   UNL     1     -12.100  14.103  69.418  1.00  0.00    -0.328 C  
HETATM    3  H1  UNL     1     -11.108  12.418  70.190  1.00  0.00     0.000 HD 
HETATM    4  H2  UNL     1     -11.571  13.655  71.331  1.00  0.00     0.000 HD 
HETATM    5  O   UNL     1     -12.626  15.182  69.631  1.00  0.00    -0.188 OA 
ENDROOT
BRANCH   2   6
HETATM    6  O   UNL     1     -11.957  13.514  68.217  1.00  0.00    -0.356 OA 
BRANCH   6   7
HETATM    7  C   UNL     1     -11.595  14.337  67.075  1.00  0.00    -0.386 C  
BRANCH   7   8
HETATM    8  C   UNL     1     -11.506  13.415  65.848  1.00  0.00    -0.344 A  
HETATM    9  C   UNL     1     -11.392  11.804  63.512  1.00  0.00    -0.496 A  
HETATM   10  C   UNL     1     -12.320  13.670  64.722  1.00  0.00    -0.429 A  
HETATM   11  C   UNL     1     -10.604  12.338  65.749  1.00  0.00    -0.254 A  
HETATM   12  C   UNL     1     -12.262  12.883  63.570  1.00  0.00    -0.595 A  
HETATM   13  C   UNL     1     -10.567  11.532  64.600  1.00  0.00    -0.369 A  
HETATM   14 CL   UNL     1      -9.444  11.969  66.974  1.00  0.00    -0.193 Cl 
ENDBRANCH   7   8
BRANCH   7  15
HETATM   15  C   UNL     1     -10.339  15.169  67.382  1.00  0.00    -0.244 C  
BRANCH  15  16
HETATM   16  N   UNL     1     -10.471  16.563  67.022  1.00  0.00    -0.304 NA 
HETATM   17  N   UNL     1     -10.741  17.515  67.936  1.00  0.00    -0.380 NA 
HETATM   18  N   UNL     1     -10.175  18.337  65.906  1.00  0.00    -0.587 NA 
HETATM   19  C   UNL     1     -10.552  18.605  67.187  1.00  0.00    -0.417 A  
HETATM   20  N   UNL     1     -10.110  17.016  65.806  1.00  0.00    -0.566 NA 
ENDBRANCH  15  16
ENDBRANCH   7  15
ENDBRANCH   6   7
ENDBRANCH   2   6
TORSDOF 5
ENDMDL
MODEL       46
REMARK 921   NORMALIZED FREE ENERGY PREDICTED BY IDOCK:   -4.99 KCAL/MOL
REMARK 922        TOTAL FREE ENERGY PREDICTED BY IDOCK:   -7.25 KCAL/MOL
REMARK 923 INTER-LIGAND FREE ENERGY PREDICTED BY IDOCK:   -6.69 KCAL/MOL
REMARK 924 INTRA-LIGAND FREE ENERGY PREDICTED BY IDOCK:   -0.55 KCAL/MOL
REMARK 927      BINDING AFFINITY PREDICTED BY RF-SCORE:    0.00 PKD
ROOT
HETATM    1  N   UNL     1      -9.137  13.189  66.123  1.00  0.00    -0.458 N  
HETATM    2  C   UNL     1      -9.132  13.353  67.462  1.00  0.00    -0.215 C  
HETATM    3  H1  UNL     1      -9.491  13.876  65.458  1.00  0.00     0.000 HD 
HETATM    4  H2  UNL     1      -8.762  12.317  65.751  1.00  0.00     0.000 HD 
HETATM    5  O   UNL     1      -8.710  12.532  68.258  1.00  0.00    -0.183 OA 
ENDROOT
BRANCH   2   6
HETATM    6  O   UNL     1      -9.641  14.561  67.764  1.00  0.00    -0.209 OA 
BRANCH   6   7
HETATM    7  C   UNL     1     -10.547  15.193  66.819  1.00  0.00    -0.298 C  
BRANCH   7   8
HETATM    8  C   UNL     1     -10.464  16.711  67.040  1.00  0.00    -0.283 A  
HETATM    9  C   UNL     1     -10.361  19.535  67.335  1.00  0.00    -0.572 A  
HETATM   10  C   UNL     1     -10.494  17.583  65.927  1.00  0.00    -0.251 A  
HETATM   11  C   UNL     1     -10.414  17.310  68.314  1.00  0.00    -0.385 A  
HETATM   12  C   UNL     1     -10.450  18.971  66.070  1.00  0.00    -0.530 A  
HETATM   13  C   UNL     1     -10.342  18.705  68.453  1.00  0.00    -0.356 A  
HETATM   14 CL   UNL     1     -10.507  16.404  69.781  1.00  0.00    -0.278 Cl 
ENDBRANCH   7   8
BRANCH   7  15
HETATM   15  C   UNL     1     -11.952  14.576  66.918  1.00  0.00    -0.346 C  
BRANCH  15  16
HETATM   16  N   UNL     1     -12.302  13.758  65.779  1.00  0.00    -0.463 NA 
HETATM   17  N   UNL     1     -12.425  14.273  64.540  1.00  0.00    -0.660 NA 
HETATM   18  N   UNL     1     -12.467  12.012  64.595  1.00  0.00    -0.356 NA 
HETATM   19  C   UNL     1     -12.535  13.142  63.837  1.00  0.00    -0.278 A  
HETATM   20  N   UNL     1     -12.302  12.413  65.848  1.00  0.00    -0.577 NA 
ENDBRANCH  15  16
ENDBRANCH   7  15
ENDBRANCH   6   7
ENDBRANCH   2   6
TORSDOF 5
ENDMDL
MODEL       47
REMARK 921   NORMALIZED FREE ENERGY PREDICTED BY IDOCK:   -4.97 KCAL/MOL
REMARK 922        TOTAL FREE ENERGY PREDICTED BY IDOCK:   -7.23 KCAL/MOL
REMARK 923 INTER-LIGAND FREE ENERGY PREDICTED BY IDOCK:   -6.84 KCAL/MOL
REMARK 924 INTRA-LIGAND FREE ENERGY PREDICTED BY IDOCK:   -0.39 KCAL/MOL
REMARK 927      BINDING AFFINITY PREDICTED BY RF-SCORE:    0.00 PKD
ROOT
HETATM    1  N   UNL     1     -12.595  14.540  63.894  1.00  0.00    -0.946 N  
HETATM    2  C   UNL     1     -12.778  13.693  64.927  1.00  0.00    -0.271 C  
HETATM    3  H1  UNL     1     -12.253  15.496  63.983  1.00  0.00     0.000 HD 
HETATM    4  H2  UNL     1     -12.816  14.201  62.957  1.00  0.00     0.000 HD 
HETATM    5  O   UNL     1     -13.189  12.550  64.820  1.00  0.00    -0.839 OA 
ENDROOT
BRANCH   2   6
HETATM    6  O   UNL     1     -12.417  14.302  66.071  1.00  0.00    -0.442 OA 
BRANCH   6   7
HETATM    7  C   UNL     1     -11.782  13.511  67.112  1.00  0.00    -0.379 C  
BRANCH   7   8
HETATM    8  C   UNL     1     -11.732  14.373  68.384  1.00  0.00    -0.367 A  
HETATM    9  C   UNL     1     -11.650  15.861  70.802  1.00  0.00    -0.441 A  
HETATM   10  C   UNL     1     -12.250  13.862  69.595  1.00  0.00    -0.374 A  
HETATM   11  C   UNL     1     -11.138  15.650  68.435  1.00  0.00    -0.326 A  
HETATM   12  C   UNL     1     -12.205  14.590  70.787  1.00  0.00    -0.403 A  
HETATM   13  C   UNL     1     -11.120  16.389  69.628  1.00  0.00    -0.306 A  
HETATM   14 CL   UNL     1     -10.338  16.368  67.083  1.00  0.00    -0.288 Cl 
ENDBRANCH   7   8
BRANCH   7  15
HETATM   15  C   UNL     1     -10.434  12.955  66.625  1.00  0.00    -0.263 C  
BRANCH  15  16
HETATM   16  N   UNL     1     -10.314  11.523  66.779  1.00  0.00    -0.219 NA 
HETATM   17  N   UNL     1     -10.749  10.883  67.882  1.00  0.00    -0.212 NA 
HETATM   18  N   UNL     1     -10.161   9.493  66.197  1.00  0.00    -0.247 NA 
HETATM   19  C   UNL     1     -10.624   9.618  67.472  1.00  0.00    -0.277 A  
HETATM   20  N   UNL     1      -9.975  10.727  65.747  1.00  0.00    -0.239 NA 
ENDBRANCH  15  16
ENDBRANCH   7  15
ENDBRANCH   6   7
ENDBRANCH   2   6
TORSDOF 5
ENDMDL
MODEL       48
REMARK 921   NORMALIZED FREE ENERGY PREDICTED BY IDOCK:   -4.95 KCAL/MOL
REMARK 922        TOTAL FREE ENERGY PREDICTED BY IDOCK:   -7.20 KCAL/MOL
REMARK 923 INTER-LIGAND FREE ENERGY PREDICTED BY IDOCK:   -6.75 KCAL/MOL
REMARK 924 INTRA-LIGAND FREE ENERGY PREDICTED BY IDOCK:   -0.44 KCAL/MOL
REMARK 927      BINDING AFFINITY PREDICTED BY RF-SCORE:    0.00 PKD
ROOT
HETATM    1  N   UNL     1     -12.405  14.375  63.700  1.00  0.00    -1.106 N  
HETATM    2  C   UNL     1     -12.294  13.346  64.565  1.00  0.00    -0.360 C  
HETATM    3  H1  UNL     1     -11.716  15.120  63.595  1.00  0.00     0.000 HD 
HETATM    4  H2  UNL     1     -13.236  14.411  63.109  1.00  0.00     0.000 HD 
HETATM    5  O   UNL     1     -13.118  12.456  64.690  1.00  0.00    -0.825 OA 
ENDROOT
BRANCH   2   6
HETATM    6  O   UNL     1     -11.134  13.454  65.237  1.00  0.00    -0.285 OA 
BRANCH   6   7
HETATM    7  C   UNL     1     -11.131  14.144  66.517  1.00  0.00    -0.318 C  
BRANCH   7   8
HETATM    8  C   UNL     1      -9.794  14.893  66.636  1.00  0.00    -0.272 A  
HETATM    9  C   UNL     1      -7.267  16.168  66.872  1.00  0.00    -0.240 A  
HETATM   10  C   UNL     1      -8.691  14.261  67.252  1.00  0.00    -0.230 A  
HETATM   11  C   UNL     1      -9.575  16.182  66.110  1.00  0.00    -0.327 A  
HETATM   12  C   UNL     1      -7.445  14.883  67.363  1.00  0.00    -0.228 A  
HETATM   13  C   UNL     1      -8.330  16.815  66.248  1.00  0.00    -0.353 A  
HETATM   14 CL   UNL     1     -10.771  17.043  65.209  1.00  0.00    -0.223 Cl 
ENDBRANCH   7   8
BRANCH   7  15
HETATM   15  C   UNL     1     -11.458  13.170  67.660  1.00  0.00    -0.324 C  
BRANCH  15  16
HETATM   16  N   UNL     1     -11.947  13.825  68.852  1.00  0.00    -0.353 NA 
HETATM   17  N   UNL     1     -12.051  13.181  70.031  1.00  0.00    -0.326 NA 
HETATM   18  N   UNL     1     -12.365  15.416  70.184  1.00  0.00    -0.368 NA 
HETATM   19  C   UNL     1     -12.323  14.217  70.830  1.00  0.00    -0.369 A  
HETATM   20  N   UNL     1     -12.108  15.161  68.909  1.00  0.00    -0.244 NA 
ENDBRANCH  15  16
ENDBRANCH   7  15
ENDBRANCH   6   7
ENDBRANCH   2   6
TORSDOF 5
ENDMDL
MODEL       49
REMARK 921   NORMALIZED FREE ENERGY PREDICTED BY IDOCK:   -4.93 KCAL/MOL
REMARK 922        TOTAL FREE ENERGY PREDICTED BY IDOCK:   -7.18 KCAL/MOL
REMARK 923 INTER-LIGAND FREE ENERGY PREDICTED BY IDOCK:   -6.96 KCAL/MOL
REMARK 924 INTRA-LIGAND FREE ENERGY PREDICTED BY IDOCK:   -0.22 KCAL/MOL
REMARK 927      BINDING AFFINITY PREDICTED BY RF-SCORE:    0.00 PKD
ROOT
HETATM    1  N   UNL     1      -9.315  10.142  63.685  1.00  0.00    -0.283 N  
HETATM    2  C   UNL     1      -9.991  11.291  63.887  1.00  0.00    -0.321 C  
HETATM    3  H1  UNL     1      -9.489   9.272  64.186  1.00  0.00     0.000 HD 
HETATM    4  H2  UNL     1      -8.576  10.144  62.981  1.00  0.00     0.000 HD 
HETATM    5  O   UNL     1      -9.782  12.332  63.288  1.00  0.00    -0.353 OA 
ENDROOT
BRANCH   2   6
HETATM    6  O   UNL     1     -10.932  11.093  64.828  1.00  0.00    -0.260 OA 
BRANCH   6   7
HETATM    7  C   UNL     1     -11.184  12.148  65.796  1.00  0.00    -0.339 C  
BRANCH   7   8
HETATM    8  C   UNL     1     -11.224  11.500  67.189  1.00  0.00    -0.365 A  
HETATM    9  C   UNL     1     -11.221  10.213  69.722  1.00  0.00    -0.325 A  
HETATM   10  C   UNL     1     -10.860  10.142  67.339  1.00  0.00    -0.323 A  
HETATM   11  C   UNL     1     -11.556  12.202  68.365  1.00  0.00    -0.327 A  
HETATM   12  C   UNL     1     -10.852   9.509  68.584  1.00  0.00    -0.177 A  
HETATM   13  C   UNL     1     -11.573  11.555  69.611  1.00  0.00    -0.403 A  
HETATM   14 CL   UNL     1     -11.893  13.896  68.382  1.00  0.00    -0.395 Cl 
ENDBRANCH   7   8
BRANCH   7  15
HETATM   15  C   UNL     1     -12.425  12.964  65.400  1.00  0.00    -0.454 C  
BRANCH  15  16
HETATM   16  N   UNL     1     -12.119  14.320  65.005  1.00  0.00    -0.407 NA 
HETATM   17  N   UNL     1     -11.123  15.024  65.577  1.00  0.00    -0.346 NA 
HETATM   18  N   UNL     1     -12.004  16.018  63.746  1.00  0.00    -0.759 NA 
HETATM   19  C   UNL     1     -11.096  16.081  64.760  1.00  0.00    -0.365 A  
HETATM   20  N   UNL     1     -12.654  14.872  63.899  1.00  0.00    -0.760 NA 
ENDBRANCH  15  16
ENDBRANCH   7  15
ENDBRANCH   6   7
ENDBRANCH   2   6
TORSDOF 5
ENDMDL
MODEL       50
REMARK 921   NORMALIZED FREE ENERGY PREDICTED BY IDOCK:   -4.93 KCAL/MOL
REMARK 922        TOTAL FREE ENERGY PREDICTED BY IDOCK:   -7.18 KCAL/MOL
REMARK 923 INTER-LIGAND FREE ENERGY PREDICTED BY IDOCK:   -6.48 KCAL/MOL
REMARK 924 INTRA-LIGAND FREE ENERGY PREDICTED BY IDOCK:   -0.70 KCAL/MOL
REMARK 927      BINDING AFFINITY PREDICTED BY RF-SCORE:    0.00 PKD
ROOT
HETATM    1  N   UNL     1     -12.707  10.343  69.877  1.00  0.00    -0.537 N  
HETATM    2  C   UNL     1     -11.396  10.226  69.582  1.00  0.00    -0.257 C  
HETATM    3  H1  UNL     1     -13.432  10.590  69.204  1.00  0.00     0.000 HD 
HETATM    4  H2  UNL     1     -12.993  10.173  70.841  1.00  0.00     0.000 HD 
HETATM    5  O   UNL     1     -10.529   9.932  70.386  1.00  0.00    -0.274 OA 
ENDROOT
BRANCH   2   6
HETATM    6  O   UNL     1     -11.213  10.464  68.270  1.00  0.00    -0.282 OA 
BRANCH   6   7
HETATM    7  C   UNL     1     -11.522  11.786  67.750  1.00  0.00    -0.311 C  
BRANCH   7   8
HETATM    8  C   UNL     1     -11.238  11.769  66.240  1.00  0.00    -0.370 A  
HETATM    9  C   UNL     1     -10.682  11.616  63.459  1.00  0.00    -0.495 A  
HETATM   10  C   UNL     1     -10.393  10.774  65.698  1.00  0.00    -0.297 A  
HETATM   11  C   UNL     1     -11.825  12.669  65.329  1.00  0.00    -0.408 A  
HETATM   12  C   UNL     1     -10.123  10.693  64.330  1.00  0.00    -0.418 A  
HETATM   13  C   UNL     1     -11.529  12.602  63.958  1.00  0.00    -0.475 A  
HETATM   14 CL   UNL     1     -12.984  13.859  65.799  1.00  0.00    -0.456 Cl 
ENDBRANCH   7   8
BRANCH   7  15
HETATM   15  C   UNL     1     -10.791  12.871  68.558  1.00  0.00    -0.257 C  
BRANCH  15  16
HETATM   16  N   UNL     1     -11.683  13.752  69.276  1.00  0.00    -0.304 NA 
HETATM   17  N   UNL     1     -12.369  13.345  70.363  1.00  0.00    -0.333 NA 
HETATM   18  N   UNL     1     -12.473  15.576  70.003  1.00  0.00    -0.328 NA 
HETATM   19  C   UNL     1     -12.853  14.519  70.776  1.00  0.00    -0.361 A  
HETATM   20  N   UNL     1     -11.706  15.078  69.043  1.00  0.00    -0.315 NA 
ENDBRANCH  15  16
ENDBRANCH   7  15
ENDBRANCH   6   7
ENDBRANCH   2   6
TORSDOF 5
ENDMDL
MODEL       51
REMARK 921   NORMALIZED FREE ENERGY PREDICTED BY IDOCK:   -4.91 KCAL/MOL
REMARK 922        TOTAL FREE ENERGY PREDICTED BY IDOCK:   -7.15 KCAL/MOL
REMARK 923 INTER-LIGAND FREE ENERGY PREDICTED BY IDOCK:   -6.20 KCAL/MOL
REMARK 924 INTRA-LIGAND FREE ENERGY PREDICTED BY IDOCK:   -0.95 KCAL/MOL
REMARK 927      BINDING AFFINITY PREDICTED BY RF-SCORE:    0.00 PKD
ROOT
HETATM    1  N   UNL     1      -9.500  19.054  68.606  1.00  0.00    -0.386 N  
HETATM    2  C   UNL     1     -10.362  18.640  67.656  1.00  0.00    -0.412 C  
HETATM    3  H1  UNL     1      -8.915  18.434  69.167  1.00  0.00     0.000 HD 
HETATM    4  H2  UNL     1      -9.428  20.057  68.777  1.00  0.00     0.000 HD 
HETATM    5  O   UNL     1     -11.061  19.381  66.986  1.00  0.00    -0.420 OA 
ENDROOT
BRANCH   2   6
HETATM    6  O   UNL     1     -10.305  17.300  67.557  1.00  0.00    -0.323 OA 
BRANCH   6   7
HETATM    7  C   UNL     1      -9.807  16.711  66.325  1.00  0.00    -0.310 C  
BRANCH   7   8
HETATM    8  C   UNL     1     -10.752  15.559  65.946  1.00  0.00    -0.346 A  
HETATM    9  C   UNL     1     -12.465  13.448  65.125  1.00  0.00    -0.509 A  
HETATM   10  C   UNL     1     -11.232  15.456  64.620  1.00  0.00    -0.374 A  
HETATM   11  C   UNL     1     -11.136  14.542  66.841  1.00  0.00    -0.325 A  
HETATM   12  C   UNL     1     -12.069  14.415  64.213  1.00  0.00    -0.461 A  
HETATM   13  C   UNL     1     -12.001  13.513  66.436  1.00  0.00    -0.459 A  
HETATM   14 CL   UNL     1     -10.536  14.438  68.458  1.00  0.00    -0.248 Cl 
ENDBRANCH   7   8
BRANCH   7  15
HETATM   15  C   UNL     1      -8.321  16.343  66.461  1.00  0.00    -0.302 C  
BRANCH  15  16
HETATM   16  N   UNL     1      -7.454  17.491  66.598  1.00  0.00    -0.221 NA 
HETATM   17  N   UNL     1      -7.367  18.439  65.644  1.00  0.00    -0.536 NA 
HETATM   18  N   UNL     1      -6.328  18.993  67.575  1.00  0.00    -0.192 NA 
HETATM   19  C   UNL     1      -6.646  19.352  66.300  1.00  0.00    -0.195 A  
HETATM   20  N   UNL     1      -6.864  17.796  67.769  1.00  0.00    -0.180 NA 
ENDBRANCH  15  16
ENDBRANCH   7  15
ENDBRANCH   6   7
ENDBRANCH   2   6
TORSDOF 5
ENDMDL
MODEL       52
REMARK 921   NORMALIZED FREE ENERGY PREDICTED BY IDOCK:   -4.90 KCAL/MOL
REMARK 922        TOTAL FREE ENERGY PREDICTED BY IDOCK:   -7.14 KCAL/MOL
REMARK 923 INTER-LIGAND FREE ENERGY PREDICTED BY IDOCK:   -6.64 KCAL/MOL
REMARK 924 INTRA-LIGAND FREE ENERGY PREDICTED BY IDOCK:   -0.49 KCAL/MOL
REMARK 927      BINDING AFFINITY PREDICTED BY RF-SCORE:    0.00 PKD
ROOT
HETATM    1  N   UNL     1     -11.485  14.631  64.573  1.00  0.00    -0.580 N  
HETATM    2  C   UNL     1     -11.007  15.871  64.800  1.00  0.00    -0.375 C  
HETATM    3  H1  UNL     1     -11.170  13.791  65.058  1.00  0.00     0.000 HD 
HETATM    4  H2  UNL     1     -12.212  14.525  63.865  1.00  0.00     0.000 HD 
HETATM    5  O   UNL     1     -11.383  16.875  64.220  1.00  0.00    -1.202 OA 
ENDROOT
BRANCH   2   6
HETATM    6  O   UNL     1     -10.078  15.819  65.772  1.00  0.00    -0.319 OA 
BRANCH   6   7
HETATM    7  C   UNL     1     -10.442  16.259  67.109  1.00  0.00    -0.297 C  
BRANCH   7   8
HETATM    8  C   UNL     1      -9.420  17.322  67.542  1.00  0.00    -0.245 A  
HETATM    9  C   UNL     1      -7.443  19.196  68.347  1.00  0.00    -0.342 A  
HETATM   10  C   UNL     1      -8.238  16.925  68.208  1.00  0.00    -0.222 A  
HETATM   11  C   UNL     1      -9.561  18.695  67.263  1.00  0.00    -0.297 A  
HETATM   12  C   UNL     1      -7.262  17.844  68.600  1.00  0.00    -0.272 A  
HETATM   13  C   UNL     1      -8.591  19.620  67.682  1.00  0.00    -0.365 A  
HETATM   14 CL   UNL     1     -10.873  19.336  66.340  1.00  0.00    -0.440 Cl 
ENDBRANCH   7   8
BRANCH   7  15
HETATM   15  C   UNL     1     -10.600  15.055  68.053  1.00  0.00    -0.250 C  
BRANCH  15  16
HETATM   16  N   UNL     1     -11.515  15.297  69.145  1.00  0.00    -0.295 NA 
HETATM   17  N   UNL     1     -12.609  14.534  69.342  1.00  0.00    -0.069 NA 
HETATM   18  N   UNL     1     -12.171  15.957  71.046  1.00  0.00    -0.408 NA 
HETATM   19  C   UNL     1     -12.988  14.992  70.539  1.00  0.00    -0.299 A  
HETATM   20  N   UNL     1     -11.212  16.142  70.148  1.00  0.00    -0.365 NA 
ENDBRANCH  15  16
ENDBRANCH   7  15
ENDBRANCH   6   7
ENDBRANCH   2   6
TORSDOF 5
ENDMDL
MODEL       53
REMARK 921   NORMALIZED FREE ENERGY PREDICTED BY IDOCK:   -4.90 KCAL/MOL
REMARK 922        TOTAL FREE ENERGY PREDICTED BY IDOCK:   -7.13 KCAL/MOL
REMARK 923 INTER-LIGAND FREE ENERGY PREDICTED BY IDOCK:   -6.69 KCAL/MOL
REMARK 924 INTRA-LIGAND FREE ENERGY PREDICTED BY IDOCK:   -0.45 KCAL/MOL
REMARK 927      BINDING AFFINITY PREDICTED BY RF-SCORE:    0.00 PKD
ROOT
HETATM    1  N   UNL     1     -11.545  10.434  68.168  1.00  0.00    -0.479 N  
HETATM    2  C   UNL     1     -11.836  11.296  69.164  1.00  0.00    -0.355 C  
HETATM    3  H1  UNL     1     -11.585  10.661  67.175  1.00  0.00     0.000 HD 
HETATM    4  H2  UNL     1     -11.267   9.487  68.427  1.00  0.00     0.000 HD 
HETATM    5  O   UNL     1     -11.789  11.024  70.351  1.00  0.00    -0.317 OA 
ENDROOT
BRANCH   2   6
HETATM    6  O   UNL     1     -12.159  12.491  68.636  1.00  0.00    -0.266 OA 
BRANCH   6   7
HETATM    7  C   UNL     1     -11.365  13.003  67.532  1.00  0.00    -0.305 C  
BRANCH   7   8
HETATM    8  C   UNL     1     -10.178  13.773  68.132  1.00  0.00    -0.253 A  
HETATM    9  C   UNL     1      -7.911  15.151  69.148  1.00  0.00    -0.205 A  
HETATM   10  C   UNL     1      -8.858  13.379  67.816  1.00  0.00    -0.199 A  
HETATM   11  C   UNL     1     -10.322  14.910  68.952  1.00  0.00    -0.244 A  
HETATM   12  C   UNL     1      -7.742  14.058  68.310  1.00  0.00    -0.141 A  
HETATM   13  C   UNL     1      -9.199  15.574  69.468  1.00  0.00    -0.265 A  
HETATM   14 CL   UNL     1     -11.857  15.608  69.325  1.00  0.00    -0.383 Cl 
ENDBRANCH   7   8
BRANCH   7  15
HETATM   15  C   UNL     1     -12.247  13.790  66.549  1.00  0.00    -0.430 C  
BRANCH  15  16
HETATM   16  N   UNL     1     -12.181  13.294  65.193  1.00  0.00    -0.415 NA 
HETATM   17  N   UNL     1     -11.059  13.387  64.452  1.00  0.00    -0.378 NA 
HETATM   18  N   UNL     1     -12.663  12.095  63.517  1.00  0.00    -0.776 NA 
HETATM   19  C   UNL     1     -11.414  12.629  63.411  1.00  0.00    -0.435 A  
HETATM   20  N   UNL     1     -13.150  12.516  64.676  1.00  0.00    -0.837 NA 
ENDBRANCH  15  16
ENDBRANCH   7  15
ENDBRANCH   6   7
ENDBRANCH   2   6
TORSDOF 5
ENDMDL
MODEL       54
REMARK 921   NORMALIZED FREE ENERGY PREDICTED BY IDOCK:   -4.87 KCAL/MOL
REMARK 922        TOTAL FREE ENERGY PREDICTED BY IDOCK:   -7.09 KCAL/MOL
REMARK 923 INTER-LIGAND FREE ENERGY PREDICTED BY IDOCK:   -6.73 KCAL/MOL
REMARK 924 INTRA-LIGAND FREE ENERGY PREDICTED BY IDOCK:   -0.36 KCAL/MOL
REMARK 927      BINDING AFFINITY PREDICTED BY RF-SCORE:    0.00 PKD
ROOT
HETATM    1  N   UNL     1     -11.930  15.448  63.900  1.00  0.00    -0.972 N  
HETATM    2  C   UNL     1     -12.003  14.736  65.044  1.00  0.00    -0.318 C  
HETATM    3  H1  UNL     1     -11.170  16.084  63.662  1.00  0.00     0.000 HD 
HETATM    4  H2  UNL     1     -12.689  15.342  63.227  1.00  0.00     0.000 HD 
HETATM    5  O   UNL     1     -12.912  13.975  65.329  1.00  0.00    -0.743 OA 
ENDROOT
BRANCH   2   6
HETATM    6  O   UNL     1     -10.913  14.985  65.792  1.00  0.00    -0.333 OA 
BRANCH   6   7
HETATM    7  C   UNL     1     -11.073  15.724  67.033  1.00  0.00    -0.152 C  
BRANCH   7   8
HETATM    8  C   UNL     1     -10.251  17.017  66.913  1.00  0.00    -0.305 A  
HETATM    9  C   UNL     1      -8.825  19.468  66.747  1.00  0.00    -0.376 A  
HETATM   10  C   UNL     1     -10.903  18.269  66.976  1.00  0.00    -0.196 A  
HETATM   11  C   UNL     1      -8.847  17.037  66.798  1.00  0.00    -0.242 A  
HETATM   12  C   UNL     1     -10.203  19.475  66.900  1.00  0.00    -0.537 A  
HETATM   13  C   UNL     1      -8.149  18.251  66.694  1.00  0.00    -0.281 A  
HETATM   14 CL   UNL     1      -7.881  15.606  66.843  1.00  0.00    -0.268 Cl 
ENDBRANCH   7   8
BRANCH   7  15
HETATM   15  C   UNL     1     -10.748  14.832  68.243  1.00  0.00    -0.242 C  
BRANCH  15  16
HETATM   16  N   UNL     1     -11.491  15.183  69.432  1.00  0.00    -0.286 NA 
HETATM   17  N   UNL     1     -12.476  14.402  69.917  1.00  0.00    -0.309 NA 
HETATM   18  N   UNL     1     -11.877  16.081  71.310  1.00  0.00    -0.443 NA 
HETATM   19  C   UNL     1     -12.690  15.010  71.087  1.00  0.00    -0.362 A  
HETATM   20  N   UNL     1     -11.094  16.181  70.245  1.00  0.00    -0.368 NA 
ENDBRANCH  15  16
ENDBRANCH   7  15
ENDBRANCH   6   7
ENDBRANCH   2   6
TORSDOF 5
ENDMDL
MODEL       55
REMARK 921   NORMALIZED FREE ENERGY PREDICTED BY IDOCK:   -4.85 KCAL/MOL
REMARK 922        TOTAL FREE ENERGY PREDICTED BY IDOCK:   -7.07 KCAL/MOL
REMARK 923 INTER-LIGAND FREE ENERGY PREDICTED BY IDOCK:   -6.76 KCAL/MOL
REMARK 924 INTRA-LIGAND FREE ENERGY PREDICTED BY IDOCK:   -0.31 KCAL/MOL
REMARK 927      BINDING AFFINITY PREDICTED BY RF-SCORE:    0.00 PKD
ROOT
HETATM    1  N   UNL     1     -12.442  13.471  62.884  1.00  0.00    -0.865 N  
HETATM    2  C   UNL     1     -12.730  12.765  63.997  1.00  0.00    -0.206 C  
HETATM    3  H1  UNL     1     -11.810  14.271  62.853  1.00  0.00     0.000 HD 
HETATM    4  H2  UNL     1     -12.889  13.185  62.013  1.00  0.00     0.000 HD 
HETATM    5  O   UNL     1     -13.486  11.810  64.035  1.00  0.00    -0.493 OA 
ENDROOT
BRANCH   2   6
HETATM    6  O   UNL     1     -12.038  13.270  65.035  1.00  0.00    -0.365 OA 
BRANCH   6   7
HETATM    7  C   UNL     1     -10.657  12.856  65.220  1.00  0.00    -0.297 C  
BRANCH   7   8
HETATM    8  C   UNL     1     -10.666  11.584  66.082  1.00  0.00    -0.324 A  
HETATM    9  C   UNL     1     -10.596   9.183  67.600  1.00  0.00    -0.307 A  
HETATM   10  C   UNL     1     -10.185  10.369  65.542  1.00  0.00    -0.316 A  
HETATM   11  C   UNL     1     -11.081  11.559  67.428  1.00  0.00    -0.282 A  
HETATM   12  C   UNL     1     -10.144   9.189  66.288  1.00  0.00    -0.319 A  
HETATM   13  C   UNL     1     -11.064  10.366  68.167  1.00  0.00    -0.344 A  
HETATM   14 CL   UNL     1     -11.569  12.977  68.286  1.00  0.00    -0.352 Cl 
ENDBRANCH   7   8
BRANCH   7  15
HETATM   15  C   UNL     1      -9.807  14.021  65.753  1.00  0.00    -0.256 C  
BRANCH  15  16
HETATM   16  N   UNL     1     -10.429  15.314  65.575  1.00  0.00    -0.343 NA 
HETATM   17  N   UNL     1     -10.413  16.254  66.540  1.00  0.00    -0.303 NA 
HETATM   18  N   UNL     1     -11.171  17.009  64.547  1.00  0.00    -1.059 NA 
HETATM   19  C   UNL     1     -10.895  17.292  65.851  1.00  0.00    -0.003 A  
HETATM   20  N   UNL     1     -10.855  15.734  64.368  1.00  0.00    -0.329 NA 
ENDBRANCH  15  16
ENDBRANCH   7  15
ENDBRANCH   6   7
ENDBRANCH   2   6
TORSDOF 5
ENDMDL
MODEL       56
REMARK 921   NORMALIZED FREE ENERGY PREDICTED BY IDOCK:   -4.85 KCAL/MOL
REMARK 922        TOTAL FREE ENERGY PREDICTED BY IDOCK:   -7.07 KCAL/MOL
REMARK 923 INTER-LIGAND FREE ENERGY PREDICTED BY IDOCK:   -6.25 KCAL/MOL
REMARK 924 INTRA-LIGAND FREE ENERGY PREDICTED BY IDOCK:   -0.82 KCAL/MOL
REMARK 927      BINDING AFFINITY PREDICTED BY RF-SCORE:    0.00 PKD
ROOT
HETATM    1  N   UNL     1     -11.008  11.789  67.567  1.00  0.00    -0.240 N  
HETATM    2  C   UNL     1     -11.877  12.648  66.997  1.00  0.00    -0.345 C  
HETATM    3  H1  UNL     1     -10.696  11.839  68.536  1.00  0.00     0.000 HD 
HETATM    4  H2  UNL     1     -10.635  11.037  66.987  1.00  0.00     0.000 HD 
HETATM    5  O   UNL     1     -12.250  12.589  65.837  1.00  0.00    -0.593 OA 
ENDROOT
BRANCH   2   6
HETATM    6  O   UNL     1     -12.274  13.551  67.911  1.00  0.00    -0.305 OA 
BRANCH   6   7
HETATM    7  C   UNL     1     -11.395  13.843  69.031  1.00  0.00    -0.283 C  
BRANCH   7   8
HETATM    8  C   UNL     1     -12.272  13.993  70.284  1.00  0.00    -0.430 A  
HETATM    9  C   UNL     1     -13.941  14.375  72.550  1.00  0.00    -0.508 A  
HETATM   10  C   UNL     1     -12.819  15.256  70.607  1.00  0.00    -0.462 A  
HETATM   11  C   UNL     1     -12.621  12.917  71.123  1.00  0.00    -0.281 A  
HETATM   12  C   UNL     1     -13.645  15.445  71.718  1.00  0.00    -0.596 A  
HETATM   13  C   UNL     1     -13.429  13.115  72.253  1.00  0.00    -0.665 A  
HETATM   14 CL   UNL     1     -12.153  11.286  70.800  1.00  0.00    -0.462 Cl 
ENDBRANCH   7   8
BRANCH   7  15
HETATM   15  C   UNL     1     -10.480  15.036  68.706  1.00  0.00    -0.238 C  
BRANCH  15  16
HETATM   16  N   UNL     1      -9.072  14.731  68.829  1.00  0.00    -0.192 NA 
HETATM   17  N   UNL     1      -8.522  13.646  68.249  1.00  0.00    -0.166 NA 
HETATM   18  N   UNL     1      -7.004  15.089  69.106  1.00  0.00    -0.127 NA 
HETATM   19  C   UNL     1      -7.229  13.912  68.457  1.00  0.00    -0.107 A  
HETATM   20  N   UNL     1      -8.197  15.622  69.332  1.00  0.00    -0.249 NA 
ENDBRANCH  15  16
ENDBRANCH   7  15
ENDBRANCH   6   7
ENDBRANCH   2   6
TORSDOF 5
ENDMDL
MODEL       57
REMARK 921   NORMALIZED FREE ENERGY PREDICTED BY IDOCK:   -4.84 KCAL/MOL
REMARK 922        TOTAL FREE ENERGY PREDICTED BY IDOCK:   -7.06 KCAL/MOL
REMARK 923 INTER-LIGAND FREE ENERGY PREDICTED BY IDOCK:   -5.91 KCAL/MOL
REMARK 924 INTRA-LIGAND FREE ENERGY PREDICTED BY IDOCK:   -1.15 KCAL/MOL
REMARK 927      BINDING AFFINITY PREDICTED BY RF-SCORE:    0.00 PKD
ROOT
HETATM    1  N   UNL     1     -10.533  10.022  66.876  1.00  0.00    -0.233 N  
HETATM    2  C   UNL     1     -11.100  11.155  67.339  1.00  0.00    -0.307 C  
HETATM    3  H1  UNL     1      -9.884   9.441  67.406  1.00  0.00     0.000 HD 
HETATM    4  H2  UNL     1     -10.769   9.726  65.929  1.00  0.00     0.000 HD 
HETATM    5  O   UNL     1     -11.875  11.850  66.706  1.00  0.00    -0.598 OA 
ENDROOT
BRANCH   2   6
HETATM    6  O   UNL     1     -10.691  11.372  68.602  1.00  0.00    -0.187 OA 
BRANCH   6   7
HETATM    7  C   UNL     1     -11.434  10.760  69.692  1.00  0.00    -0.305 C  
BRANCH   7   8
HETATM    8  C   UNL     1     -12.106  11.890  70.487  1.00  0.00    -0.422 A  
HETATM    9  C   UNL     1     -13.337  14.052  71.857  1.00  0.00    -0.489 A  
HETATM   10  C   UNL     1     -11.925  13.232  70.085  1.00  0.00    -0.388 A  
HETATM   11  C   UNL     1     -12.959  11.666  71.586  1.00  0.00    -0.378 A  
HETATM   12  C   UNL     1     -12.534  14.297  70.753  1.00  0.00    -0.428 A  
HETATM   13  C   UNL     1     -13.547  12.740  72.273  1.00  0.00    -0.563 A  
HETATM   14 CL   UNL     1     -13.398  10.086  72.127  1.00  0.00    -0.527 Cl 
ENDBRANCH   7   8
BRANCH   7  15
HETATM   15  C   UNL     1     -10.530   9.815  70.501  1.00  0.00    -0.301 C  
BRANCH  15  16
HETATM   16  N   UNL     1     -10.034   8.696  69.733  1.00  0.00    -0.186 NA 
HETATM   17  N   UNL     1     -10.832   7.679  69.353  1.00  0.00    -0.178 NA 
HETATM   18  N   UNL     1      -8.785   7.639  68.390  1.00  0.00    -0.128 NA 
HETATM   19  C   UNL     1     -10.002   7.041  68.522  1.00  0.00    -0.155 A  
HETATM   20  N   UNL     1      -8.814   8.716  69.163  1.00  0.00    -0.137 NA 
ENDBRANCH  15  16
ENDBRANCH   7  15
ENDBRANCH   6   7
ENDBRANCH   2   6
TORSDOF 5
ENDMDL
MODEL       58
REMARK 921   NORMALIZED FREE ENERGY PREDICTED BY IDOCK:   -4.80 KCAL/MOL
REMARK 922        TOTAL FREE ENERGY PREDICTED BY IDOCK:   -7.00 KCAL/MOL
REMARK 923 INTER-LIGAND FREE ENERGY PREDICTED BY IDOCK:   -7.62 KCAL/MOL
REMARK 924 INTRA-LIGAND FREE ENERGY PREDICTED BY IDOCK:    0.62 KCAL/MOL
REMARK 927      BINDING AFFINITY PREDICTED BY RF-SCORE:    0.00 PKD
ROOT
HETATM    1  N   UNL     1     -12.392  14.936  63.835  1.00  0.00    -1.064 N  
HETATM    2  C   UNL     1     -11.460  15.803  64.282  1.00  0.00    -0.198 C  
HETATM    3  H1  UNL     1     -12.374  13.930  64.001  1.00  0.00     0.000 HD 
HETATM    4  H2  UNL     1     -13.168  15.313  63.292  1.00  0.00     0.000 HD 
HETATM    5  O   UNL     1     -11.481  17.005  64.084  1.00  0.00    -1.135 OA 
ENDROOT
BRANCH   2   6
HETATM    6  O   UNL     1     -10.533  15.132  64.990  1.00  0.00    -0.398 OA 
BRANCH   6   7
HETATM    7  C   UNL     1      -9.991  15.748  66.190  1.00  0.00    -0.311 C  
BRANCH   7   8
HETATM    8  C   UNL     1     -10.672  15.086  67.399  1.00  0.00    -0.289 A  
HETATM    9  C   UNL     1     -12.003  13.962  69.642  1.00  0.00    -0.399 A  
HETATM   10  C   UNL     1     -11.387  15.882  68.322  1.00  0.00    -0.342 A  
HETATM   11  C   UNL     1     -10.676  13.695  67.623  1.00  0.00    -0.245 A  
HETATM   12  C   UNL     1     -12.047  15.331  69.422  1.00  0.00    -0.301 A  
HETATM   13  C   UNL     1     -11.318  13.147  68.745  1.00  0.00    -0.333 A  
HETATM   14 CL   UNL     1      -9.969  12.565  66.525  1.00  0.00    -0.243 Cl 
ENDBRANCH   7   8
BRANCH   7  15
HETATM   15  C   UNL     1     -10.104  17.279  66.113  1.00  0.00    -0.302 C  
BRANCH  15  16
HETATM   16  N   UNL     1      -8.826  17.946  66.010  1.00  0.00    -0.507 NA 
HETATM   17  N   UNL     1      -7.674  17.263  65.860  1.00  0.00    -0.478 NA 
HETATM   18  N   UNL     1      -7.451  19.497  65.582  1.00  0.00    -0.423 NA 
HETATM   19  C   UNL     1      -6.843  18.278  65.603  1.00  0.00    -0.228 A  
HETATM   20  N   UNL     1      -8.734  19.277  65.831  1.00  0.00    -0.421 NA 
ENDBRANCH  15  16
ENDBRANCH   7  15
ENDBRANCH   6   7
ENDBRANCH   2   6
TORSDOF 5
ENDMDL
MODEL       59
REMARK 921   NORMALIZED FREE ENERGY PREDICTED BY IDOCK:   -4.79 KCAL/MOL
REMARK 922        TOTAL FREE ENERGY PREDICTED BY IDOCK:   -6.99 KCAL/MOL
REMARK 923 INTER-LIGAND FREE ENERGY PREDICTED BY IDOCK:   -6.55 KCAL/MOL
REMARK 924 INTRA-LIGAND FREE ENERGY PREDICTED BY IDOCK:   -0.44 KCAL/MOL
REMARK 927      BINDING AFFINITY PREDICTED BY RF-SCORE:    0.00 PKD
ROOT
HETATM    1  N   UNL     1     -12.003  15.515  63.924  1.00  0.00    -0.986 N  
HETATM    2  C   UNL     1     -12.100  14.431  64.721  1.00  0.00    -0.452 C  
HETATM    3  H1  UNL     1     -11.255  16.206  63.975  1.00  0.00     0.000 HD 
HETATM    4  H2  UNL     1     -12.730  15.653  63.222  1.00  0.00     0.000 HD 
HETATM    5  O   UNL     1     -12.994  13.605  64.661  1.00  0.00    -0.661 OA 
ENDROOT
BRANCH   2   6
HETATM    6  O   UNL     1     -11.051  14.404  65.564  1.00  0.00    -0.306 OA 
BRANCH   6   7
HETATM    7  C   UNL     1     -11.122  15.179  66.792  1.00  0.00    -0.307 C  
BRANCH   7   8
HETATM    8  C   UNL     1      -9.729  15.774  67.047  1.00  0.00    -0.235 A  
HETATM    9  C   UNL     1      -7.104  16.781  67.451  1.00  0.00    -0.185 A  
HETATM   10  C   UNL     1      -8.584  14.956  66.915  1.00  0.00    -0.269 A  
HETATM   11  C   UNL     1      -9.507  17.131  67.357  1.00  0.00    -0.247 A  
HETATM   12  C   UNL     1      -7.292  15.451  67.108  1.00  0.00    -0.203 A  
HETATM   13  C   UNL     1      -8.209  17.618  67.577  1.00  0.00    -0.221 A  
HETATM   14 CL   UNL     1     -10.779  18.298  67.423  1.00  0.00    -0.418 Cl 
ENDBRANCH   7   8
BRANCH   7  15
HETATM   15  C   UNL     1     -11.709  14.332  67.933  1.00  0.00    -0.359 C  
BRANCH  15  16
HETATM   16  N   UNL     1     -11.302  12.946  67.890  1.00  0.00    -0.274 NA 
HETATM   17  N   UNL     1     -10.128  12.530  68.403  1.00  0.00    -0.224 NA 
HETATM   18  N   UNL     1     -11.512  10.842  67.810  1.00  0.00    -0.513 NA 
HETATM   19  C   UNL     1     -10.303  11.208  68.322  1.00  0.00    -0.180 A  
HETATM   20  N   UNL     1     -12.160  11.968  67.545  1.00  0.00    -0.515 NA 
ENDBRANCH  15  16
ENDBRANCH   7  15
ENDBRANCH   6   7
ENDBRANCH   2   6
TORSDOF 5
ENDMDL
MODEL       60
REMARK 921   NORMALIZED FREE ENERGY PREDICTED BY IDOCK:   -4.79 KCAL/MOL
REMARK 922        TOTAL FREE ENERGY PREDICTED BY IDOCK:   -6.99 KCAL/MOL
REMARK 923 INTER-LIGAND FREE ENERGY PREDICTED BY IDOCK:   -6.40 KCAL/MOL
REMARK 924 INTRA-LIGAND FREE ENERGY PREDICTED BY IDOCK:   -0.59 KCAL/MOL
REMARK 927      BINDING AFFINITY PREDICTED BY RF-SCORE:    0.00 PKD
ROOT
HETATM    1  N   UNL     1     -10.212  19.058  67.269  1.00  0.00    -0.372 N  
HETATM    2  C   UNL     1     -10.482  18.645  66.013  1.00  0.00    -0.414 C  
HETATM    3  H1  UNL     1      -9.665  18.528  67.947  1.00  0.00     0.000 HD 
HETATM    4  H2  UNL     1     -10.583  19.962  67.561  1.00  0.00     0.000 HD 
HETATM    5  O   UNL     1     -11.137  19.278  65.202  1.00  0.00    -0.383 OA 
ENDROOT
BRANCH   2   6
HETATM    6  O   UNL     1      -9.899  17.451  65.803  1.00  0.00    -0.536 OA 
BRANCH   6   7
HETATM    7  C   UNL     1     -10.715  16.251  65.896  1.00  0.00    -0.229 C  
BRANCH   7   8
HETATM    8  C   UNL     1      -9.962  15.246  66.782  1.00  0.00    -0.249 A  
HETATM    9  C   UNL     1      -8.464  13.450  68.394  1.00  0.00    -0.135 A  
HETATM   10  C   UNL     1      -8.564  15.095  66.636  1.00  0.00    -0.279 A  
HETATM   11  C   UNL     1     -10.580  14.484  67.793  1.00  0.00    -0.250 A  
HETATM   12  C   UNL     1      -7.825  14.218  67.432  1.00  0.00    -0.207 A  
HETATM   13  C   UNL     1      -9.838  13.582  68.572  1.00  0.00    -0.189 A  
HETATM   14 CL   UNL     1     -12.252  14.643  68.197  1.00  0.00    -0.186 Cl 
ENDBRANCH   7   8
BRANCH   7  15
HETATM   15  C   UNL     1     -11.106  15.751  64.496  1.00  0.00    -0.277 C  
BRANCH  15  16
HETATM   16  N   UNL     1     -11.668  14.419  64.497  1.00  0.00    -0.421 NA 
HETATM   17  N   UNL     1     -10.905  13.321  64.330  1.00  0.00    -0.388 NA 
HETATM   18  N   UNL     1     -13.032  12.866  64.954  1.00  0.00    -0.823 NA 
HETATM   19  C   UNL     1     -11.806  12.377  64.617  1.00  0.00    -0.380 A  
HETATM   20  N   UNL     1     -12.935  14.187  64.889  1.00  0.00    -0.683 NA 
ENDBRANCH  15  16
ENDBRANCH   7  15
ENDBRANCH   6   7
ENDBRANCH   2   6
TORSDOF 5
ENDMDL
MODEL       61
REMARK 921   NORMALIZED FREE ENERGY PREDICTED BY IDOCK:   -4.77 KCAL/MOL
REMARK 922        TOTAL FREE ENERGY PREDICTED BY IDOCK:   -6.97 KCAL/MOL
REMARK 923 INTER-LIGAND FREE ENERGY PREDICTED BY IDOCK:   -6.28 KCAL/MOL
REMARK 924 INTRA-LIGAND FREE ENERGY PREDICTED BY IDOCK:   -0.69 KCAL/MOL
REMARK 927      BINDING AFFINITY PREDICTED BY RF-SCORE:    0.00 PKD
ROOT
HETATM    1  N   UNL     1     -11.474   8.540  70.708  1.00  0.00    -0.285 N  
HETATM    2  C   UNL     1     -10.781   9.696  70.757  1.00  0.00    -0.331 C  
HETATM    3  H1  UNL     1     -12.481   8.462  70.850  1.00  0.00     0.000 HD 
HETATM    4  H2  UNL     1     -10.954   7.684  70.518  1.00  0.00     0.000 HD 
HETATM    5  O   UNL     1      -9.578   9.790  70.588  1.00  0.00    -0.212 OA 
ENDROOT
BRANCH   2   6
HETATM    6  O   UNL     1     -11.630  10.713  70.996  1.00  0.00    -0.299 OA 
BRANCH   6   7
HETATM    7  C   UNL     1     -11.659  11.830  70.067  1.00  0.00    -0.236 C  
BRANCH   7   8
HETATM    8  C   UNL     1     -12.470  12.959  70.724  1.00  0.00    -0.370 A  
HETATM    9  C   UNL     1     -13.976  14.975  72.041  1.00  0.00    -0.605 A  
HETATM   10  C   UNL     1     -13.296  12.672  71.834  1.00  0.00    -0.485 A  
HETATM   11  C   UNL     1     -12.399  14.306  70.317  1.00  0.00    -0.354 A  
HETATM   12  C   UNL     1     -14.033  13.662  72.487  1.00  0.00    -0.572 A  
HETATM   13  C   UNL     1     -13.162  15.294  70.958  1.00  0.00    -0.546 A  
HETATM   14 CL   UNL     1     -11.339  14.854  69.068  1.00  0.00    -0.290 Cl 
ENDBRANCH   7   8
BRANCH   7  15
HETATM   15  C   UNL     1     -12.147  11.372  68.683  1.00  0.00    -0.145 C  
BRANCH  15  16
HETATM   16  N   UNL     1     -11.332  11.863  67.595  1.00  0.00    -0.282 NA 
HETATM   17  N   UNL     1     -11.872  12.409  66.487  1.00  0.00    -0.563 NA 
HETATM   18  N   UNL     1      -9.628  12.661  66.625  1.00  0.00    -0.243 NA 
HETATM   19  C   UNL     1     -10.766  12.885  65.909  1.00  0.00    -0.271 A  
HETATM   20  N   UNL     1     -10.000  12.012  67.720  1.00  0.00    -0.191 NA 
ENDBRANCH  15  16
ENDBRANCH   7  15
ENDBRANCH   6   7
ENDBRANCH   2   6
TORSDOF 5
ENDMDL
MODEL       62
REMARK 921   NORMALIZED FREE ENERGY PREDICTED BY IDOCK:   -4.76 KCAL/MOL
REMARK 922        TOTAL FREE ENERGY PREDICTED BY IDOCK:   -6.96 KCAL/MOL
REMARK 923 INTER-LIGAND FREE ENERGY PREDICTED BY IDOCK:   -6.15 KCAL/MOL
REMARK 924 INTRA-LIGAND FREE ENERGY PREDICTED BY IDOCK:   -0.81 KCAL/MOL
REMARK 927      BINDING AFFINITY PREDICTED BY RF-SCORE:    0.00 PKD
ROOT
HETATM    1  N   UNL     1      -9.495   8.345  70.280  1.00  0.00    -0.163 N  
HETATM    2  C   UNL     1     -10.217   9.314  69.682  1.00  0.00    -0.208 C  
HETATM    3  H1  UNL     1      -9.399   8.235  71.289  1.00  0.00     0.000 HD 
HETATM    4  H2  UNL     1      -9.012   7.676  69.682  1.00  0.00     0.000 HD 
HETATM    5  O   UNL     1     -10.333   9.447  68.476  1.00  0.00    -0.196 OA 
ENDROOT
BRANCH   2   6
HETATM    6  O   UNL     1     -10.796  10.083  70.623  1.00  0.00    -0.304 OA 
BRANCH   6   7
HETATM    7  C   UNL     1     -12.240  10.249  70.597  1.00  0.00    -0.329 C  
BRANCH   7   8
HETATM    8  C   UNL     1     -12.541  11.733  70.863  1.00  0.00    -0.384 A  
HETATM    9  C   UNL     1     -13.109  14.447  71.478  1.00  0.00    -0.411 A  
HETATM   10  C   UNL     1     -13.216  12.107  72.047  1.00  0.00    -0.496 A  
HETATM   11  C   UNL     1     -12.128  12.775  70.011  1.00  0.00    -0.285 A  
HETATM   12  C   UNL     1     -13.491  13.442  72.354  1.00  0.00    -0.685 A  
HETATM   13  C   UNL     1     -12.430  14.114  70.309  1.00  0.00    -0.416 A  
HETATM   14 CL   UNL     1     -11.176  12.509  68.594  1.00  0.00    -0.295 Cl 
ENDBRANCH   7   8
BRANCH   7  15
HETATM   15  C   UNL     1     -12.919   9.246  71.543  1.00  0.00    -0.359 C  
BRANCH  15  16
HETATM   16  N   UNL     1     -12.117   8.074  71.811  1.00  0.00    -0.291 NA 
HETATM   17  N   UNL     1     -11.387   7.950  72.938  1.00  0.00    -0.401 NA 
HETATM   18  N   UNL     1     -11.510   6.049  71.718  1.00  0.00    -0.280 NA 
HETATM   19  C   UNL     1     -11.022   6.670  72.828  1.00  0.00    -0.258 A  
HETATM   20  N   UNL     1     -12.229   6.956  71.070  1.00  0.00    -0.387 NA 
ENDBRANCH  15  16
ENDBRANCH   7  15
ENDBRANCH   6   7
ENDBRANCH   2   6
TORSDOF 5
ENDMDL
MODEL       63
REMARK 921   NORMALIZED FREE ENERGY PREDICTED BY IDOCK:   -4.76 KCAL/MOL
REMARK 922        TOTAL FREE ENERGY PREDICTED BY IDOCK:   -6.96 KCAL/MOL
REMARK 923 INTER-LIGAND FREE ENERGY PREDICTED BY IDOCK:   -6.19 KCAL/MOL
REMARK 924 INTRA-LIGAND FREE ENERGY PREDICTED BY IDOCK:   -0.76 KCAL/MOL
REMARK 927      BINDING AFFINITY PREDICTED BY RF-SCORE:    0.00 PKD
ROOT
HETATM    1  N   UNL     1      -9.887  15.107  68.615  1.00  0.00    -0.211 N  
HETATM    2  C   UNL     1     -10.668  16.176  68.872  1.00  0.00    -0.280 C  
HETATM    3  H1  UNL     1      -8.896  15.158  68.379  1.00  0.00     0.000 HD 
HETATM    4  H2  UNL     1     -10.317  14.183  68.658  1.00  0.00     0.000 HD 
HETATM    5  O   UNL     1     -11.853  16.116  69.153  1.00  0.00    -0.309 OA 
ENDROOT
BRANCH   2   6
HETATM    6  O   UNL     1      -9.929  17.297  68.789  1.00  0.00    -0.293 OA 
BRANCH   6   7
HETATM    7  C   UNL     1      -9.101  17.502  67.611  1.00  0.00    -0.243 C  
BRANCH   7   8
HETATM    8  C   UNL     1      -7.884  18.337  68.038  1.00  0.00    -0.274 A  
HETATM    9  C   UNL     1      -5.693  19.904  68.937  1.00  0.00    -0.260 A  
HETATM   10  C   UNL     1      -8.021  19.297  69.067  1.00  0.00    -0.299 A  
HETATM   11  C   UNL     1      -6.595  18.167  67.497  1.00  0.00    -0.189 A  
HETATM   12  C   UNL     1      -6.944  20.064  69.515  1.00  0.00    -0.211 A  
HETATM   13  C   UNL     1      -5.520  18.959  67.930  1.00  0.00    -0.177 A  
HETATM   14 CL   UNL     1      -6.221  16.949  66.330  1.00  0.00    -0.140 Cl 
ENDBRANCH   7   8
BRANCH   7  15
HETATM   15  C   UNL     1      -9.936  18.075  66.454  1.00  0.00    -0.362 C  
BRANCH  15  16
HETATM   16  N   UNL     1     -10.342  17.078  65.489  1.00  0.00    -0.623 NA 
HETATM   17  N   UNL     1      -9.976  15.786  65.599  1.00  0.00    -0.343 NA 
HETATM   18  N   UNL     1     -11.536  16.158  64.003  1.00  0.00    -0.856 NA 
HETATM   19  C   UNL     1     -10.742  15.254  64.643  1.00  0.00    -0.200 A  
HETATM   20  N   UNL     1     -11.284  17.334  64.562  1.00  0.00    -0.924 NA 
ENDBRANCH  15  16
ENDBRANCH   7  15
ENDBRANCH   6   7
ENDBRANCH   2   6
TORSDOF 5
ENDMDL
MODEL       64
REMARK 921   NORMALIZED FREE ENERGY PREDICTED BY IDOCK:   -4.76 KCAL/MOL
REMARK 922        TOTAL FREE ENERGY PREDICTED BY IDOCK:   -6.96 KCAL/MOL
REMARK 923 INTER-LIGAND FREE ENERGY PREDICTED BY IDOCK:   -6.89 KCAL/MOL
REMARK 924 INTRA-LIGAND FREE ENERGY PREDICTED BY IDOCK:   -0.07 KCAL/MOL
REMARK 927      BINDING AFFINITY PREDICTED BY RF-SCORE:    0.00 PKD
ROOT
HETATM    1  N   UNL     1     -13.839   8.811  72.884  1.00  0.00    -0.881 N  
HETATM    2  C   UNL     1     -13.948   8.571  71.562  1.00  0.00    -0.351 C  
HETATM    3  H1  UNL     1     -13.473   9.673  73.288  1.00  0.00     0.000 HD 
HETATM    4  H2  UNL     1     -14.142   8.079  73.526  1.00  0.00     0.000 HD 
HETATM    5  O   UNL     1     -14.385   7.540  71.079  1.00  0.00    -0.283 OA 
ENDROOT
BRANCH   2   6
HETATM    6  O   UNL     1     -13.522   9.648  70.877  1.00  0.00    -0.272 OA 
BRANCH   6   7
HETATM    7  C   UNL     1     -12.371  10.382  71.377  1.00  0.00    -0.397 C  
BRANCH   7   8
HETATM    8  C   UNL     1     -12.698  11.880  71.280  1.00  0.00    -0.401 A  
HETATM    9  C   UNL     1     -13.327  14.650  71.223  1.00  0.00    -0.447 A  
HETATM   10  C   UNL     1     -13.487  12.490  72.282  1.00  0.00    -0.490 A  
HETATM   11  C   UNL     1     -12.205  12.720  70.261  1.00  0.00    -0.277 A  
HETATM   12  C   UNL     1     -13.792  13.853  72.259  1.00  0.00    -0.669 A  
HETATM   13  C   UNL     1     -12.537  14.083  70.227  1.00  0.00    -0.354 A  
HETATM   14 CL   UNL     1     -11.119  12.170  69.036  1.00  0.00    -0.287 Cl 
ENDBRANCH   7   8
BRANCH   7  15
HETATM   15  C   UNL     1     -11.087   9.928  70.664  1.00  0.00    -0.340 C  
BRANCH  15  16
HETATM   16  N   UNL     1     -10.227   9.113  71.492  1.00  0.00    -0.341 NA 
HETATM   17  N   UNL     1      -8.886   9.131  71.365  1.00  0.00    -0.326 NA 
HETATM   18  N   UNL     1      -9.612   8.006  73.188  1.00  0.00    -0.281 NA 
HETATM   19  C   UNL     1      -8.549   8.417  72.443  1.00  0.00    -0.193 A  
HETATM   20  N   UNL     1     -10.695   8.470  72.579  1.00  0.00    -0.300 NA 
ENDBRANCH  15  16
ENDBRANCH   7  15
ENDBRANCH   6   7
ENDBRANCH   2   6
TORSDOF 5
ENDMDL
MODEL       65
REMARK 921   NORMALIZED FREE ENERGY PREDICTED BY IDOCK:   -4.75 KCAL/MOL
REMARK 922        TOTAL FREE ENERGY PREDICTED BY IDOCK:   -6.94 KCAL/MOL
REMARK 923 INTER-LIGAND FREE ENERGY PREDICTED BY IDOCK:   -6.58 KCAL/MOL
REMARK 924 INTRA-LIGAND FREE ENERGY PREDICTED BY IDOCK:   -0.36 KCAL/MOL
REMARK 927      BINDING AFFINITY PREDICTED BY RF-SCORE:    0.00 PKD
ROOT
HETATM    1  N   UNL     1     -12.358  11.440  70.466  1.00  0.00    -0.353 N  
HETATM    2  C   UNL     1     -11.510  10.962  69.532  1.00  0.00    -0.301 C  
HETATM    3  H1  UNL     1     -13.216  11.950  70.261  1.00  0.00     0.000 HD 
HETATM    4  H2  UNL     1     -12.123  11.281  71.445  1.00  0.00     0.000 HD 
HETATM    5  O   UNL     1     -10.483  10.352  69.776  1.00  0.00    -0.249 OA 
ENDROOT
BRANCH   2   6
HETATM    6  O   UNL     1     -11.991  11.246  68.308  1.00  0.00    -0.582 OA 
BRANCH   6   7
HETATM    7  C   UNL     1     -11.881  12.609  67.814  1.00  0.00    -0.323 C  
BRANCH   7   8
HETATM    8  C   UNL     1     -11.654  12.536  66.296  1.00  0.00    -0.449 A  
HETATM    9  C   UNL     1     -11.295  12.509  63.478  1.00  0.00    -0.556 A  
HETATM   10  C   UNL     1     -12.482  13.284  65.428  1.00  0.00    -0.543 A  
HETATM   11  C   UNL     1     -10.613  11.796  65.700  1.00  0.00    -0.268 A  
HETATM   12  C   UNL     1     -12.303  13.277  64.043  1.00  0.00    -0.415 A  
HETATM   13  C   UNL     1     -10.454  11.770  64.305  1.00  0.00    -0.373 A  
HETATM   14 CL   UNL     1      -9.429  10.935  66.617  1.00  0.00    -0.197 Cl 
ENDBRANCH   7   8
BRANCH   7  15
HETATM   15  C   UNL     1     -10.827  13.392  68.613  1.00  0.00    -0.263 C  
BRANCH  15  16
HETATM   16  N   UNL     1     -11.387  14.454  69.418  1.00  0.00    -0.269 NA 
HETATM   17  N   UNL     1     -12.615  14.364  69.965  1.00  0.00    -0.298 NA 
HETATM   18  N   UNL     1     -11.415  16.133  70.706  1.00  0.00    -0.407 NA 
HETATM   19  C   UNL     1     -12.588  15.442  70.755  1.00  0.00    -0.442 A  
HETATM   20  N   UNL     1     -10.636  15.484  69.851  1.00  0.00    -0.294 NA 
ENDBRANCH  15  16
ENDBRANCH   7  15
ENDBRANCH   6   7
ENDBRANCH   2   6
TORSDOF 5
ENDMDL
MODEL       66
REMARK 921   NORMALIZED FREE ENERGY PREDICTED BY IDOCK:   -4.74 KCAL/MOL
REMARK 922        TOTAL FREE ENERGY PREDICTED BY IDOCK:   -6.94 KCAL/MOL
REMARK 923 INTER-LIGAND FREE ENERGY PREDICTED BY IDOCK:   -6.43 KCAL/MOL
REMARK 924 INTRA-LIGAND FREE ENERGY PREDICTED BY IDOCK:   -0.51 KCAL/MOL
REMARK 927      BINDING AFFINITY PREDICTED BY RF-SCORE:    0.00 PKD
ROOT
HETATM    1  N   UNL     1     -12.790  12.573  64.154  1.00  0.00    -0.746 N  
HETATM    2  C   UNL     1     -12.606  13.828  64.611  1.00  0.00    -0.246 C  
HETATM    3  H1  UNL     1     -12.811  11.740  64.742  1.00  0.00     0.000 HD 
HETATM    4  H2  UNL     1     -12.915  12.447  63.150  1.00  0.00     0.000 HD 
HETATM    5  O   UNL     1     -12.579  14.824  63.907  1.00  0.00    -0.834 OA 
ENDROOT
BRANCH   2   6
HETATM    6  O   UNL     1     -12.481  13.800  65.950  1.00  0.00    -0.457 OA 
BRANCH   6   7
HETATM    7  C   UNL     1     -11.418  13.000  66.535  1.00  0.00    -0.340 C  
BRANCH   7   8
HETATM    8  C   UNL     1     -11.770  12.771  68.014  1.00  0.00    -0.405 A  
HETATM    9  C   UNL     1     -12.370  12.231  70.737  1.00  0.00    -0.383 A  
HETATM   10  C   UNL     1     -11.861  11.452  68.514  1.00  0.00    -0.364 A  
HETATM   11  C   UNL     1     -11.959  13.815  68.940  1.00  0.00    -0.359 A  
HETATM   12  C   UNL     1     -12.150  11.184  69.854  1.00  0.00    -0.418 A  
HETATM   13  C   UNL     1     -12.276  13.543  70.280  1.00  0.00    -0.417 A  
HETATM   14 CL   UNL     1     -11.751  15.481  68.531  1.00  0.00    -0.378 Cl 
ENDBRANCH   7   8
BRANCH   7  15
HETATM   15  C   UNL     1     -10.046  13.639  66.264  1.00  0.00    -0.299 C  
BRANCH  15  16
HETATM   16  N   UNL     1      -8.942  12.884  66.812  1.00  0.00    -0.208 NA 
HETATM   17  N   UNL     1      -8.277  13.287  67.912  1.00  0.00    -0.149 NA 
HETATM   18  N   UNL     1      -7.743  11.194  67.242  1.00  0.00    -0.123 NA 
HETATM   19  C   UNL     1      -7.533  12.200  68.136  1.00  0.00    -0.114 A  
HETATM   20  N   UNL     1      -8.665  11.634  66.396  1.00  0.00    -0.190 NA 
ENDBRANCH  15  16
ENDBRANCH   7  15
ENDBRANCH   6   7
ENDBRANCH   2   6
TORSDOF 5
ENDMDL
MODEL       67
REMARK 921   NORMALIZED FREE ENERGY PREDICTED BY IDOCK:   -4.74 KCAL/MOL
REMARK 922        TOTAL FREE ENERGY PREDICTED BY IDOCK:   -6.93 KCAL/MOL
REMARK 923 INTER-LIGAND FREE ENERGY PREDICTED BY IDOCK:   -6.39 KCAL/MOL
REMARK 924 INTRA-LIGAND FREE ENERGY PREDICTED BY IDOCK:   -0.54 KCAL/MOL
REMARK 927      BINDING AFFINITY PREDICTED BY RF-SCORE:    0.00 PKD
ROOT
HETATM    1  N   UNL     1     -12.082  13.076  70.575  1.00  0.00    -0.493 N  
HETATM    2  C   UNL     1     -12.387  14.161  69.835  1.00  0.00    -0.327 C  
HETATM    3  H1  UNL     1     -11.852  12.160  70.192  1.00  0.00     0.000 HD 
HETATM    4  H2  UNL     1     -12.082  13.180  71.590  1.00  0.00     0.000 HD 
HETATM    5  O   UNL     1     -12.661  15.257  70.292  1.00  0.00    -0.366 OA 
ENDROOT
BRANCH   2   6
HETATM    6  O   UNL     1     -12.316  13.842  68.529  1.00  0.00    -0.272 OA 
BRANCH   6   7
HETATM    7  C   UNL     1     -11.084  13.263  68.019  1.00  0.00    -0.256 C  
BRANCH   7   8
HETATM    8  C   UNL     1     -10.273  14.394  67.369  1.00  0.00    -0.247 A  
HETATM    9  C   UNL     1      -8.871  16.562  66.184  1.00  0.00    -0.342 A  
HETATM   10  C   UNL     1     -10.944  15.516  66.831  1.00  0.00    -0.268 A  
HETATM   11  C   UNL     1      -8.865  14.413  67.321  1.00  0.00    -0.213 A  
HETATM   12  C   UNL     1     -10.256  16.586  66.254  1.00  0.00    -0.343 A  
HETATM   13  C   UNL     1      -8.178  15.477  66.715  1.00  0.00    -0.277 A  
HETATM   14 CL   UNL     1      -7.885  13.192  68.049  1.00  0.00    -0.133 Cl 
ENDBRANCH   7   8
BRANCH   7  15
HETATM   15  C   UNL     1     -11.387  12.052  67.120  1.00  0.00    -0.333 C  
BRANCH  15  16
HETATM   16  N   UNL     1     -11.540  12.395  65.725  1.00  0.00    -0.380 NA 
HETATM   17  N   UNL     1     -10.618  12.060  64.801  1.00  0.00    -0.283 NA 
HETATM   18  N   UNL     1     -12.538  12.870  63.920  1.00  0.00    -0.695 NA 
HETATM   19  C   UNL     1     -11.286  12.385  63.690  1.00  0.00    -0.474 A  
HETATM   20  N   UNL     1     -12.704  12.862  65.235  1.00  0.00    -0.688 NA 
ENDBRANCH  15  16
ENDBRANCH   7  15
ENDBRANCH   6   7
ENDBRANCH   2   6
TORSDOF 5
ENDMDL
MODEL       68
REMARK 921   NORMALIZED FREE ENERGY PREDICTED BY IDOCK:   -4.74 KCAL/MOL
REMARK 922        TOTAL FREE ENERGY PREDICTED BY IDOCK:   -6.93 KCAL/MOL
REMARK 923 INTER-LIGAND FREE ENERGY PREDICTED BY IDOCK:   -5.98 KCAL/MOL
REMARK 924 INTRA-LIGAND FREE ENERGY PREDICTED BY IDOCK:   -0.95 KCAL/MOL
REMARK 927      BINDING AFFINITY PREDICTED BY RF-SCORE:    0.00 PKD
ROOT
HETATM    1  N   UNL     1     -12.741  10.154  70.122  1.00  0.00    -0.556 N  
HETATM    2  C   UNL     1     -12.254  11.272  69.546  1.00  0.00    -0.256 C  
HETATM    3  H1  UNL     1     -13.059   9.331  69.611  1.00  0.00     0.000 HD 
HETATM    4  H2  UNL     1     -12.796  10.131  71.140  1.00  0.00     0.000 HD 
HETATM    5  O   UNL     1     -11.874  12.256  70.156  1.00  0.00    -0.328 OA 
ENDROOT
BRANCH   2   6
HETATM    6  O   UNL     1     -12.237  11.112  68.210  1.00  0.00    -0.613 OA 
BRANCH   6   7
HETATM    7  C   UNL     1     -10.977  11.278  67.503  1.00  0.00    -0.265 C  
BRANCH   7   8
HETATM    8  C   UNL     1     -11.281  11.983  66.172  1.00  0.00    -0.394 A  
HETATM    9  C   UNL     1     -11.855  13.174  63.658  1.00  0.00    -0.549 A  
HETATM   10  C   UNL     1     -11.109  11.285  64.956  1.00  0.00    -0.159 A  
HETATM   11  C   UNL     1     -11.787  13.295  66.085  1.00  0.00    -0.390 A  
HETATM   12  C   UNL     1     -11.396  11.866  63.719  1.00  0.00    -0.532 A  
HETATM   13  C   UNL     1     -12.048  13.886  64.838  1.00  0.00    -0.434 A  
HETATM   14 CL   UNL     1     -12.184  14.242  67.473  1.00  0.00    -0.332 Cl 
ENDBRANCH   7   8
BRANCH   7  15
HETATM   15  C   UNL     1     -10.233   9.937  67.398  1.00  0.00    -0.222 C  
BRANCH  15  16
HETATM   16  N   UNL     1      -9.774   9.432  68.672  1.00  0.00    -0.150 NA 
HETATM   17  N   UNL     1      -9.000  10.167  69.494  1.00  0.00    -0.200 NA 
HETATM   18  N   UNL     1      -9.780   8.264  70.437  1.00  0.00    -0.167 NA 
HETATM   19  C   UNL     1      -9.026   9.390  70.581  1.00  0.00    -0.228 A  
HETATM   20  N   UNL     1     -10.273   8.302  69.206  1.00  0.00    -0.201 NA 
ENDBRANCH  15  16
ENDBRANCH   7  15
ENDBRANCH   6   7
ENDBRANCH   2   6
TORSDOF 5
ENDMDL
MODEL       69
REMARK 921   NORMALIZED FREE ENERGY PREDICTED BY IDOCK:   -4.73 KCAL/MOL
REMARK 922        TOTAL FREE ENERGY PREDICTED BY IDOCK:   -6.92 KCAL/MOL
REMARK 923 INTER-LIGAND FREE ENERGY PREDICTED BY IDOCK:   -6.45 KCAL/MOL
REMARK 924 INTRA-LIGAND FREE ENERGY PREDICTED BY IDOCK:   -0.47 KCAL/MOL
REMARK 927      BINDING AFFINITY PREDICTED BY RF-SCORE:    0.00 PKD
ROOT
HETATM    1  N   UNL     1     -10.289  18.824  65.884  1.00  0.00    -0.407 N  
HETATM    2  C   UNL     1     -10.539  17.564  65.474  1.00  0.00    -0.092 C  
HETATM    3  H1  UNL     1      -9.741  19.066  66.709  1.00  0.00     0.000 HD 
HETATM    4  H2  UNL     1     -10.676  19.589  65.331  1.00  0.00     0.000 HD 
HETATM    5  O   UNL     1     -11.195  17.274  64.488  1.00  0.00    -1.083 OA 
ENDROOT
BRANCH   2   6
HETATM    6  O   UNL     1      -9.937  16.697  66.308  1.00  0.00    -0.286 OA 
BRANCH   6   7
HETATM    7  C   UNL     1     -10.558  15.403  66.537  1.00  0.00    -0.306 C  
BRANCH   7   8
HETATM    8  C   UNL     1     -10.934  15.326  68.026  1.00  0.00    -0.299 A  
HETATM    9  C   UNL     1     -11.624  15.308  70.781  1.00  0.00    -0.371 A  
HETATM   10  C   UNL     1     -10.654  16.420  68.875  1.00  0.00    -0.307 A  
HETATM   11  C   UNL     1     -11.605  14.230  68.602  1.00  0.00    -0.317 A  
HETATM   12  C   UNL     1     -10.998  16.416  70.229  1.00  0.00    -0.262 A  
HETATM   13  C   UNL     1     -11.925  14.217  69.969  1.00  0.00    -0.396 A  
HETATM   14 CL   UNL     1     -12.143  12.869  67.683  1.00  0.00    -0.331 Cl 
ENDBRANCH   7   8
BRANCH   7  15
HETATM   15  C   UNL     1      -9.662  14.270  66.011  1.00  0.00    -0.287 C  
BRANCH  15  16
HETATM   16  N   UNL     1     -10.283  13.482  64.971  1.00  0.00    -0.343 NA 
HETATM   17  N   UNL     1     -10.173  12.140  64.929  1.00  0.00    -0.276 NA 
HETATM   18  N   UNL     1     -11.677  12.976  63.461  1.00  0.00    -0.495 NA 
HETATM   19  C   UNL     1     -11.057  11.872  63.963  1.00  0.00    -0.391 A  
HETATM   20  N   UNL     1     -11.185  14.014  64.124  1.00  0.00    -0.199 NA 
ENDBRANCH  15  16
ENDBRANCH   7  15
ENDBRANCH   6   7
ENDBRANCH   2   6
TORSDOF 5
ENDMDL
MODEL       70
REMARK 921   NORMALIZED FREE ENERGY PREDICTED BY IDOCK:   -4.72 KCAL/MOL
REMARK 922        TOTAL FREE ENERGY PREDICTED BY IDOCK:   -6.90 KCAL/MOL
REMARK 923 INTER-LIGAND FREE ENERGY PREDICTED BY IDOCK:   -6.25 KCAL/MOL
REMARK 924 INTRA-LIGAND FREE ENERGY PREDICTED BY IDOCK:   -0.65 KCAL/MOL
REMARK 927      BINDING AFFINITY PREDICTED BY RF-SCORE:    0.00 PKD
ROOT
HETATM    1  N   UNL     1      -9.347  11.790  68.859  1.00  0.00    -0.406 N  
HETATM    2  C   UNL     1      -9.093  12.500  67.741  1.00  0.00    -0.191 C  
HETATM    3  H1  UNL     1      -9.676  12.191  69.737  1.00  0.00     0.000 HD 
HETATM    4  H2  UNL     1      -9.199  10.782  68.824  1.00  0.00     0.000 HD 
HETATM    5  O   UNL     1      -8.700  12.022  66.691  1.00  0.00    -0.194 OA 
ENDROOT
BRANCH   2   6
HETATM    6  O   UNL     1      -9.364  13.799  67.968  1.00  0.00    -0.186 OA 
BRANCH   6   7
HETATM    7  C   UNL     1     -10.187  14.518  67.010  1.00  0.00    -0.262 C  
BRANCH   7   8
HETATM    8  C   UNL     1     -10.216  15.994  67.438  1.00  0.00    -0.273 A  
HETATM    9  C   UNL     1     -10.189  18.693  68.322  1.00  0.00    -0.423 A  
HETATM   10  C   UNL     1      -9.839  16.348  68.754  1.00  0.00    -0.250 A  
HETATM   11  C   UNL     1     -10.549  17.050  66.567  1.00  0.00    -0.172 A  
HETATM   12  C   UNL     1      -9.819  17.675  69.188  1.00  0.00    -0.145 A  
HETATM   13  C   UNL     1     -10.554  18.380  67.016  1.00  0.00    -0.400 A  
HETATM   14 CL   UNL     1     -10.902  16.810  64.894  1.00  0.00    -0.229 Cl 
ENDBRANCH   7   8
BRANCH   7  15
HETATM   15  C   UNL     1     -11.558  13.838  66.855  1.00  0.00    -0.370 C  
BRANCH  15  16
HETATM   16  N   UNL     1     -11.850  13.437  65.497  1.00  0.00    -0.345 NA 
HETATM   17  N   UNL     1     -10.893  13.370  64.550  1.00  0.00    -0.387 NA 
HETATM   18  N   UNL     1     -12.870  12.473  63.913  1.00  0.00    -0.754 NA 
HETATM   19  C   UNL     1     -11.583  12.769  63.577  1.00  0.00    -0.501 A  
HETATM   20  N   UNL     1     -13.035  12.893  65.160  1.00  0.00    -0.769 NA 
ENDBRANCH  15  16
ENDBRANCH   7  15
ENDBRANCH   6   7
ENDBRANCH   2   6
TORSDOF 5
ENDMDL
MODEL       71
REMARK 921   NORMALIZED FREE ENERGY PREDICTED BY IDOCK:   -4.69 KCAL/MOL
REMARK 922        TOTAL FREE ENERGY PREDICTED BY IDOCK:   -6.86 KCAL/MOL
REMARK 923 INTER-LIGAND FREE ENERGY PREDICTED BY IDOCK:   -5.85 KCAL/MOL
REMARK 924 INTRA-LIGAND FREE ENERGY PREDICTED BY IDOCK:   -1.02 KCAL/MOL
REMARK 927      BINDING AFFINITY PREDICTED BY RF-SCORE:    0.00 PKD
ROOT
HETATM    1  N   UNL     1     -10.566  15.008  69.756  1.00  0.00    -0.363 N  
HETATM    2  C   UNL     1     -10.907  13.997  68.932  1.00  0.00    -0.258 C  
HETATM    3  H1  UNL     1      -9.750  15.607  69.631  1.00  0.00     0.000 HD 
HETATM    4  H2  UNL     1     -11.166  15.186  70.561  1.00  0.00     0.000 HD 
HETATM    5  O   UNL     1     -11.882  13.280  69.081  1.00  0.00    -0.301 OA 
ENDROOT
BRANCH   2   6
HETATM    6  O   UNL     1     -10.019  13.927  67.923  1.00  0.00    -0.230 OA 
BRANCH   6   7
HETATM    7  C   UNL     1     -10.379  14.497  66.636  1.00  0.00    -0.274 C  
BRANCH   7   8
HETATM    8  C   UNL     1     -10.486  13.340  65.630  1.00  0.00    -0.286 A  
HETATM    9  C   UNL     1     -10.643  11.124  63.859  1.00  0.00    -0.431 A  
HETATM   10  C   UNL     1      -9.749  12.154  65.847  1.00  0.00    -0.253 A  
HETATM   11  C   UNL     1     -11.335  13.364  64.505  1.00  0.00    -0.366 A  
HETATM   12  C   UNL     1      -9.829  11.061  64.981  1.00  0.00    -0.321 A  
HETATM   13  C   UNL     1     -11.392  12.274  63.622  1.00  0.00    -0.547 A  
HETATM   14 CL   UNL     1     -12.405  14.676  64.164  1.00  0.00    -0.434 Cl 
ENDBRANCH   7   8
BRANCH   7  15
HETATM   15  C   UNL     1      -9.412  15.630  66.254  1.00  0.00    -0.319 C  
BRANCH  15  16
HETATM   16  N   UNL     1      -9.481  16.768  67.144  1.00  0.00    -0.228 NA 
HETATM   17  N   UNL     1     -10.656  17.284  67.555  1.00  0.00    -0.351 NA 
HETATM   18  N   UNL     1      -8.861  18.122  68.648  1.00  0.00    -0.292 NA 
HETATM   19  C   UNL     1     -10.214  18.132  68.488  1.00  0.00    -0.384 A  
HETATM   20  N   UNL     1      -8.392  17.229  67.787  1.00  0.00    -0.208 NA 
ENDBRANCH  15  16
ENDBRANCH   7  15
ENDBRANCH   6   7
ENDBRANCH   2   6
TORSDOF 5
ENDMDL
MODEL       72
REMARK 921   NORMALIZED FREE ENERGY PREDICTED BY IDOCK:   -4.63 KCAL/MOL
REMARK 922        TOTAL FREE ENERGY PREDICTED BY IDOCK:   -6.79 KCAL/MOL
REMARK 923 INTER-LIGAND FREE ENERGY PREDICTED BY IDOCK:   -5.53 KCAL/MOL
REMARK 924 INTRA-LIGAND FREE ENERGY PREDICTED BY IDOCK:   -1.26 KCAL/MOL
REMARK 927      BINDING AFFINITY PREDICTED BY RF-SCORE:    0.00 PKD
ROOT
HETATM    1  N   UNL     1      -7.685  17.371  67.776  1.00  0.00    -0.192 N  
HETATM    2  C   UNL     1      -7.974  16.249  68.465  1.00  0.00    -0.184 C  
HETATM    3  H1  UNL     1      -8.255  17.749  67.020  1.00  0.00     0.000 HD 
HETATM    4  H2  UNL     1      -6.836  17.877  68.027  1.00  0.00     0.000 HD 
HETATM    5  O   UNL     1      -7.292  15.796  69.368  1.00  0.00    -0.205 OA 
ENDROOT
BRANCH   2   6
HETATM    6  O   UNL     1      -9.131  15.734  68.011  1.00  0.00    -0.185 OA 
BRANCH   6   7
HETATM    7  C   UNL     1     -10.372  16.131  68.657  1.00  0.00    -0.252 C  
BRANCH   7   8
HETATM    8  C   UNL     1     -11.022  14.863  69.233  1.00  0.00    -0.279 A  
HETATM    9  C   UNL     1     -12.149  12.451  70.222  1.00  0.00    -0.377 A  
HETATM   10  C   UNL     1     -10.958  13.653  68.506  1.00  0.00    -0.289 A  
HETATM   11  C   UNL     1     -11.644  14.813  70.496  1.00  0.00    -0.279 A  
HETATM   12  C   UNL     1     -11.507  12.464  68.993  1.00  0.00    -0.352 A  
HETATM   13  C   UNL     1     -12.218  13.623  70.970  1.00  0.00    -0.374 A  
HETATM   14 CL   UNL     1     -11.691  16.162  71.573  1.00  0.00    -0.536 Cl 
ENDBRANCH   7   8
BRANCH   7  15
HETATM   15  C   UNL     1     -11.245  16.955  67.696  1.00  0.00     0.055 C  
BRANCH  15  16
HETATM   16  N   UNL     1     -10.634  18.200  67.289  1.00  0.00    -0.390 NA 
HETATM   17  N   UNL     1     -10.515  19.246  68.131  1.00  0.00    -0.386 NA 
HETATM   18  N   UNL     1      -9.376  19.502  66.193  1.00  0.00    -0.379 NA 
HETATM   19  C   UNL     1      -9.728  20.036  67.395  1.00  0.00    -0.417 A  
HETATM   20  N   UNL     1      -9.953  18.309  66.133  1.00  0.00    -0.511 NA 
ENDBRANCH  15  16
ENDBRANCH   7  15
ENDBRANCH   6   7
ENDBRANCH   2   6
TORSDOF 5
ENDMDL
MODEL       73
REMARK 921   NORMALIZED FREE ENERGY PREDICTED BY IDOCK:   -4.62 KCAL/MOL
REMARK 922        TOTAL FREE ENERGY PREDICTED BY IDOCK:   -6.78 KCAL/MOL
REMARK 923 INTER-LIGAND FREE ENERGY PREDICTED BY IDOCK:   -5.72 KCAL/MOL
REMARK 924 INTRA-LIGAND FREE ENERGY PREDICTED BY IDOCK:   -1.06 KCAL/MOL
REMARK 927      BINDING AFFINITY PREDICTED BY RF-SCORE:    0.00 PKD
ROOT
HETATM    1  N   UNL     1     -12.632  12.006  70.929  1.00  0.00    -0.311 N  
HETATM    2  C   UNL     1     -12.733  10.822  71.568  1.00  0.00    -0.431 C  
HETATM    3  H1  UNL     1     -11.788  12.346  70.471  1.00  0.00     0.000 HD 
HETATM    4  H2  UNL     1     -13.459  12.603  70.904  1.00  0.00     0.000 HD 
HETATM    5  O   UNL     1     -13.743  10.415  72.117  1.00  0.00    -0.232 OA 
ENDROOT
BRANCH   2   6
HETATM    6  O   UNL     1     -11.560  10.168  71.479  1.00  0.00    -0.319 OA 
BRANCH   6   7
HETATM    7  C   UNL     1     -11.447   9.062  70.544  1.00  0.00    -0.212 C  
BRANCH   7   8
HETATM    8  C   UNL     1     -11.004   7.824  71.339  1.00  0.00    -0.264 A  
HETATM    9  C   UNL     1     -10.224   5.594  72.915  1.00  0.00    -0.212 A  
HETATM   10  C   UNL     1     -10.754   7.937  72.726  1.00  0.00    -0.435 A  
HETATM   11  C   UNL     1     -10.880   6.540  70.775  1.00  0.00    -0.261 A  
HETATM   12  C   UNL     1     -10.377   6.840  73.504  1.00  0.00    -0.342 A  
HETATM   13  C   UNL     1     -10.474   5.445  71.554  1.00  0.00    -0.289 A  
HETATM   14 CL   UNL     1     -11.277   6.196  69.129  1.00  0.00    -0.461 Cl 
ENDBRANCH   7   8
BRANCH   7  15
HETATM   15  C   UNL     1     -10.555   9.448  69.352  1.00  0.00    -0.221 C  
BRANCH  15  16
HETATM   16  N   UNL     1     -10.884  10.735  68.781  1.00  0.00    -0.204 NA 
HETATM   17  N   UNL     1      -9.981  11.732  68.699  1.00  0.00    -0.202 NA 
HETATM   18  N   UNL     1     -11.895  12.140  67.562  1.00  0.00    -0.553 NA 
HETATM   19  C   UNL     1     -10.664  12.590  67.936  1.00  0.00    -0.217 A  
HETATM   20  N   UNL     1     -12.028  10.934  68.099  1.00  0.00    -0.550 NA 
ENDBRANCH  15  16
ENDBRANCH   7  15
ENDBRANCH   6   7
ENDBRANCH   2   6
TORSDOF 5
ENDMDL
MODEL       74
REMARK 921   NORMALIZED FREE ENERGY PREDICTED BY IDOCK:   -4.62 KCAL/MOL
REMARK 922        TOTAL FREE ENERGY PREDICTED BY IDOCK:   -6.78 KCAL/MOL
REMARK 923 INTER-LIGAND FREE ENERGY PREDICTED BY IDOCK:   -6.57 KCAL/MOL
REMARK 924 INTRA-LIGAND FREE ENERGY PREDICTED BY IDOCK:   -0.20 KCAL/MOL
REMARK 927      BINDING AFFINITY PREDICTED BY RF-SCORE:    0.00 PKD
ROOT
HETATM    1  N   UNL     1     -11.455  10.109  68.752  1.00  0.00    -0.491 N  
HETATM    2  C   UNL     1     -10.986  11.237  68.182  1.00  0.00    -0.231 C  
HETATM    3  H1  UNL     1     -12.443   9.906  68.905  1.00  0.00     0.000 HD 
HETATM    4  H2  UNL     1     -10.775   9.411  69.052  1.00  0.00     0.000 HD 
HETATM    5  O   UNL     1      -9.805  11.481  67.999  1.00  0.00    -0.176 OA 
ENDROOT
BRANCH   2   6
HETATM    6  O   UNL     1     -12.021  12.024  67.835  1.00  0.00    -0.526 OA 
BRANCH   6   7
HETATM    7  C   UNL     1     -12.106  13.357  68.408  1.00  0.00    -0.235 C  
BRANCH   7   8
HETATM    8  C   UNL     1     -11.304  14.305  67.502  1.00  0.00    -0.346 A  
HETATM    9  C   UNL     1      -9.729  16.052  65.910  1.00  0.00    -0.378 A  
HETATM   10  C   UNL     1     -10.238  15.057  68.045  1.00  0.00    -0.228 A  
HETATM   11  C   UNL     1     -11.532  14.435  66.117  1.00  0.00    -0.357 A  
HETATM   12  C   UNL     1      -9.459  15.912  67.263  1.00  0.00    -0.217 A  
HETATM   13  C   UNL     1     -10.764  15.316  65.340  1.00  0.00    -0.407 A  
HETATM   14 CL   UNL     1     -12.702  13.491  65.266  1.00  0.00    -0.511 Cl 
ENDBRANCH   7   8
BRANCH   7  15
HETATM   15  C   UNL     1     -11.695  13.339  69.890  1.00  0.00    -0.259 C  
BRANCH  15  16
HETATM   16  N   UNL     1     -12.697  13.893  70.771  1.00  0.00    -0.329 NA 
HETATM   17  N   UNL     1     -13.165  13.215  71.838  1.00  0.00    -0.437 NA 
HETATM   18  N   UNL     1     -13.819  15.379  71.777  1.00  0.00    -0.499 NA 
HETATM   19  C   UNL     1     -13.869  14.185  72.429  1.00  0.00    -0.536 A  
HETATM   20  N   UNL     1     -13.050  15.191  70.713  1.00  0.00    -0.408 NA 
ENDBRANCH  15  16
ENDBRANCH   7  15
ENDBRANCH   6   7
ENDBRANCH   2   6
TORSDOF 5
ENDMDL
MODEL       75
REMARK 921   NORMALIZED FREE ENERGY PREDICTED BY IDOCK:   -4.61 KCAL/MOL
REMARK 922        TOTAL FREE ENERGY PREDICTED BY IDOCK:   -6.77 KCAL/MOL
REMARK 923 INTER-LIGAND FREE ENERGY PREDICTED BY IDOCK:   -6.29 KCAL/MOL
REMARK 924 INTRA-LIGAND FREE ENERGY PREDICTED BY IDOCK:   -0.48 KCAL/MOL
REMARK 927      BINDING AFFINITY PREDICTED BY RF-SCORE:    0.00 PKD
ROOT
HETATM    1  N   UNL     1     -12.887  12.866  64.911  1.00  0.00    -0.738 N  
HETATM    2  C   UNL     1     -11.918  13.730  65.276  1.00  0.00    -0.374 C  
HETATM    3  H1  UNL     1     -13.720  12.664  65.464  1.00  0.00     0.000 HD 
HETATM    4  H2  UNL     1     -12.780  12.381  64.021  1.00  0.00     0.000 HD 
HETATM    5  O   UNL     1     -10.922  13.973  64.616  1.00  0.00    -0.384 OA 
ENDROOT
BRANCH   2   6
HETATM    6  O   UNL     1     -12.240  14.286  66.459  1.00  0.00    -0.441 OA 
BRANCH   6   7
HETATM    7  C   UNL     1     -11.172  14.611  67.391  1.00  0.00    -0.342 C  
BRANCH   7   8
HETATM    8  C   UNL     1     -11.719  14.409  68.812  1.00  0.00    -0.372 A  
HETATM    9  C   UNL     1     -12.783  14.150  71.434  1.00  0.00    -0.439 A  
HETATM   10  C   UNL     1     -12.093  15.533  69.584  1.00  0.00    -0.352 A  
HETATM   11  C   UNL     1     -11.930  13.142  69.392  1.00  0.00    -0.291 A  
HETATM   12  C   UNL     1     -12.622  15.408  70.870  1.00  0.00    -0.496 A  
HETATM   13  C   UNL     1     -12.435  13.021  70.696  1.00  0.00    -0.347 A  
HETATM   14 CL   UNL     1     -11.656  11.664  68.542  1.00  0.00    -0.350 Cl 
ENDBRANCH   7   8
BRANCH   7  15
HETATM   15  C   UNL     1     -10.591  16.002  67.086  1.00  0.00    -0.305 C  
BRANCH  15  16
HETATM   16  N   UNL     1      -9.186  16.120  67.404  1.00  0.00    -0.206 NA 
HETATM   17  N   UNL     1      -8.758  16.460  68.635  1.00  0.00    -0.223 NA 
HETATM   18  N   UNL     1      -7.105  15.763  67.256  1.00  0.00    -0.203 NA 
HETATM   19  C   UNL     1      -7.450  16.229  68.489  1.00  0.00    -0.176 A  
HETATM   20  N   UNL     1      -8.232  15.680  66.562  1.00  0.00    -0.248 NA 
ENDBRANCH  15  16
ENDBRANCH   7  15
ENDBRANCH   6   7
ENDBRANCH   2   6
TORSDOF 5
ENDMDL
MODEL       76
REMARK 921   NORMALIZED FREE ENERGY PREDICTED BY IDOCK:   -4.60 KCAL/MOL
REMARK 922        TOTAL FREE ENERGY PREDICTED BY IDOCK:   -6.75 KCAL/MOL
REMARK 923 INTER-LIGAND FREE ENERGY PREDICTED BY IDOCK:   -5.69 KCAL/MOL
REMARK 924 INTRA-LIGAND FREE ENERGY PREDICTED BY IDOCK:   -1.06 KCAL/MOL
REMARK 927      BINDING AFFINITY PREDICTED BY RF-SCORE:    0.00 PKD
ROOT
HETATM    1  N   UNL     1     -11.639   6.810  69.565  1.00  0.00    -0.620 N  
HETATM    2  C   UNL     1     -10.937   6.941  68.420  1.00  0.00    -0.132 C  
HETATM    3  H1  UNL     1     -11.589   7.456  70.352  1.00  0.00     0.000 HD 
HETATM    4  H2  UNL     1     -12.262   6.007  69.649  1.00  0.00     0.000 HD 
HETATM    5  O   UNL     1     -10.995   6.168  67.480  1.00  0.00    -0.316 OA 
ENDROOT
BRANCH   2   6
HETATM    6  O   UNL     1     -10.192   8.060  68.482  1.00  0.00    -0.198 OA 
BRANCH   6   7
HETATM    7  C   UNL     1     -10.869   9.345  68.549  1.00  0.00    -0.105 C  
BRANCH   7   8
HETATM    8  C   UNL     1     -10.552  10.105  67.251  1.00  0.00    -0.321 A  
HETATM    9  C   UNL     1      -9.949  11.398  64.795  1.00  0.00    -0.313 A  
HETATM   10  C   UNL     1      -9.815   9.465  66.229  1.00  0.00    -0.351 A  
HETATM   11  C   UNL     1     -11.007  11.411  66.983  1.00  0.00    -0.292 A  
HETATM   12  C   UNL     1      -9.523  10.097  65.018  1.00  0.00    -0.330 A  
HETATM   13  C   UNL     1     -10.688  12.053  65.776  1.00  0.00    -0.319 A  
HETATM   14 CL   UNL     1     -12.032  12.287  68.063  1.00  0.00    -0.353 Cl 
ENDBRANCH   7   8
BRANCH   7  15
HETATM   15  C   UNL     1     -10.518  10.076  69.856  1.00  0.00    -0.274 C  
BRANCH  15  16
HETATM   16  N   UNL     1     -11.174   9.520  71.018  1.00  0.00    -0.330 NA 
HETATM   17  N   UNL     1     -12.510   9.579  71.182  1.00  0.00    -0.319 NA 
HETATM   18  N   UNL     1     -11.467   8.249  72.685  1.00  0.00    -0.389 NA 
HETATM   19  C   UNL     1     -12.642   8.776  72.242  1.00  0.00    -0.394 A  
HETATM   20  N   UNL     1     -10.521   8.721  71.884  1.00  0.00    -0.335 NA 
ENDBRANCH  15  16
ENDBRANCH   7  15
ENDBRANCH   6   7
ENDBRANCH   2   6
TORSDOF 5
ENDMDL
MODEL       77
REMARK 921   NORMALIZED FREE ENERGY PREDICTED BY IDOCK:   -4.60 KCAL/MOL
REMARK 922        TOTAL FREE ENERGY PREDICTED BY IDOCK:   -6.75 KCAL/MOL
REMARK 923 INTER-LIGAND FREE ENERGY PREDICTED BY IDOCK:   -6.22 KCAL/MOL
REMARK 924 INTRA-LIGAND FREE ENERGY PREDICTED BY IDOCK:   -0.53 KCAL/MOL
REMARK 927      BINDING AFFINITY PREDICTED BY RF-SCORE:    0.00 PKD
ROOT
HETATM    1  N   UNL     1     -13.719   9.197  72.627  1.00  0.00    -0.783 N  
HETATM    2  C   UNL     1     -12.933  10.139  72.068  1.00  0.00    -0.409 C  
HETATM    3  H1  UNL     1     -13.436   8.231  72.792  1.00  0.00     0.000 HD 
HETATM    4  H2  UNL     1     -14.663   9.468  72.902  1.00  0.00     0.000 HD 
HETATM    5  O   UNL     1     -13.271  11.294  71.869  1.00  0.00    -0.482 OA 
ENDROOT
BRANCH   2   6
HETATM    6  O   UNL     1     -11.729   9.607  71.792  1.00  0.00    -0.388 OA 
BRANCH   6   7
HETATM    7  C   UNL     1     -11.382   9.348  70.404  1.00  0.00    -0.248 C  
BRANCH   7   8
HETATM    8  C   UNL     1     -10.962   7.874  70.298  1.00  0.00    -0.249 A  
HETATM    9  C   UNL     1     -10.246   5.126  70.211  1.00  0.00    -0.342 A  
HETATM   10  C   UNL     1     -10.953   7.064  71.457  1.00  0.00    -0.260 A  
HETATM   11  C   UNL     1     -10.630   7.245  69.082  1.00  0.00    -0.208 A  
HETATM   12  C   UNL     1     -10.607   5.712  71.415  1.00  0.00    -0.317 A  
HETATM   13  C   UNL     1     -10.256   5.892  69.048  1.00  0.00    -0.261 A  
HETATM   14 CL   UNL     1     -10.720   8.048  67.555  1.00  0.00    -0.287 Cl 
ENDBRANCH   7   8
BRANCH   7  15
HETATM   15  C   UNL     1     -10.356  10.376  69.899  1.00  0.00    -0.182 C  
BRANCH  15  16
HETATM   16  N   UNL     1     -10.916  11.346  68.986  1.00  0.00    -0.223 NA 
HETATM   17  N   UNL     1     -10.263  12.479  68.658  1.00  0.00    -0.196 NA 
HETATM   18  N   UNL     1     -12.100  12.089  67.397  1.00  0.00    -0.520 NA 
HETATM   19  C   UNL     1     -11.049  12.912  67.668  1.00  0.00    -0.264 A  
HETATM   20  N   UNL     1     -12.004  11.071  68.242  1.00  0.00    -0.597 NA 
ENDBRANCH  15  16
ENDBRANCH   7  15
ENDBRANCH   6   7
ENDBRANCH   2   6
TORSDOF 5
ENDMDL
MODEL       78
REMARK 921   NORMALIZED FREE ENERGY PREDICTED BY IDOCK:   -4.59 KCAL/MOL
REMARK 922        TOTAL FREE ENERGY PREDICTED BY IDOCK:   -6.74 KCAL/MOL
REMARK 923 INTER-LIGAND FREE ENERGY PREDICTED BY IDOCK:   -6.19 KCAL/MOL
REMARK 924 INTRA-LIGAND FREE ENERGY PREDICTED BY IDOCK:   -0.54 KCAL/MOL
REMARK 927      BINDING AFFINITY PREDICTED BY RF-SCORE:    0.00 PKD
ROOT
HETATM    1  N   UNL     1      -9.767  14.153  67.959  1.00  0.00    -0.219 N  
HETATM    2  C   UNL     1      -8.834  13.297  68.423  1.00  0.00    -0.124 C  
HETATM    3  H1  UNL     1     -10.721  13.892  67.712  1.00  0.00     0.000 HD 
HETATM    4  H2  UNL     1      -9.498  15.131  67.845  1.00  0.00     0.000 HD 
HETATM    5  O   UNL     1      -7.693  13.609  68.717  1.00  0.00    -0.127 OA 
ENDROOT
BRANCH   2   6
HETATM    6  O   UNL     1      -9.372  12.068  68.527  1.00  0.00    -0.191 OA 
BRANCH   6   7
HETATM    7  C   UNL     1     -10.811  11.921  68.382  1.00  0.00    -0.228 C  
BRANCH   7   8
HETATM    8  C   UNL     1     -11.310  11.061  69.554  1.00  0.00    -0.356 A  
HETATM    9  C   UNL     1     -12.337   9.539  71.721  1.00  0.00    -0.474 A  
HETATM   10  C   UNL     1     -12.321  11.559  70.406  1.00  0.00    -0.390 A  
HETATM   11  C   UNL     1     -10.853   9.752  69.807  1.00  0.00    -0.257 A  
HETATM   12  C   UNL     1     -12.832  10.810  71.469  1.00  0.00    -0.567 A  
HETATM   13  C   UNL     1     -11.349   9.013  70.893  1.00  0.00    -0.351 A  
HETATM   14 CL   UNL     1      -9.721   8.939  68.787  1.00  0.00    -0.163 Cl 
ENDBRANCH   7   8
BRANCH   7  15
HETATM   15  C   UNL     1     -11.166  11.411  66.976  1.00  0.00    -0.283 C  
BRANCH  15  16
HETATM   16  N   UNL     1     -12.010  12.318  66.232  1.00  0.00    -0.626 NA 
HETATM   17  N   UNL     1     -12.259  13.573  66.655  1.00  0.00    -0.386 NA 
HETATM   18  N   UNL     1     -12.978  13.163  64.549  1.00  0.00    -0.662 NA 
HETATM   19  C   UNL     1     -12.874  14.057  65.572  1.00  0.00    -0.419 A  
HETATM   20  N   UNL     1     -12.406  12.044  64.974  1.00  0.00    -0.367 NA 
ENDBRANCH  15  16
ENDBRANCH   7  15
ENDBRANCH   6   7
ENDBRANCH   2   6
TORSDOF 5
ENDMDL
MODEL       79
REMARK 921   NORMALIZED FREE ENERGY PREDICTED BY IDOCK:   -4.56 KCAL/MOL
REMARK 922        TOTAL FREE ENERGY PREDICTED BY IDOCK:   -6.70 KCAL/MOL
REMARK 923 INTER-LIGAND FREE ENERGY PREDICTED BY IDOCK:   -5.84 KCAL/MOL
REMARK 924 INTRA-LIGAND FREE ENERGY PREDICTED BY IDOCK:   -0.86 KCAL/MOL
REMARK 927      BINDING AFFINITY PREDICTED BY RF-SCORE:    0.00 PKD
ROOT
HETATM    1  N   UNL     1     -14.069   7.166  71.864  1.00  0.00    -0.572 N  
HETATM    2  C   UNL     1     -13.835   8.494  71.838  1.00  0.00    -0.424 C  
HETATM    3  H1  UNL     1     -13.673   6.495  71.207  1.00  0.00     0.000 HD 
HETATM    4  H2  UNL     1     -14.687   6.808  72.593  1.00  0.00     0.000 HD 
HETATM    5  O   UNL     1     -14.309   9.296  72.624  1.00  0.00    -0.497 OA 
ENDROOT
BRANCH   2   6
HETATM    6  O   UNL     1     -12.989   8.776  70.831  1.00  0.00    -0.047 OA 
BRANCH   6   7
HETATM    7  C   UNL     1     -11.730   9.434  71.141  1.00  0.00    -0.345 C  
BRANCH   7   8
HETATM    8  C   UNL     1     -11.620  10.673  70.239  1.00  0.00    -0.424 A  
HETATM    9  C   UNL     1     -11.394  12.887  68.474  1.00  0.00    -0.324 A  
HETATM   10  C   UNL     1     -10.947  10.578  69.000  1.00  0.00    -0.289 A  
HETATM   11  C   UNL     1     -12.208  11.915  70.548  1.00  0.00    -0.336 A  
HETATM   12  C   UNL     1     -10.840  11.664  68.128  1.00  0.00    -0.260 A  
HETATM   13  C   UNL     1     -12.075  13.012  69.682  1.00  0.00    -0.304 A  
HETATM   14 CL   UNL     1     -13.179  12.169  71.954  1.00  0.00    -0.553 Cl 
ENDBRANCH   7   8
BRANCH   7  15
HETATM   15  C   UNL     1     -10.562   8.437  71.058  1.00  0.00    -0.214 C  
BRANCH  15  16
HETATM   16  N   UNL     1     -10.528   7.499  72.157  1.00  0.00    -0.207 NA 
HETATM   17  N   UNL     1     -10.216   7.878  73.412  1.00  0.00    -0.260 NA 
HETATM   18  N   UNL     1     -11.008   5.763  73.269  1.00  0.00    -0.267 NA 
HETATM   19  C   UNL     1     -10.524   6.755  74.068  1.00  0.00    -0.272 A  
HETATM   20  N   UNL     1     -11.023   6.252  72.037  1.00  0.00    -0.244 NA 
ENDBRANCH  15  16
ENDBRANCH   7  15
ENDBRANCH   6   7
ENDBRANCH   2   6
TORSDOF 5
ENDMDL
MODEL       80
REMARK 921   NORMALIZED FREE ENERGY PREDICTED BY IDOCK:   -4.54 KCAL/MOL
REMARK 922        TOTAL FREE ENERGY PREDICTED BY IDOCK:   -6.67 KCAL/MOL
REMARK 923 INTER-LIGAND FREE ENERGY PREDICTED BY IDOCK:   -6.02 KCAL/MOL
REMARK 924 INTRA-LIGAND FREE ENERGY PREDICTED BY IDOCK:   -0.65 KCAL/MOL
REMARK 927      BINDING AFFINITY PREDICTED BY RF-SCORE:    0.00 PKD
ROOT
HETATM    1  N   UNL     1     -11.862  13.921  71.074  1.00  0.00    -0.493 N  
HETATM    2  C   UNL     1     -12.348  14.729  70.109  1.00  0.00    -0.330 C  
HETATM    3  H1  UNL     1     -11.452  13.003  70.907  1.00  0.00     0.000 HD 
HETATM    4  H2  UNL     1     -11.910  14.252  72.037  1.00  0.00     0.000 HD 
HETATM    5  O   UNL     1     -12.840  15.827  70.308  1.00  0.00    -0.348 OA 
ENDROOT
BRANCH   2   6
HETATM    6  O   UNL     1     -12.182  14.140  68.911  1.00  0.00    -0.328 OA 
BRANCH   6   7
HETATM    7  C   UNL     1     -11.398  14.828  67.898  1.00  0.00    -0.316 C  
BRANCH   7   8
HETATM    8  C   UNL     1     -11.176  13.847  66.737  1.00  0.00    -0.328 A  
HETATM    9  C   UNL     1     -10.826  11.945  64.656  1.00  0.00    -0.363 A  
HETATM   10  C   UNL     1     -11.261  12.456  66.971  1.00  0.00    -0.358 A  
HETATM   11  C   UNL     1     -10.941  14.254  65.409  1.00  0.00    -0.333 A  
HETATM   12  C   UNL     1     -11.096  11.519  65.948  1.00  0.00    -0.274 A  
HETATM   13  C   UNL     1     -10.748  13.309  64.388  1.00  0.00    -0.432 A  
HETATM   14 CL   UNL     1     -10.941  15.911  64.921  1.00  0.00    -0.465 Cl 
ENDBRANCH   7   8
BRANCH   7  15
HETATM   15  C   UNL     1     -10.128  15.437  68.515  1.00  0.00    -0.213 C  
BRANCH  15  16
HETATM   16  N   UNL     1      -9.885  16.800  68.103  1.00  0.00    -0.256 NA 
HETATM   17  N   UNL     1      -8.723  17.178  67.533  1.00  0.00    -0.206 NA 
HETATM   18  N   UNL     1     -10.336  18.763  67.450  1.00  0.00    -0.394 NA 
HETATM   19  C   UNL     1      -9.053  18.415  67.150  1.00  0.00    -0.267 A  
HETATM   20  N   UNL     1     -10.875  17.712  68.053  1.00  0.00    -0.320 NA 
ENDBRANCH  15  16
ENDBRANCH   7  15
ENDBRANCH   6   7
ENDBRANCH   2   6
TORSDOF 5
ENDMDL
MODEL       81
REMARK 921   NORMALIZED FREE ENERGY PREDICTED BY IDOCK:   -4.54 KCAL/MOL
REMARK 922        TOTAL FREE ENERGY PREDICTED BY IDOCK:   -6.67 KCAL/MOL
REMARK 923 INTER-LIGAND FREE ENERGY PREDICTED BY IDOCK:   -6.33 KCAL/MOL
REMARK 924 INTRA-LIGAND FREE ENERGY PREDICTED BY IDOCK:   -0.34 KCAL/MOL
REMARK 927      BINDING AFFINITY PREDICTED BY RF-SCORE:    0.00 PKD
ROOT
HETATM    1  N   UNL     1     -10.409  17.035  65.986  1.00  0.00    -0.344 N  
HETATM    2  C   UNL     1      -9.630  15.942  65.850  1.00  0.00    -0.343 C  
HETATM    3  H1  UNL     1     -11.396  17.077  65.733  1.00  0.00     0.000 HD 
HETATM    4  H2  UNL     1      -9.981  17.878  66.368  1.00  0.00     0.000 HD 
HETATM    5  O   UNL     1      -8.450  15.891  66.152  1.00  0.00    -0.318 OA 
ENDROOT
BRANCH   2   6
HETATM    6  O   UNL     1     -10.367  14.931  65.355  1.00  0.00    -0.331 OA 
BRANCH   6   7
HETATM    7  C   UNL     1     -10.545  13.737  66.164  1.00  0.00    -0.291 C  
BRANCH   7   8
HETATM    8  C   UNL     1     -10.151  12.528  65.302  1.00  0.00    -0.275 A  
HETATM    9  C   UNL     1      -9.378  10.237  63.811  1.00  0.00    -0.339 A  
HETATM   10  C   UNL     1      -9.174  11.621  65.773  1.00  0.00    -0.184 A  
HETATM   11  C   UNL     1     -10.754  12.225  64.065  1.00  0.00    -0.396 A  
HETATM   12  C   UNL     1      -8.797  10.491  65.044  1.00  0.00    -0.207 A  
HETATM   13  C   UNL     1     -10.353  11.103  63.323  1.00  0.00    -0.368 A  
HETATM   14 CL   UNL     1     -12.057  13.147  63.405  1.00  0.00    -0.613 Cl 
ENDBRANCH   7   8
BRANCH   7  15
HETATM   15  C   UNL     1     -11.959  13.697  66.769  1.00  0.00    -0.414 C  
BRANCH  15  16
HETATM   16  N   UNL     1     -12.028  12.983  68.023  1.00  0.00    -0.337 NA 
HETATM   17  N   UNL     1     -11.974  11.638  68.083  1.00  0.00    -0.590 NA 
HETATM   18  N   UNL     1     -11.824  12.646  70.103  1.00  0.00    -0.296 NA 
HETATM   19  C   UNL     1     -11.857  11.477  69.405  1.00  0.00    -0.350 A  
HETATM   20  N   UNL     1     -11.921  13.618  69.205  1.00  0.00    -0.331 NA 
ENDBRANCH  15  16
ENDBRANCH   7  15
ENDBRANCH   6   7
ENDBRANCH   2   6
TORSDOF 5
ENDMDL
MODEL       82
REMARK 921   NORMALIZED FREE ENERGY PREDICTED BY IDOCK:   -4.53 KCAL/MOL
REMARK 922        TOTAL FREE ENERGY PREDICTED BY IDOCK:   -6.66 KCAL/MOL
REMARK 923 INTER-LIGAND FREE ENERGY PREDICTED BY IDOCK:   -6.25 KCAL/MOL
REMARK 924 INTRA-LIGAND FREE ENERGY PREDICTED BY IDOCK:   -0.41 KCAL/MOL
REMARK 927      BINDING AFFINITY PREDICTED BY RF-SCORE:    0.00 PKD
ROOT
HETATM    1  N   UNL     1     -10.818  12.842  68.992  1.00  0.00    -0.398 N  
HETATM    2  C   UNL     1     -10.027  13.272  67.988  1.00  0.00    -0.233 C  
HETATM    3  H1  UNL     1     -11.588  13.377  69.392  1.00  0.00     0.000 HD 
HETATM    4  H2  UNL     1     -10.633  11.916  69.379  1.00  0.00     0.000 HD 
HETATM    5  O   UNL     1      -9.105  12.632  67.511  1.00  0.00    -0.176 OA 
ENDROOT
BRANCH   2   6
HETATM    6  O   UNL     1     -10.431  14.493  67.595  1.00  0.00    -0.244 OA 
BRANCH   6   7
HETATM    7  C   UNL     1      -9.732  15.140  66.498  1.00  0.00    -0.271 C  
BRANCH   7   8
HETATM    8  C   UNL     1      -8.754  16.158  67.106  1.00  0.00    -0.216 A  
HETATM    9  C   UNL     1      -6.860  18.002  68.146  1.00  0.00    -0.210 A  
HETATM   10  C   UNL     1      -7.365  16.002  66.898  1.00  0.00    -0.236 A  
HETATM   11  C   UNL     1      -9.165  17.295  67.829  1.00  0.00    -0.239 A  
HETATM   12  C   UNL     1      -6.432  16.911  67.403  1.00  0.00    -0.182 A  
HETATM   13  C   UNL     1      -8.223  18.191  68.359  1.00  0.00    -0.314 A  
HETATM   14 CL   UNL     1     -10.825  17.711  68.060  1.00  0.00    -0.323 Cl 
ENDBRANCH   7   8
BRANCH   7  15
HETATM   15  C   UNL     1     -10.731  15.701  65.472  1.00  0.00    -0.389 C  
BRANCH  15  16
HETATM   16  N   UNL     1     -11.239  14.702  64.559  1.00  0.00    -0.325 NA 
HETATM   17  N   UNL     1     -10.660  13.492  64.429  1.00  0.00    -0.419 NA 
HETATM   18  N   UNL     1     -12.654  13.665  63.374  1.00  0.00    -0.781 NA 
HETATM   19  C   UNL     1     -11.578  12.884  63.672  1.00  0.00    -0.485 A  
HETATM   20  N   UNL     1     -12.438  14.835  63.960  1.00  0.00    -0.809 NA 
ENDBRANCH  15  16
ENDBRANCH   7  15
ENDBRANCH   6   7
ENDBRANCH   2   6
TORSDOF 5
ENDMDL
MODEL       83
REMARK 921   NORMALIZED FREE ENERGY PREDICTED BY IDOCK:   -4.52 KCAL/MOL
REMARK 922        TOTAL FREE ENERGY PREDICTED BY IDOCK:   -6.65 KCAL/MOL
REMARK 923 INTER-LIGAND FREE ENERGY PREDICTED BY IDOCK:   -5.84 KCAL/MOL
REMARK 924 INTRA-LIGAND FREE ENERGY PREDICTED BY IDOCK:   -0.81 KCAL/MOL
REMARK 927      BINDING AFFINITY PREDICTED BY RF-SCORE:    0.00 PKD
ROOT
HETATM    1  N   UNL     1     -10.110  12.874  65.915  1.00  0.00    -0.286 N  
HETATM    2  C   UNL     1     -11.312  12.883  66.526  1.00  0.00    -0.318 C  
HETATM    3  H1  UNL     1      -9.220  13.037  66.385  1.00  0.00     0.000 HD 
HETATM    4  H2  UNL     1     -10.089  12.692  64.911  1.00  0.00     0.000 HD 
HETATM    5  O   UNL     1     -12.376  12.688  65.963  1.00  0.00    -0.587 OA 
ENDROOT
BRANCH   2   6
HETATM    6  O   UNL     1     -11.141  13.116  67.840  1.00  0.00    -0.245 OA 
BRANCH   6   7
HETATM    7  C   UNL     1     -11.539  12.089  68.788  1.00  0.00    -0.311 C  
BRANCH   7   8
HETATM    8  C   UNL     1     -12.141  12.796  70.013  1.00  0.00    -0.355 A  
HETATM    9  C   UNL     1     -13.261  14.208  72.208  1.00  0.00    -0.540 A  
HETATM   10  C   UNL     1     -12.099  14.207  70.096  1.00  0.00    -0.411 A  
HETATM   11  C   UNL     1     -12.797  12.117  71.058  1.00  0.00    -0.166 A  
HETATM   12  C   UNL     1     -12.655  14.903  71.172  1.00  0.00    -0.404 A  
HETATM   13  C   UNL     1     -13.330  12.819  72.151  1.00  0.00    -0.593 A  
HETATM   14 CL   UNL     1     -13.057  10.410  71.051  1.00  0.00    -0.469 Cl 
ENDBRANCH   7   8
BRANCH   7  15
HETATM   15  C   UNL     1     -10.370  11.132  69.074  1.00  0.00    -0.194 C  
BRANCH  15  16
HETATM   16  N   UNL     1      -9.952  10.373  67.916  1.00  0.00    -0.163 NA 
HETATM   17  N   UNL     1      -8.701  10.453  67.423  1.00  0.00    -0.125 NA 
HETATM   18  N   UNL     1      -9.937   8.794  66.507  1.00  0.00    -0.275 NA 
HETATM   19  C   UNL     1      -8.744   9.453  66.539  1.00  0.00    -0.134 A  
HETATM   20  N   UNL     1     -10.710   9.383  67.408  1.00  0.00    -0.262 NA 
ENDBRANCH  15  16
ENDBRANCH   7  15
ENDBRANCH   6   7
ENDBRANCH   2   6
TORSDOF 5
ENDMDL
MODEL       84
REMARK 921   NORMALIZED FREE ENERGY PREDICTED BY IDOCK:   -4.52 KCAL/MOL
REMARK 922        TOTAL FREE ENERGY PREDICTED BY IDOCK:   -6.65 KCAL/MOL
REMARK 923 INTER-LIGAND FREE ENERGY PREDICTED BY IDOCK:   -5.46 KCAL/MOL
REMARK 924 INTRA-LIGAND FREE ENERGY PREDICTED BY IDOCK:   -1.19 KCAL/MOL
REMARK 927      BINDING AFFINITY PREDICTED BY RF-SCORE:    0.00 PKD
ROOT
HETATM    1  N   UNL     1     -10.392  17.695  65.779  1.00  0.00    -0.265 N  
HETATM    2  C   UNL     1     -11.031  16.644  65.226  1.00  0.00    -0.120 C  
HETATM    3  H1  UNL     1     -10.124  17.759  66.761  1.00  0.00     0.000 HD 
HETATM    4  H2  UNL     1     -10.162  18.483  65.173  1.00  0.00     0.000 HD 
HETATM    5  O   UNL     1     -11.352  16.569  64.052  1.00  0.00    -1.064 OA 
ENDROOT
BRANCH   2   6
HETATM    6  O   UNL     1     -11.231  15.701  66.165  1.00  0.00    -0.200 OA 
BRANCH   6   7
HETATM    7  C   UNL     1     -10.090  15.221  66.926  1.00  0.00    -0.256 C  
BRANCH   7   8
HETATM    8  C   UNL     1     -10.016  13.698  66.740  1.00  0.00    -0.270 A  
HETATM    9  C   UNL     1      -9.976  10.889  66.317  1.00  0.00    -0.274 A  
HETATM   10  C   UNL     1     -11.143  12.997  66.255  1.00  0.00    -0.314 A  
HETATM   11  C   UNL     1      -8.851  12.941  66.975  1.00  0.00    -0.208 A  
HETATM   12  C   UNL     1     -11.124  11.617  66.041  1.00  0.00    -0.325 A  
HETATM   13  C   UNL     1      -8.843  11.550  66.784  1.00  0.00    -0.183 A  
HETATM   14 CL   UNL     1      -7.347  13.653  67.438  1.00  0.00    -0.167 Cl 
ENDBRANCH   7   8
BRANCH   7  15
HETATM   15  C   UNL     1     -10.159  15.717  68.379  1.00  0.00    -0.222 C  
BRANCH  15  16
HETATM   16  N   UNL     1      -9.513  16.994  68.582  1.00  0.00    -0.267 NA 
HETATM   17  N   UNL     1      -8.200  17.178  68.338  1.00  0.00    -0.244 NA 
HETATM   18  N   UNL     1      -9.329  19.097  68.739  1.00  0.00    -0.374 NA 
HETATM   19  C   UNL     1      -8.134  18.507  68.458  1.00  0.00    -0.330 A  
HETATM   20  N   UNL     1     -10.221  18.118  68.806  1.00  0.00    -0.374 NA 
ENDBRANCH  15  16
ENDBRANCH   7  15
ENDBRANCH   6   7
ENDBRANCH   2   6
TORSDOF 5
ENDMDL
MODEL       85
REMARK 921   NORMALIZED FREE ENERGY PREDICTED BY IDOCK:   -4.52 KCAL/MOL
REMARK 922        TOTAL FREE ENERGY PREDICTED BY IDOCK:   -6.64 KCAL/MOL
REMARK 923 INTER-LIGAND FREE ENERGY PREDICTED BY IDOCK:   -5.83 KCAL/MOL
REMARK 924 INTRA-LIGAND FREE ENERGY PREDICTED BY IDOCK:   -0.82 KCAL/MOL
REMARK 927      BINDING AFFINITY PREDICTED BY RF-SCORE:    0.00 PKD
ROOT
HETATM    1  N   UNL     1     -12.285  14.335  67.554  1.00  0.00    -0.598 N  
HETATM    2  C   UNL     1     -12.153  13.317  66.679  1.00  0.00    -0.361 C  
HETATM    3  H1  UNL     1     -12.497  14.223  68.545  1.00  0.00     0.000 HD 
HETATM    4  H2  UNL     1     -12.163  15.283  67.199  1.00  0.00     0.000 HD 
HETATM    5  O   UNL     1     -11.900  13.450  65.494  1.00  0.00    -0.332 OA 
ENDROOT
BRANCH   2   6
HETATM    6  O   UNL     1     -12.325  12.150  67.326  1.00  0.00    -0.354 OA 
BRANCH   6   7
HETATM    7  C   UNL     1     -11.256  11.665  68.184  1.00  0.00    -0.263 C  
BRANCH   7   8
HETATM    8  C   UNL     1     -10.317  10.811  67.318  1.00  0.00    -0.262 A  
HETATM    9  C   UNL     1      -8.677   9.155  65.693  1.00  0.00    -0.203 A  
HETATM   10  C   UNL     1     -10.652   9.466  67.040  1.00  0.00    -0.272 A  
HETATM   11  C   UNL     1      -9.141  11.308  66.722  1.00  0.00    -0.174 A  
HETATM   12  C   UNL     1      -9.851   8.652  66.236  1.00  0.00    -0.320 A  
HETATM   13  C   UNL     1      -8.324  10.480  65.937  1.00  0.00    -0.161 A  
HETATM   14 CL   UNL     1      -8.654  12.961  66.845  1.00  0.00    -0.171 Cl 
ENDBRANCH   7   8
BRANCH   7  15
HETATM   15  C   UNL     1     -11.833  10.973  69.431  1.00  0.00    -0.335 C  
BRANCH  15  16
HETATM   16  N   UNL     1     -12.247  11.899  70.461  1.00  0.00    -0.363 NA 
HETATM   17  N   UNL     1     -12.077  13.230  70.337  1.00  0.00    -0.352 NA 
HETATM   18  N   UNL     1     -13.361  12.636  72.102  1.00  0.00    -0.523 NA 
HETATM   19  C   UNL     1     -12.784  13.645  71.392  1.00  0.00    -0.352 A  
HETATM   20  N   UNL     1     -13.024  11.510  71.490  1.00  0.00    -0.430 NA 
ENDBRANCH  15  16
ENDBRANCH   7  15
ENDBRANCH   6   7
ENDBRANCH   2   6
TORSDOF 5
ENDMDL
MODEL       86
REMARK 921   NORMALIZED FREE ENERGY PREDICTED BY IDOCK:   -4.51 KCAL/MOL
REMARK 922        TOTAL FREE ENERGY PREDICTED BY IDOCK:   -6.63 KCAL/MOL
REMARK 923 INTER-LIGAND FREE ENERGY PREDICTED BY IDOCK:   -6.08 KCAL/MOL
REMARK 924 INTRA-LIGAND FREE ENERGY PREDICTED BY IDOCK:   -0.56 KCAL/MOL
REMARK 927      BINDING AFFINITY PREDICTED BY RF-SCORE:    0.00 PKD
ROOT
HETATM    1  N   UNL     1     -11.303  14.429  71.042  1.00  0.00    -0.501 N  
HETATM    2  C   UNL     1     -12.006  14.711  69.926  1.00  0.00    -0.329 C  
HETATM    3  H1  UNL     1     -11.088  13.487  71.367  1.00  0.00     0.000 HD 
HETATM    4  H2  UNL     1     -10.964  15.212  71.600  1.00  0.00     0.000 HD 
HETATM    5  O   UNL     1     -12.264  15.837  69.537  1.00  0.00    -0.325 OA 
ENDROOT
BRANCH   2   6
HETATM    6  O   UNL     1     -12.349  13.563  69.314  1.00  0.00    -0.260 OA 
BRANCH   6   7
HETATM    7  C   UNL     1     -11.348  12.871  68.519  1.00  0.00    -0.289 C  
BRANCH   7   8
HETATM    8  C   UNL     1     -11.274  13.572  67.153  1.00  0.00    -0.324 A  
HETATM    9  C   UNL     1     -11.262  14.874  64.629  1.00  0.00    -0.349 A  
HETATM   10  C   UNL     1     -12.403  13.567  66.303  1.00  0.00    -0.440 A  
HETATM   11  C   UNL     1     -10.144  14.285  66.706  1.00  0.00    -0.264 A  
HETATM   12  C   UNL     1     -12.401  14.212  65.064  1.00  0.00    -0.452 A  
HETATM   13  C   UNL     1     -10.137  14.908  65.448  1.00  0.00    -0.400 A  
HETATM   14 CL   UNL     1      -8.730  14.506  67.673  1.00  0.00    -0.173 Cl 
ENDBRANCH   7   8
BRANCH   7  15
HETATM   15  C   UNL     1     -11.633  11.360  68.482  1.00  0.00    -0.318 C  
BRANCH  15  16
HETATM   16  N   UNL     1     -11.596  10.736  69.786  1.00  0.00    -0.289 NA 
HETATM   17  N   UNL     1     -12.709  10.549  70.521  1.00  0.00    -0.338 NA 
HETATM   18  N   UNL     1     -10.885   9.497  71.348  1.00  0.00    -0.350 NA 
HETATM   19  C   UNL     1     -12.210   9.777  71.491  1.00  0.00    -0.406 A  
HETATM   20  N   UNL     1     -10.494  10.107  70.237  1.00  0.00    -0.270 NA 
ENDBRANCH  15  16
ENDBRANCH   7  15
ENDBRANCH   6   7
ENDBRANCH   2   6
TORSDOF 5
ENDMDL
MODEL       87
REMARK 921   NORMALIZED FREE ENERGY PREDICTED BY IDOCK:   -4.50 KCAL/MOL
REMARK 922        TOTAL FREE ENERGY PREDICTED BY IDOCK:   -6.62 KCAL/MOL
REMARK 923 INTER-LIGAND FREE ENERGY PREDICTED BY IDOCK:   -6.05 KCAL/MOL
REMARK 924 INTRA-LIGAND FREE ENERGY PREDICTED BY IDOCK:   -0.57 KCAL/MOL
REMARK 927      BINDING AFFINITY PREDICTED BY RF-SCORE:    0.00 PKD
ROOT
HETATM    1  N   UNL     1      -7.507  13.943  67.117  1.00  0.00    -0.338 N  
HETATM    2  C   UNL     1      -8.570  13.116  67.184  1.00  0.00    -0.192 C  
HETATM    3  H1  UNL     1      -7.532  14.888  66.734  1.00  0.00     0.000 HD 
HETATM    4  H2  UNL     1      -6.615  13.599  67.473  1.00  0.00     0.000 HD 
HETATM    5  O   UNL     1      -8.541  11.987  67.641  1.00  0.00    -0.148 OA 
ENDROOT
BRANCH   2   6
HETATM    6  O   UNL     1      -9.653  13.744  66.691  1.00  0.00    -0.271 OA 
BRANCH   6   7
HETATM    7  C   UNL     1      -9.898  15.123  67.080  1.00  0.00    -0.230 C  
BRANCH   7   8
HETATM    8  C   UNL     1     -10.771  15.101  68.344  1.00  0.00    -0.248 A  
HETATM    9  C   UNL     1     -12.386  14.935  70.675  1.00  0.00    -0.406 A  
HETATM   10  C   UNL     1     -11.555  13.961  68.633  1.00  0.00    -0.363 A  
HETATM   11  C   UNL     1     -10.800  16.147  69.288  1.00  0.00    -0.310 A  
HETATM   12  C   UNL     1     -12.345  13.875  69.781  1.00  0.00    -0.330 A  
HETATM   13  C   UNL     1     -11.616  16.069  70.427  1.00  0.00    -0.364 A  
HETATM   14 CL   UNL     1      -9.803  17.553  69.162  1.00  0.00    -0.210 Cl 
ENDBRANCH   7   8
BRANCH   7  15
HETATM   15  C   UNL     1     -10.453  15.931  65.895  1.00  0.00    -0.359 C  
BRANCH  15  16
HETATM   16  N   UNL     1      -9.949  17.285  65.836  1.00  0.00    -0.539 NA 
HETATM   17  N   UNL     1     -10.771  18.353  65.829  1.00  0.00    -0.466 NA 
HETATM   18  N   UNL     1      -8.588  18.885  66.096  1.00  0.00    -0.468 NA 
HETATM   19  C   UNL     1      -9.871  19.329  65.985  1.00  0.00    -0.281 A  
HETATM   20  N   UNL     1      -8.644  17.562  66.014  1.00  0.00    -0.527 NA 
ENDBRANCH  15  16
ENDBRANCH   7  15
ENDBRANCH   6   7
ENDBRANCH   2   6
TORSDOF 5
ENDMDL
MODEL       88
REMARK 921   NORMALIZED FREE ENERGY PREDICTED BY IDOCK:   -4.49 KCAL/MOL
REMARK 922        TOTAL FREE ENERGY PREDICTED BY IDOCK:   -6.61 KCAL/MOL
REMARK 923 INTER-LIGAND FREE ENERGY PREDICTED BY IDOCK:   -5.67 KCAL/MOL
REMARK 924 INTRA-LIGAND FREE ENERGY PREDICTED BY IDOCK:   -0.94 KCAL/MOL
REMARK 927      BINDING AFFINITY PREDICTED BY RF-SCORE:    0.00 PKD
ROOT
HETATM    1  N   UNL     1      -7.295  17.535  68.149  1.00  0.00    -0.211 N  
HETATM    2  C   UNL     1      -7.075  16.749  67.075  1.00  0.00    -0.203 C  
HETATM    3  H1  UNL     1      -8.205  17.909  68.416  1.00  0.00     0.000 HD 
HETATM    4  H2  UNL     1      -6.495  17.772  68.735  1.00  0.00     0.000 HD 
HETATM    5  O   UNL     1      -5.987  16.302  66.756  1.00  0.00    -0.323 OA 
ENDROOT
BRANCH   2   6
HETATM    6  O   UNL     1      -8.240  16.528  66.440  1.00  0.00    -0.275 OA 
BRANCH   6   7
HETATM    7  C   UNL     1      -9.318  15.878  67.167  1.00  0.00    -0.212 C  
BRANCH   7   8
HETATM    8  C   UNL     1      -9.591  14.528  66.485  1.00  0.00    -0.311 A  
HETATM    9  C   UNL     1     -10.129  12.095  65.121  1.00  0.00    -0.288 A  
HETATM   10  C   UNL     1     -10.452  14.471  65.366  1.00  0.00    -0.399 A  
HETATM   11  C   UNL     1      -8.979  13.321  66.878  1.00  0.00    -0.207 A  
HETATM   12  C   UNL     1     -10.713  13.277  64.690  1.00  0.00    -0.415 A  
HETATM   13  C   UNL     1      -9.266  12.118  66.213  1.00  0.00    -0.183 A  
HETATM   14 CL   UNL     1      -7.799  13.233  68.136  1.00  0.00    -0.134 Cl 
ENDBRANCH   7   8
BRANCH   7  15
HETATM   15  C   UNL     1     -10.528  16.818  67.300  1.00  0.00    -0.310 C  
BRANCH  15  16
HETATM   16  N   UNL     1     -10.214  18.201  67.020  1.00  0.00    -0.348 NA 
HETATM   17  N   UNL     1     -10.424  18.750  65.807  1.00  0.00    -0.601 NA 
HETATM   18  N   UNL     1      -9.888  20.256  67.408  1.00  0.00    -0.429 NA 
HETATM   19  C   UNL     1     -10.198  20.034  66.100  1.00  0.00    -0.475 A  
HETATM   20  N   UNL     1      -9.913  19.071  68.002  1.00  0.00    -0.348 NA 
ENDBRANCH  15  16
ENDBRANCH   7  15
ENDBRANCH   6   7
ENDBRANCH   2   6
TORSDOF 5
ENDMDL
MODEL       89
REMARK 921   NORMALIZED FREE ENERGY PREDICTED BY IDOCK:   -4.48 KCAL/MOL
REMARK 922        TOTAL FREE ENERGY PREDICTED BY IDOCK:   -6.59 KCAL/MOL
REMARK 923 INTER-LIGAND FREE ENERGY PREDICTED BY IDOCK:   -6.04 KCAL/MOL
REMARK 924 INTRA-LIGAND FREE ENERGY PREDICTED BY IDOCK:   -0.56 KCAL/MOL
REMARK 927      BINDING AFFINITY PREDICTED BY RF-SCORE:    0.00 PKD
ROOT
HETATM    1  N   UNL     1      -7.975  13.967  69.047  1.00  0.00    -0.326 N  
HETATM    2  C   UNL     1      -8.900  14.070  68.072  1.00  0.00    -0.181 C  
HETATM    3  H1  UNL     1      -8.123  13.495  69.939  1.00  0.00     0.000 HD 
HETATM    4  H2  UNL     1      -7.062  14.392  68.882  1.00  0.00     0.000 HD 
HETATM    5  O   UNL     1      -8.723  14.635  67.006  1.00  0.00    -0.215 OA 
ENDROOT
BRANCH   2   6
HETATM    6  O   UNL     1     -10.023  13.436  68.456  1.00  0.00    -0.233 OA 
BRANCH   6   7
HETATM    7  C   UNL     1     -11.299  14.112  68.284  1.00  0.00    -0.291 C  
BRANCH   7   8
HETATM    8  C   UNL     1     -11.779  14.560  69.673  1.00  0.00    -0.356 A  
HETATM    9  C   UNL     1     -12.679  15.267  72.273  1.00  0.00    -0.435 A  
HETATM   10  C   UNL     1     -12.529  13.669  70.475  1.00  0.00    -0.394 A  
HETATM   11  C   UNL     1     -11.466  15.812  70.238  1.00  0.00    -0.359 A  
HETATM   12  C   UNL     1     -12.967  14.012  71.755  1.00  0.00    -0.435 A  
HETATM   13  C   UNL     1     -11.931  16.164  71.515  1.00  0.00    -0.490 A  
HETATM   14 CL   UNL     1     -10.447  16.966  69.455  1.00  0.00    -0.316 Cl 
ENDBRANCH   7   8
BRANCH   7  15
HETATM   15  C   UNL     1     -12.276  13.231  67.488  1.00  0.00    -0.164 C  
BRANCH  15  16
HETATM   16  N   UNL     1     -11.729  11.940  67.135  1.00  0.00    -0.583 NA 
HETATM   17  N   UNL     1     -10.984  11.758  66.027  1.00  0.00    -0.301 NA 
HETATM   18  N   UNL     1     -10.990   9.978  67.422  1.00  0.00    -0.256 NA 
HETATM   19  C   UNL     1     -10.553  10.514  66.248  1.00  0.00    -0.133 A  
HETATM   20  N   UNL     1     -11.740  10.907  67.999  1.00  0.00    -0.569 NA 
ENDBRANCH  15  16
ENDBRANCH   7  15
ENDBRANCH   6   7
ENDBRANCH   2   6
TORSDOF 5
ENDMDL
MODEL       90
REMARK 921   NORMALIZED FREE ENERGY PREDICTED BY IDOCK:   -4.48 KCAL/MOL
REMARK 922        TOTAL FREE ENERGY PREDICTED BY IDOCK:   -6.59 KCAL/MOL
REMARK 923 INTER-LIGAND FREE ENERGY PREDICTED BY IDOCK:   -5.99 KCAL/MOL
REMARK 924 INTRA-LIGAND FREE ENERGY PREDICTED BY IDOCK:   -0.61 KCAL/MOL
REMARK 927      BINDING AFFINITY PREDICTED BY RF-SCORE:    0.00 PKD
ROOT
HETATM    1  N   UNL     1     -11.572  15.981  64.373  1.00  0.00    -0.618 N  
HETATM    2  C   UNL     1     -10.457  15.342  64.783  1.00  0.00    -0.153 C  
HETATM    3  H1  UNL     1     -12.321  15.548  63.834  1.00  0.00     0.000 HD 
HETATM    4  H2  UNL     1     -11.672  16.966  64.619  1.00  0.00     0.000 HD 
HETATM    5  O   UNL     1      -9.560  15.859  65.428  1.00  0.00    -0.383 OA 
ENDROOT
BRANCH   2   6
HETATM    6  O   UNL     1     -10.510  14.057  64.388  1.00  0.00    -0.368 OA 
BRANCH   6   7
HETATM    7  C   UNL     1     -10.476  13.014  65.400  1.00  0.00    -0.296 C  
BRANCH   7   8
HETATM    8  C   UNL     1      -9.863  11.761  64.755  1.00  0.00    -0.238 A  
HETATM    9  C   UNL     1      -8.753   9.495  63.451  1.00  0.00    -0.235 A  
HETATM   10  C   UNL     1     -10.191  11.429  63.421  1.00  0.00    -0.457 A  
HETATM   11  C   UNL     1      -8.927  10.931  65.405  1.00  0.00    -0.193 A  
HETATM   12  C   UNL     1      -9.642  10.319  62.776  1.00  0.00    -0.277 A  
HETATM   13  C   UNL     1      -8.399   9.801  64.763  1.00  0.00    -0.159 A  
HETATM   14 CL   UNL     1      -8.313  11.266  66.984  1.00  0.00    -0.146 Cl 
ENDBRANCH   7   8
BRANCH   7  15
HETATM   15  C   UNL     1     -11.864  12.830  66.036  1.00  0.00    -0.439 C  
BRANCH  15  16
HETATM   16  N   UNL     1     -11.813  12.359  67.401  1.00  0.00    -0.505 NA 
HETATM   17  N   UNL     1     -11.880  13.201  68.451  1.00  0.00    -0.350 NA 
HETATM   18  N   UNL     1     -12.040  11.018  69.023  1.00  0.00    -0.474 NA 
HETATM   19  C   UNL     1     -12.011  12.314  69.442  1.00  0.00    -0.259 A  
HETATM   20  N   UNL     1     -11.926  11.051  67.702  1.00  0.00    -0.438 NA 
ENDBRANCH  15  16
ENDBRANCH   7  15
ENDBRANCH   6   7
ENDBRANCH   2   6
TORSDOF 5
ENDMDL
MODEL       91
REMARK 921   NORMALIZED FREE ENERGY PREDICTED BY IDOCK:   -4.48 KCAL/MOL
REMARK 922        TOTAL FREE ENERGY PREDICTED BY IDOCK:   -6.59 KCAL/MOL
REMARK 923 INTER-LIGAND FREE ENERGY PREDICTED BY IDOCK:   -5.74 KCAL/MOL
REMARK 924 INTRA-LIGAND FREE ENERGY PREDICTED BY IDOCK:   -0.85 KCAL/MOL
REMARK 927      BINDING AFFINITY PREDICTED BY RF-SCORE:    0.00 PKD
ROOT
HETATM    1  N   UNL     1      -8.886  16.809  68.733  1.00  0.00    -0.261 N  
HETATM    2  C   UNL     1      -9.871  17.403  68.028  1.00  0.00    -0.288 C  
HETATM    3  H1  UNL     1      -8.719  15.803  68.760  1.00  0.00     0.000 HD 
HETATM    4  H2  UNL     1      -8.267  17.408  69.279  1.00  0.00     0.000 HD 
HETATM    5  O   UNL     1     -10.072  18.605  67.996  1.00  0.00    -0.339 OA 
ENDROOT
BRANCH   2   6
HETATM    6  O   UNL     1     -10.567  16.465  67.360  1.00  0.00    -0.314 OA 
BRANCH   6   7
HETATM    7  C   UNL     1     -10.999  15.275  68.076  1.00  0.00    -0.299 C  
BRANCH   7   8
HETATM    8  C   UNL     1     -11.042  14.117  67.067  1.00  0.00    -0.314 A  
HETATM    9  C   UNL     1     -11.220  12.029  65.149  1.00  0.00    -0.368 A  
HETATM   10  C   UNL     1     -12.235  13.851  66.358  1.00  0.00    -0.487 A  
HETATM   11  C   UNL     1      -9.925  13.316  66.755  1.00  0.00    -0.263 A  
HETATM   12  C   UNL     1     -12.323  12.829  65.410  1.00  0.00    -0.528 A  
HETATM   13  C   UNL     1     -10.025  12.272  65.821  1.00  0.00    -0.273 A  
HETATM   14 CL   UNL     1      -8.357  13.590  67.425  1.00  0.00    -0.187 Cl 
ENDBRANCH   7   8
BRANCH   7  15
HETATM   15  C   UNL     1     -12.305  15.547  68.841  1.00  0.00     0.086 C  
BRANCH  15  16
HETATM   16  N   UNL     1     -12.190  15.336  70.266  1.00  0.00    -0.340 NA 
HETATM   17  N   UNL     1     -11.014  15.451  70.914  1.00  0.00    -0.326 NA 
HETATM   18  N   UNL     1     -12.797  15.255  72.292  1.00  0.00    -0.333 NA 
HETATM   19  C   UNL     1     -11.446  15.385  72.177  1.00  0.00    -0.433 A  
HETATM   20  N   UNL     1     -13.277  15.238  71.056  1.00  0.00    -0.475 NA 
ENDBRANCH  15  16
ENDBRANCH   7  15
ENDBRANCH   6   7
ENDBRANCH   2   6
TORSDOF 5
ENDMDL
MODEL       92
REMARK 921   NORMALIZED FREE ENERGY PREDICTED BY IDOCK:   -4.47 KCAL/MOL
REMARK 922        TOTAL FREE ENERGY PREDICTED BY IDOCK:   -6.59 KCAL/MOL
REMARK 923 INTER-LIGAND FREE ENERGY PREDICTED BY IDOCK:   -5.80 KCAL/MOL
REMARK 924 INTRA-LIGAND FREE ENERGY PREDICTED BY IDOCK:   -0.78 KCAL/MOL
REMARK 927      BINDING AFFINITY PREDICTED BY RF-SCORE:    0.00 PKD
ROOT
HETATM    1  N   UNL     1     -10.978   5.816  73.665  1.00  0.00    -0.428 N  
HETATM    2  C   UNL     1     -10.616   7.095  73.435  1.00  0.00    -0.382 C  
HETATM    3  H1  UNL     1     -11.859   5.402  73.364  1.00  0.00     0.000 HD 
HETATM    4  H2  UNL     1     -10.325   5.223  74.176  1.00  0.00     0.000 HD 
HETATM    5  O   UNL     1      -9.562   7.591  73.795  1.00  0.00    -0.274 OA 
ENDROOT
BRANCH   2   6
HETATM    6  O   UNL     1     -11.584   7.712  72.734  1.00  0.00    -0.337 OA 
BRANCH   6   7
HETATM    7  C   UNL     1     -11.381   7.940  71.313  1.00  0.00    -0.260 C  
BRANCH   7   8
HETATM    8  C   UNL     1     -11.751   9.402  71.019  1.00  0.00    -0.395 A  
HETATM    9  C   UNL     1     -12.475  12.115  70.594  1.00  0.00    -0.330 A  
HETATM   10  C   UNL     1     -12.689  10.065  71.842  1.00  0.00    -0.493 A  
HETATM   11  C   UNL     1     -11.161  10.161  69.990  1.00  0.00    -0.308 A  
HETATM   12  C   UNL     1     -13.042  11.401  71.639  1.00  0.00    -0.498 A  
HETATM   13  C   UNL     1     -11.538  11.496  69.771  1.00  0.00    -0.401 A  
HETATM   14 CL   UNL     1      -9.901   9.552  68.977  1.00  0.00    -0.170 Cl 
ENDBRANCH   7   8
BRANCH   7  15
HETATM   15  C   UNL     1     -12.123   6.879  70.482  1.00  0.00    -0.261 C  
BRANCH  15  16
HETATM   16  N   UNL     1     -11.240   5.977  69.781  1.00  0.00    -0.411 NA 
HETATM   17  N   UNL     1     -11.129   5.984  68.438  1.00  0.00    -0.274 NA 
HETATM   18  N   UNL     1      -9.575   4.706  69.471  1.00  0.00    -0.170 NA 
HETATM   19  C   UNL     1     -10.082   5.168  68.294  1.00  0.00    -0.134 A  
HETATM   20  N   UNL     1     -10.318   5.242  70.431  1.00  0.00    -0.275 NA 
ENDBRANCH  15  16
ENDBRANCH   7  15
ENDBRANCH   6   7
ENDBRANCH   2   6
TORSDOF 5
ENDMDL
MODEL       93
REMARK 921   NORMALIZED FREE ENERGY PREDICTED BY IDOCK:   -4.46 KCAL/MOL
REMARK 922        TOTAL FREE ENERGY PREDICTED BY IDOCK:   -6.57 KCAL/MOL
REMARK 923 INTER-LIGAND FREE ENERGY PREDICTED BY IDOCK:   -5.48 KCAL/MOL
REMARK 924 INTRA-LIGAND FREE ENERGY PREDICTED BY IDOCK:   -1.09 KCAL/MOL
REMARK 927      BINDING AFFINITY PREDICTED BY RF-SCORE:    0.00 PKD
ROOT
HETATM    1  N   UNL     1     -12.094  14.242  67.845  1.00  0.00    -0.567 N  
HETATM    2  C   UNL     1     -11.944  12.982  67.388  1.00  0.00    -0.316 C  
HETATM    3  H1  UNL     1     -12.426  14.483  68.779  1.00  0.00     0.000 HD 
HETATM    4  H2  UNL     1     -11.861  15.007  67.212  1.00  0.00     0.000 HD 
HETATM    5  O   UNL     1     -11.548  12.693  66.272  1.00  0.00    -0.343 OA 
ENDROOT
BRANCH   2   6
HETATM    6  O   UNL     1     -12.277  12.114  68.361  1.00  0.00    -0.324 OA 
BRANCH   6   7
HETATM    7  C   UNL     1     -11.467  12.075  69.567  1.00  0.00    -0.282 C  
BRANCH   7   8
HETATM    8  C   UNL     1     -10.703  10.741  69.571  1.00  0.00    -0.268 A  
HETATM    9  C   UNL     1      -9.400   8.218  69.600  1.00  0.00    -0.158 A  
HETATM   10  C   UNL     1     -11.268   9.614  70.209  1.00  0.00    -0.324 A  
HETATM   11  C   UNL     1      -9.471  10.549  68.915  1.00  0.00    -0.193 A  
HETATM   12  C   UNL     1     -10.631   8.370  70.220  1.00  0.00    -0.234 A  
HETATM   13  C   UNL     1      -8.821   9.305  68.951  1.00  0.00    -0.135 A  
HETATM   14 CL   UNL     1      -8.707  11.780  67.975  1.00  0.00    -0.160 Cl 
ENDBRANCH   7   8
BRANCH   7  15
HETATM   15  C   UNL     1     -12.330  12.357  70.809  1.00  0.00    -0.286 C  
BRANCH  15  16
HETATM   16  N   UNL     1     -12.517  13.766  71.070  1.00  0.00    -0.367 NA 
HETATM   17  N   UNL     1     -11.508  14.653  70.966  1.00  0.00    -0.223 NA 
HETATM   18  N   UNL     1     -13.539  15.613  71.230  1.00  0.00    -0.572 NA 
HETATM   19  C   UNL     1     -12.196  15.792  71.082  1.00  0.00    -0.423 A  
HETATM   20  N   UNL     1     -13.744  14.303  71.208  1.00  0.00    -0.308 NA 
ENDBRANCH  15  16
ENDBRANCH   7  15
ENDBRANCH   6   7
ENDBRANCH   2   6
TORSDOF 5
ENDMDL
MODEL       94
REMARK 921   NORMALIZED FREE ENERGY PREDICTED BY IDOCK:   -4.45 KCAL/MOL
REMARK 922        TOTAL FREE ENERGY PREDICTED BY IDOCK:   -6.55 KCAL/MOL
REMARK 923 INTER-LIGAND FREE ENERGY PREDICTED BY IDOCK:   -5.91 KCAL/MOL
REMARK 924 INTRA-LIGAND FREE ENERGY PREDICTED BY IDOCK:   -0.64 KCAL/MOL
REMARK 927      BINDING AFFINITY PREDICTED BY RF-SCORE:    0.00 PKD
ROOT
HETATM    1  N   UNL     1      -8.131  12.165  68.852  1.00  0.00    -0.350 N  
HETATM    2  C   UNL     1      -8.575  13.265  68.211  1.00  0.00    -0.169 C  
HETATM    3  H1  UNL     1      -8.732  11.439  69.240  1.00  0.00     0.000 HD 
HETATM    4  H2  UNL     1      -7.123  12.053  68.958  1.00  0.00     0.000 HD 
HETATM    5  O   UNL     1      -7.857  14.135  67.748  1.00  0.00    -0.139 OA 
ENDROOT
BRANCH   2   6
HETATM    6  O   UNL     1      -9.919  13.232  68.149  1.00  0.00    -0.223 OA 
BRANCH   6   7
HETATM    7  C   UNL     1     -10.571  11.978  67.809  1.00  0.00    -0.207 C  
BRANCH   7   8
HETATM    8  C   UNL     1     -10.739  11.941  66.282  1.00  0.00    -0.309 A  
HETATM    9  C   UNL     1     -11.017  11.753  63.462  1.00  0.00    -0.499 A  
HETATM   10  C   UNL     1     -10.094  10.932  65.531  1.00  0.00    -0.325 A  
HETATM   11  C   UNL     1     -11.560  12.837  65.569  1.00  0.00    -0.362 A  
HETATM   12  C   UNL     1     -10.234  10.834  64.145  1.00  0.00    -0.412 A  
HETATM   13  C   UNL     1     -11.676  12.753  64.172  1.00  0.00    -0.465 A  
HETATM   14 CL   UNL     1     -12.525  14.044  66.341  1.00  0.00    -0.462 Cl 
ENDBRANCH   7   8
BRANCH   7  15
HETATM   15  C   UNL     1     -11.857  11.794  68.631  1.00  0.00    -0.310 C  
BRANCH  15  16
HETATM   16  N   UNL     1     -11.672  10.992  69.819  1.00  0.00    -0.303 NA 
HETATM   17  N   UNL     1     -12.658  10.806  70.717  1.00  0.00    -0.363 NA 
HETATM   18  N   UNL     1     -10.854   9.485  71.060  1.00  0.00    -0.329 NA 
HETATM   19  C   UNL     1     -12.095   9.863  71.477  1.00  0.00    -0.410 A  
HETATM   20  N   UNL     1     -10.590  10.207  69.980  1.00  0.00    -0.278 NA 
ENDBRANCH  15  16
ENDBRANCH   7  15
ENDBRANCH   6   7
ENDBRANCH   2   6
TORSDOF 5
ENDMDL
MODEL       95
REMARK 921   NORMALIZED FREE ENERGY PREDICTED BY IDOCK:   -4.44 KCAL/MOL
REMARK 922        TOTAL FREE ENERGY PREDICTED BY IDOCK:   -6.55 KCAL/MOL
REMARK 923 INTER-LIGAND FREE ENERGY PREDICTED BY IDOCK:   -6.37 KCAL/MOL
REMARK 924 INTRA-LIGAND FREE ENERGY PREDICTED BY IDOCK:   -0.17 KCAL/MOL
REMARK 927      BINDING AFFINITY PREDICTED BY RF-SCORE:    0.00 PKD
ROOT
HETATM    1  N   UNL     1     -10.870  12.735  68.788  1.00  0.00    -0.273 N  
HETATM    2  C   UNL     1     -11.762  11.875  68.257  1.00  0.00    -0.321 C  
HETATM    3  H1  UNL     1     -10.725  12.876  69.787  1.00  0.00     0.000 HD 
HETATM    4  H2  UNL     1     -10.301  13.285  68.145  1.00  0.00     0.000 HD 
HETATM    5  O   UNL     1     -11.936  11.707  67.062  1.00  0.00    -0.593 OA 
ENDROOT
BRANCH   2   6
HETATM    6  O   UNL     1     -12.400  11.228  69.249  1.00  0.00    -0.342 OA 
BRANCH   6   7
HETATM    7  C   UNL     1     -11.882  11.341  70.602  1.00  0.00    -0.267 C  
BRANCH   7   8
HETATM    8  C   UNL     1     -11.335   9.962  71.006  1.00  0.00    -0.460 A  
HETATM    9  C   UNL     1     -10.209   7.458  71.733  1.00  0.00    -0.212 A  
HETATM   10  C   UNL     1     -10.038   9.577  70.598  1.00  0.00    -0.353 A  
HETATM   11  C   UNL     1     -12.038   9.056  71.825  1.00  0.00    -0.368 A  
HETATM   12  C   UNL     1      -9.480   8.349  70.959  1.00  0.00    -0.212 A  
HETATM   13  C   UNL     1     -11.485   7.811  72.163  1.00  0.00    -0.361 A  
HETATM   14 CL   UNL     1     -13.576   9.420  72.523  1.00  0.00    -0.493 Cl 
ENDBRANCH   7   8
BRANCH   7  15
HETATM   15  C   UNL     1     -12.940  11.944  71.541  1.00  0.00    -0.323 C  
BRANCH  15  16
HETATM   16  N   UNL     1     -12.942  13.390  71.551  1.00  0.00    -0.359 NA 
HETATM   17  N   UNL     1     -11.850  14.108  71.224  1.00  0.00    -0.188 NA 
HETATM   18  N   UNL     1     -13.728  15.351  71.432  1.00  0.00    -0.510 NA 
HETATM   19  C   UNL     1     -12.391  15.329  71.172  1.00  0.00    -0.360 A  
HETATM   20  N   UNL     1     -14.083  14.095  71.663  1.00  0.00    -0.380 NA 
ENDBRANCH  15  16
ENDBRANCH   7  15
ENDBRANCH   6   7
ENDBRANCH   2   6
TORSDOF 5
ENDMDL
MODEL       96
REMARK 921   NORMALIZED FREE ENERGY PREDICTED BY IDOCK:   -4.43 KCAL/MOL
REMARK 922        TOTAL FREE ENERGY PREDICTED BY IDOCK:   -6.53 KCAL/MOL
REMARK 923 INTER-LIGAND FREE ENERGY PREDICTED BY IDOCK:   -5.52 KCAL/MOL
REMARK 924 INTRA-LIGAND FREE ENERGY PREDICTED BY IDOCK:   -1.01 KCAL/MOL
REMARK 927      BINDING AFFINITY PREDICTED BY RF-SCORE:    0.00 PKD
ROOT
HETATM    1  N   UNL     1      -9.619   9.679  65.366  1.00  0.00    -0.285 N  
HETATM    2  C   UNL     1     -10.229   9.094  66.417  1.00  0.00    -0.230 C  
HETATM    3  H1  UNL     1      -9.742  10.654  65.095  1.00  0.00     0.000 HD 
HETATM    4  H2  UNL     1      -8.991   9.105  64.803  1.00  0.00     0.000 HD 
HETATM    5  O   UNL     1     -10.083   7.928  66.742  1.00  0.00    -0.254 OA 
ENDROOT
BRANCH   2   6
HETATM    6  O   UNL     1     -10.995  10.003  67.048  1.00  0.00    -0.181 OA 
BRANCH   6   7
HETATM    7  C   UNL     1     -10.393  10.820  68.090  1.00  0.00    -0.171 C  
BRANCH   7   8
HETATM    8  C   UNL     1     -11.003  10.384  69.431  1.00  0.00    -0.296 A  
HETATM    9  C   UNL     1     -12.244   9.600  71.863  1.00  0.00    -0.413 A  
HETATM   10  C   UNL     1     -12.323  10.770  69.757  1.00  0.00    -0.305 A  
HETATM   11  C   UNL     1     -10.335   9.559  70.358  1.00  0.00    -0.276 A  
HETATM   12  C   UNL     1     -12.937  10.380  70.950  1.00  0.00    -0.475 A  
HETATM   13  C   UNL     1     -10.946   9.192  71.568  1.00  0.00    -0.434 A  
HETATM   14 CL   UNL     1      -8.772   8.887  70.060  1.00  0.00    -0.138 Cl 
ENDBRANCH   7   8
BRANCH   7  15
HETATM   15  C   UNL     1     -10.519  12.314  67.748  1.00  0.00    -0.209 C  
BRANCH  15  16
HETATM   16  N   UNL     1     -11.099  12.559  66.447  1.00  0.00    -0.277 NA 
HETATM   17  N   UNL     1     -12.406  12.846  66.290  1.00  0.00    -0.476 NA 
HETATM   18  N   UNL     1     -11.178  13.134  64.412  1.00  0.00    -0.354 NA 
HETATM   19  C   UNL     1     -12.406  13.190  64.999  1.00  0.00    -0.459 A  
HETATM   20  N   UNL     1     -10.333  12.739  65.354  1.00  0.00    -0.290 NA 
ENDBRANCH  15  16
ENDBRANCH   7  15
ENDBRANCH   6   7
ENDBRANCH   2   6
TORSDOF 5
ENDMDL
MODEL       97
REMARK 921   NORMALIZED FREE ENERGY PREDICTED BY IDOCK:   -4.39 KCAL/MOL
REMARK 922        TOTAL FREE ENERGY PREDICTED BY IDOCK:   -6.48 KCAL/MOL
REMARK 923 INTER-LIGAND FREE ENERGY PREDICTED BY IDOCK:   -5.61 KCAL/MOL
REMARK 924 INTRA-LIGAND FREE ENERGY PREDICTED BY IDOCK:   -0.87 KCAL/MOL
REMARK 927      BINDING AFFINITY PREDICTED BY RF-SCORE:    0.00 PKD
ROOT
HETATM    1  N   UNL     1      -8.917  12.331  67.590  1.00  0.00    -0.172 N  
HETATM    2  C   UNL     1      -9.967  13.162  67.752  1.00  0.00    -0.227 C  
HETATM    3  H1  UNL     1      -8.570  11.690  68.304  1.00  0.00     0.000 HD 
HETATM    4  H2  UNL     1      -8.435  12.345  66.691  1.00  0.00     0.000 HD 
HETATM    5  O   UNL     1     -10.381  13.928  66.899  1.00  0.00    -0.262 OA 
ENDROOT
BRANCH   2   6
HETATM    6  O   UNL     1     -10.484  12.990  68.982  1.00  0.00    -0.135 OA 
BRANCH   6   7
HETATM    7  C   UNL     1     -11.892  12.654  69.106  1.00  0.00    -0.297 C  
BRANCH   7   8
HETATM    8  C   UNL     1     -12.466  13.479  70.269  1.00  0.00    -0.309 A  
HETATM    9  C   UNL     1     -13.501  14.907  72.496  1.00  0.00    -0.548 A  
HETATM   10  C   UNL     1     -12.909  12.823  71.440  1.00  0.00    -0.371 A  
HETATM   11  C   UNL     1     -12.529  14.886  70.268  1.00  0.00    -0.336 A  
HETATM   12  C   UNL     1     -13.413  13.523  72.538  1.00  0.00    -0.660 A  
HETATM   13  C   UNL     1     -13.062  15.586  71.362  1.00  0.00    -0.580 A  
HETATM   14 CL   UNL     1     -11.907  15.852  68.978  1.00  0.00    -0.380 Cl 
ENDBRANCH   7   8
BRANCH   7  15
HETATM   15  C   UNL     1     -12.081  11.132  69.207  1.00  0.00    -0.308 C  
BRANCH  15  16
HETATM   16  N   UNL     1     -10.889  10.382  68.878  1.00  0.00    -0.221 NA 
HETATM   17  N   UNL     1      -9.995  10.013  69.816  1.00  0.00    -0.237 NA 
HETATM   18  N   UNL     1      -9.639   9.062  67.795  1.00  0.00    -0.147 NA 
HETATM   19  C   UNL     1      -9.230   9.196  69.087  1.00  0.00    -0.144 A  
HETATM   20  N   UNL     1     -10.720   9.819  67.666  1.00  0.00    -0.277 NA 
ENDBRANCH  15  16
ENDBRANCH   7  15
ENDBRANCH   6   7
ENDBRANCH   2   6
TORSDOF 5
ENDMDL
MODEL       98
REMARK 921   NORMALIZED FREE ENERGY PREDICTED BY IDOCK:   -4.39 KCAL/MOL
REMARK 922        TOTAL FREE ENERGY PREDICTED BY IDOCK:   -6.47 KCAL/MOL
REMARK 923 INTER-LIGAND FREE ENERGY PREDICTED BY IDOCK:   -5.96 KCAL/MOL
REMARK 924 INTRA-LIGAND FREE ENERGY PREDICTED BY IDOCK:   -0.52 KCAL/MOL
REMARK 927      BINDING AFFINITY PREDICTED BY RF-SCORE:    0.00 PKD
ROOT
HETATM    1  N   UNL     1      -8.615  13.950  68.710  1.00  0.00    -0.348 N  
HETATM    2  C   UNL     1      -8.750  15.285  68.574  1.00  0.00    -0.176 C  
HETATM    3  H1  UNL     1      -8.225  13.331  68.000  1.00  0.00     0.000 HD 
HETATM    4  H2  UNL     1      -8.926  13.529  69.586  1.00  0.00     0.000 HD 
HETATM    5  O   UNL     1      -9.216  16.024  69.423  1.00  0.00    -0.251 OA 
ENDROOT
BRANCH   2   6
HETATM    6  O   UNL     1      -8.271  15.659  67.373  1.00  0.00    -0.151 OA 
BRANCH   6   7
HETATM    7  C   UNL     1      -9.198  16.183  66.385  1.00  0.00    -0.300 C  
BRANCH   7   8
HETATM    8  C   UNL     1      -9.317  17.698  66.617  1.00  0.00    -0.289 A  
HETATM    9  C   UNL     1      -9.627  20.474  67.131  1.00  0.00    -0.570 A  
HETATM   10  C   UNL     1     -10.496  18.227  67.191  1.00  0.00    -0.417 A  
HETATM   11  C   UNL     1      -8.281  18.611  66.339  1.00  0.00    -0.277 A  
HETATM   12  C   UNL     1     -10.648  19.591  67.450  1.00  0.00    -0.607 A  
HETATM   13  C   UNL     1      -8.448  19.985  66.576  1.00  0.00    -0.359 A  
HETATM   14 CL   UNL     1      -6.728  18.122  65.764  1.00  0.00    -0.317 Cl 
ENDBRANCH   7   8
BRANCH   7  15
HETATM   15  C   UNL     1     -10.518  15.395  66.407  1.00  0.00    -0.303 C  
BRANCH  15  16
HETATM   16  N   UNL     1     -10.496  14.213  65.576  1.00  0.00    -0.321 NA 
HETATM   17  N   UNL     1     -10.150  13.004  66.061  1.00  0.00    -0.280 NA 
HETATM   18  N   UNL     1     -11.014  12.933  63.972  1.00  0.00    -0.399 NA 
HETATM   19  C   UNL     1     -10.483  12.240  65.017  1.00  0.00    -0.290 A  
HETATM   20  N   UNL     1     -11.034  14.207  64.342  1.00  0.00    -0.303 NA 
ENDBRANCH  15  16
ENDBRANCH   7  15
ENDBRANCH   6   7
ENDBRANCH   2   6
TORSDOF 5
ENDMDL
MODEL       99
REMARK 921   NORMALIZED FREE ENERGY PREDICTED BY IDOCK:   -4.36 KCAL/MOL
REMARK 922        TOTAL FREE ENERGY PREDICTED BY IDOCK:   -6.44 KCAL/MOL
REMARK 923 INTER-LIGAND FREE ENERGY PREDICTED BY IDOCK:   -5.86 KCAL/MOL
REMARK 924 INTRA-LIGAND FREE ENERGY PREDICTED BY IDOCK:   -0.57 KCAL/MOL
REMARK 927      BINDING AFFINITY PREDICTED BY RF-SCORE:    0.00 PKD
ROOT
HETATM    1  N   UNL     1      -7.279  14.875  67.378  1.00  0.00    -0.200 N  
HETATM    2  C   UNL     1      -8.349  14.293  67.959  1.00  0.00    -0.157 C  
HETATM    3  H1  UNL     1      -7.254  15.838  67.046  1.00  0.00     0.000 HD 
HETATM    4  H2  UNL     1      -6.438  14.311  67.262  1.00  0.00     0.000 HD 
HETATM    5  O   UNL     1      -8.380  13.141  68.356  1.00  0.00    -0.157 OA 
ENDROOT
BRANCH   2   6
HETATM    6  O   UNL     1      -9.349  15.189  68.045  1.00  0.00    -0.184 OA 
BRANCH   6   7
HETATM    7  C   UNL     1     -10.708  14.702  68.220  1.00  0.00    -0.239 C  
BRANCH   7   8
HETATM    8  C   UNL     1     -11.228  14.274  66.839  1.00  0.00    -0.333 A  
HETATM    9  C   UNL     1     -12.122  13.574  64.235  1.00  0.00    -0.482 A  
HETATM   10  C   UNL     1     -11.176  15.184  65.759  1.00  0.00    -0.287 A  
HETATM   11  C   UNL     1     -11.716  12.983  66.558  1.00  0.00    -0.382 A  
HETATM   12  C   UNL     1     -11.609  14.840  64.476  1.00  0.00    -0.366 A  
HETATM   13  C   UNL     1     -12.176  12.649  65.274  1.00  0.00    -0.532 A  
HETATM   14 CL   UNL     1     -11.724  11.708  67.723  1.00  0.00    -0.351 Cl 
ENDBRANCH   7   8
BRANCH   7  15
HETATM   15  C   UNL     1     -11.563  15.738  68.968  1.00  0.00    -0.400 C  
BRANCH  15  16
HETATM   16  N   UNL     1     -11.974  15.302  70.283  1.00  0.00    -0.304 NA 
HETATM   17  N   UNL     1     -11.896  16.108  71.360  1.00  0.00    -0.451 NA 
HETATM   18  N   UNL     1     -13.036  14.191  71.739  1.00  0.00    -0.331 NA 
HETATM   19  C   UNL     1     -12.565  15.365  72.246  1.00  0.00    -0.373 A  
HETATM   20  N   UNL     1     -12.664  14.161  70.466  1.00  0.00    -0.334 NA 
ENDBRANCH  15  16
ENDBRANCH   7  15
ENDBRANCH   6   7
ENDBRANCH   2   6
TORSDOF 5
ENDMDL
MODEL      100
REMARK 921   NORMALIZED FREE ENERGY PREDICTED BY IDOCK:   -4.33 KCAL/MOL
REMARK 922        TOTAL FREE ENERGY PREDICTED BY IDOCK:   -6.40 KCAL/MOL
REMARK 923 INTER-LIGAND FREE ENERGY PREDICTED BY IDOCK:   -5.85 KCAL/MOL
REMARK 924 INTRA-LIGAND FREE ENERGY PREDICTED BY IDOCK:   -0.55 KCAL/MOL
REMARK 927      BINDING AFFINITY PREDICTED BY RF-SCORE:    0.00 PKD
ROOT
HETATM    1  N   UNL     1     -10.918  19.584  67.445  1.00  0.00    -0.421 N  
HETATM    2  C   UNL     1     -10.379  19.545  66.209  1.00  0.00    -0.506 C  
HETATM    3  H1  UNL     1     -10.405  19.400  68.306  1.00  0.00     0.000 HD 
HETATM    4  H2  UNL     1     -11.909  19.811  67.523  1.00  0.00     0.000 HD 
HETATM    5  O   UNL     1     -10.993  19.764  65.179  1.00  0.00    -0.352 OA 
ENDROOT
BRANCH   2   6
HETATM    6  O   UNL     1      -9.069  19.252  66.305  1.00  0.00    -0.341 OA 
BRANCH   6   7
HETATM    7  C   UNL     1      -8.667  18.107  67.105  1.00  0.00    -0.248 C  
BRANCH   7   8
HETATM    8  C   UNL     1      -7.518  18.560  68.019  1.00  0.00    -0.264 A  
HETATM    9  C   UNL     1      -5.429  19.517  69.689  1.00  0.00    -0.230 A  
HETATM   10  C   UNL     1      -7.030  19.884  67.926  1.00  0.00    -0.308 A  
HETATM   11  C   UNL     1      -6.941  17.739  69.008  1.00  0.00    -0.236 A  
HETATM   12  C   UNL     1      -6.008  20.358  68.750  1.00  0.00    -0.356 A  
HETATM   13  C   UNL     1      -5.894  18.211  69.816  1.00  0.00    -0.241 A  
HETATM   14 CL   UNL     1      -7.506  16.143  69.350  1.00  0.00    -0.225 Cl 
ENDBRANCH   7   8
BRANCH   7  15
HETATM   15  C   UNL     1      -8.372  16.895  66.207  1.00  0.00    -0.296 C  
BRANCH  15  16
HETATM   16  N   UNL     1      -9.486  15.981  66.090  1.00  0.00    -0.309 NA 
HETATM   17  N   UNL     1     -10.437  16.131  65.147  1.00  0.00    -0.608 NA 
HETATM   18  N   UNL     1     -10.560  14.165  66.260  1.00  0.00    -0.281 NA 
HETATM   19  C   UNL     1     -11.088  14.974  65.300  1.00  0.00    -0.386 A  
HETATM   20  N   UNL     1      -9.515  14.813  66.759  1.00  0.00    -0.242 NA 
ENDBRANCH  15  16
ENDBRANCH   7  15
ENDBRANCH   6   7
ENDBRANCH   2   6
TORSDOF 5
ENDMDL
MODEL      101
REMARK 921   NORMALIZED FREE ENERGY PREDICTED BY IDOCK:   -4.33 KCAL/MOL
REMARK 922        TOTAL FREE ENERGY PREDICTED BY IDOCK:   -6.40 KCAL/MOL
REMARK 923 INTER-LIGAND FREE ENERGY PREDICTED BY IDOCK:   -5.00 KCAL/MOL
REMARK 924 INTRA-LIGAND FREE ENERGY PREDICTED BY IDOCK:   -1.40 KCAL/MOL
REMARK 927      BINDING AFFINITY PREDICTED BY RF-SCORE:    0.00 PKD
ROOT
HETATM    1  N   UNL     1      -9.701   8.730  65.906  1.00  0.00    -0.447 N  
HETATM    2  C   UNL     1     -10.525   8.371  66.912  1.00  0.00    -0.289 C  
HETATM    3  H1  UNL     1      -9.375   9.681  65.736  1.00  0.00     0.000 HD 
HETATM    4  H2  UNL     1      -9.384   7.999  65.270  1.00  0.00     0.000 HD 
HETATM    5  O   UNL     1     -10.915   7.234  67.115  1.00  0.00    -0.327 OA 
ENDROOT
BRANCH   2   6
HETATM    6  O   UNL     1     -10.819   9.455  67.654  1.00  0.00    -0.267 OA 
BRANCH   6   7
HETATM    7  C   UNL     1     -10.130   9.642  68.920  1.00  0.00    -0.187 C  
BRANCH   7   8
HETATM    8  C   UNL     1     -11.200   9.755  70.018  1.00  0.00    -0.297 A  
HETATM    9  C   UNL     1     -13.219  10.070  71.991  1.00  0.00    -0.545 A  
HETATM   10  C   UNL     1     -11.814  11.003  70.269  1.00  0.00    -0.456 A  
HETATM   11  C   UNL     1     -11.660   8.658  70.772  1.00  0.00    -0.242 A  
HETATM   12  C   UNL     1     -12.811  11.159  71.234  1.00  0.00    -0.515 A  
HETATM   13  C   UNL     1     -12.643   8.824  71.760  1.00  0.00    -0.409 A  
HETATM   14 CL   UNL     1     -11.118   7.040  70.502  1.00  0.00    -0.296 Cl 
ENDBRANCH   7   8
BRANCH   7  15
HETATM   15  C   UNL     1      -9.135  10.810  68.830  1.00  0.00    -0.178 C  
BRANCH  15  16
HETATM   16  N   UNL     1      -8.050  10.571  67.905  1.00  0.00    -0.106 NA 
HETATM   17  N   UNL     1      -7.209   9.527  68.045  1.00  0.00    -0.081 NA 
HETATM   18  N   UNL     1      -6.981  10.624  66.079  1.00  0.00    -0.133 NA 
HETATM   19  C   UNL     1      -6.556   9.608  66.882  1.00  0.00    -0.067 A  
HETATM   20  N   UNL     1      -7.956  11.235  66.738  1.00  0.00    -0.155 NA 
ENDBRANCH  15  16
ENDBRANCH   7  15
ENDBRANCH   6   7
ENDBRANCH   2   6
TORSDOF 5
ENDMDL
MODEL      102
REMARK 921   NORMALIZED FREE ENERGY PREDICTED BY IDOCK:   -4.31 KCAL/MOL
REMARK 922        TOTAL FREE ENERGY PREDICTED BY IDOCK:   -6.38 KCAL/MOL
REMARK 923 INTER-LIGAND FREE ENERGY PREDICTED BY IDOCK:   -5.68 KCAL/MOL
REMARK 924 INTRA-LIGAND FREE ENERGY PREDICTED BY IDOCK:   -0.70 KCAL/MOL
REMARK 927      BINDING AFFINITY PREDICTED BY RF-SCORE:    0.00 PKD
ROOT
HETATM    1  N   UNL     1      -9.984  12.720  68.581  1.00  0.00    -0.391 N  
HETATM    2  C   UNL     1      -9.797  13.675  67.647  1.00  0.00    -0.228 C  
HETATM    3  H1  UNL     1      -9.860  12.859  69.583  1.00  0.00     0.000 HD 
HETATM    4  H2  UNL     1     -10.270  11.795  68.262  1.00  0.00     0.000 HD 
HETATM    5  O   UNL     1      -9.945  13.510  66.448  1.00  0.00    -0.280 OA 
ENDROOT
BRANCH   2   6
HETATM    6  O   UNL     1      -9.446  14.825  68.251  1.00  0.00    -0.195 OA 
BRANCH   6   7
HETATM    7  C   UNL     1     -10.115  16.053  67.854  1.00  0.00    -0.241 C  
BRANCH   7   8
HETATM    8  C   UNL     1      -9.153  17.218  68.137  1.00  0.00    -0.257 A  
HETATM    9  C   UNL     1      -7.280  19.289  68.659  1.00  0.00    -0.367 A  
HETATM   10  C   UNL     1      -7.874  16.953  68.678  1.00  0.00    -0.244 A  
HETATM   11  C   UNL     1      -9.449  18.562  67.835  1.00  0.00    -0.296 A  
HETATM   12  C   UNL     1      -6.950  17.969  68.929  1.00  0.00    -0.263 A  
HETATM   13  C   UNL     1      -8.527  19.583  68.115  1.00  0.00    -0.361 A  
HETATM   14 CL   UNL     1     -10.907  19.048  67.048  1.00  0.00    -0.497 Cl 
ENDBRANCH   7   8
BRANCH   7  15
HETATM   15  C   UNL     1     -11.502  16.153  68.511  1.00  0.00    -0.324 C  
BRANCH  15  16
HETATM   16  N   UNL     1     -11.596  15.439  69.765  1.00  0.00    -0.298 NA 
HETATM   17  N   UNL     1     -11.192  15.983  70.929  1.00  0.00    -0.358 NA 
HETATM   18  N   UNL     1     -12.331  14.045  71.177  1.00  0.00    -0.354 NA 
HETATM   19  C   UNL     1     -11.666  15.069  71.780  1.00  0.00    -0.385 A  
HETATM   20  N   UNL     1     -12.296  14.294  69.875  1.00  0.00    -0.340 NA 
ENDBRANCH  15  16
ENDBRANCH   7  15
ENDBRANCH   6   7
ENDBRANCH   2   6
TORSDOF 5
ENDMDL
MODEL      103
REMARK 921   NORMALIZED FREE ENERGY PREDICTED BY IDOCK:   -4.29 KCAL/MOL
REMARK 922        TOTAL FREE ENERGY PREDICTED BY IDOCK:   -6.35 KCAL/MOL
REMARK 923 INTER-LIGAND FREE ENERGY PREDICTED BY IDOCK:   -6.69 KCAL/MOL
REMARK 924 INTRA-LIGAND FREE ENERGY PREDICTED BY IDOCK:    0.35 KCAL/MOL
REMARK 927      BINDING AFFINITY PREDICTED BY RF-SCORE:    0.00 PKD
ROOT
HETATM    1  N   UNL     1     -11.871  16.250  71.561  1.00  0.00    -0.649 N  
HETATM    2  C   UNL     1     -12.679  15.516  70.769  1.00  0.00    -0.457 C  
HETATM    3  H1  UNL     1     -10.852  16.245  71.512  1.00  0.00     0.000 HD 
HETATM    4  H2  UNL     1     -12.309  16.852  72.258  1.00  0.00     0.000 HD 
HETATM    5  O   UNL     1     -13.896  15.522  70.827  1.00  0.00    -0.457 OA 
ENDROOT
BRANCH   2   6
HETATM    6  O   UNL     1     -11.930  14.807  69.905  1.00  0.00    -0.292 OA 
BRANCH   6   7
HETATM    7  C   UNL     1     -11.547  15.423  68.645  1.00  0.00    -0.359 C  
BRANCH   7   8
HETATM    8  C   UNL     1     -11.694  14.359  67.545  1.00  0.00    -0.416 A  
HETATM    9  C   UNL     1     -11.917  12.476  65.430  1.00  0.00    -0.492 A  
HETATM   10  C   UNL     1     -11.721  14.755  66.189  1.00  0.00    -0.255 A  
HETATM   11  C   UNL     1     -11.750  12.976  67.804  1.00  0.00    -0.359 A  
HETATM   12  C   UNL     1     -11.824  13.831  65.147  1.00  0.00    -0.365 A  
HETATM   13  C   UNL     1     -11.882  12.051  66.756  1.00  0.00    -0.244 A  
HETATM   14 CL   UNL     1     -11.594  12.310  69.390  1.00  0.00    -0.363 Cl 
ENDBRANCH   7   8
BRANCH   7  15
HETATM   15  C   UNL     1     -10.162  16.081  68.761  1.00  0.00    -0.225 C  
BRANCH  15  16
HETATM   16  N   UNL     1     -10.117  17.423  68.225  1.00  0.00    -0.317 NA 
HETATM   17  N   UNL     1     -10.199  17.668  66.903  1.00  0.00    -0.323 NA 
HETATM   18  N   UNL     1     -10.342  19.527  68.184  1.00  0.00    -0.437 NA 
HETATM   19  C   UNL     1     -10.329  18.997  66.928  1.00  0.00    -0.407 A  
HETATM   20  N   UNL     1     -10.219  18.505  69.020  1.00  0.00    -0.277 NA 
ENDBRANCH  15  16
ENDBRANCH   7  15
ENDBRANCH   6   7
ENDBRANCH   2   6
TORSDOF 5
ENDMDL
MODEL      104
REMARK 921   NORMALIZED FREE ENERGY PREDICTED BY IDOCK:   -4.28 KCAL/MOL
REMARK 922        TOTAL FREE ENERGY PREDICTED BY IDOCK:   -6.33 KCAL/MOL
REMARK 923 INTER-LIGAND FREE ENERGY PREDICTED BY IDOCK:   -5.85 KCAL/MOL
REMARK 924 INTRA-LIGAND FREE ENERGY PREDICTED BY IDOCK:   -0.48 KCAL/MOL
REMARK 927      BINDING AFFINITY PREDICTED BY RF-SCORE:    0.00 PKD
ROOT
HETATM    1  N   UNL     1      -9.816  20.092  66.275  1.00  0.00    -0.567 N  
HETATM    2  C   UNL     1     -10.504  18.975  65.963  1.00  0.00    -0.458 C  
HETATM    3  H1  UNL     1      -9.359  20.259  67.171  1.00  0.00     0.000 HD 
HETATM    4  H2  UNL     1      -9.749  20.822  65.566  1.00  0.00     0.000 HD 
HETATM    5  O   UNL     1     -11.051  18.776  64.891  1.00  0.00    -0.404 OA 
ENDROOT
BRANCH   2   6
HETATM    6  O   UNL     1     -10.467  18.125  67.004  1.00  0.00    -0.372 OA 
BRANCH   6   7
HETATM    7  C   UNL     1     -10.460  16.696  66.738  1.00  0.00    -0.261 C  
BRANCH   7   8
HETATM    8  C   UNL     1     -10.959  15.985  68.006  1.00  0.00    -0.341 A  
HETATM    9  C   UNL     1     -11.878  14.780  70.409  1.00  0.00    -0.352 A  
HETATM   10  C   UNL     1     -10.740  16.575  69.271  1.00  0.00    -0.331 A  
HETATM   11  C   UNL     1     -11.688  14.779  67.985  1.00  0.00    -0.333 A  
HETATM   12  C   UNL     1     -11.196  15.988  70.453  1.00  0.00    -0.401 A  
HETATM   13  C   UNL     1     -12.121  14.178  69.178  1.00  0.00    -0.362 A  
HETATM   14 CL   UNL     1     -12.161  13.993  66.522  1.00  0.00    -0.487 Cl 
ENDBRANCH   7   8
BRANCH   7  15
HETATM   15  C   UNL     1      -9.085  16.248  66.216  1.00  0.00    -0.331 C  
BRANCH  15  16
HETATM   16  N   UNL     1      -7.993  16.603  67.094  1.00  0.00    -0.169 NA 
HETATM   17  N   UNL     1      -7.533  17.866  67.188  1.00  0.00    -0.192 NA 
HETATM   18  N   UNL     1      -6.691  16.471  68.757  1.00  0.00    -0.159 NA 
HETATM   19  C   UNL     1      -6.716  17.729  68.236  1.00  0.00    -0.206 A  
HETATM   20  N   UNL     1      -7.528  15.749  68.025  1.00  0.00    -0.122 NA 
ENDBRANCH  15  16
ENDBRANCH   7  15
ENDBRANCH   6   7
ENDBRANCH   2   6
TORSDOF 5
ENDMDL
MODEL      105
REMARK 921   NORMALIZED FREE ENERGY PREDICTED BY IDOCK:   -4.27 KCAL/MOL
REMARK 922        TOTAL FREE ENERGY PREDICTED BY IDOCK:   -6.32 KCAL/MOL
REMARK 923 INTER-LIGAND FREE ENERGY PREDICTED BY IDOCK:   -6.52 KCAL/MOL
REMARK 924 INTRA-LIGAND FREE ENERGY PREDICTED BY IDOCK:    0.20 KCAL/MOL
REMARK 927      BINDING AFFINITY PREDICTED BY RF-SCORE:    0.00 PKD
ROOT
HETATM    1  N   UNL     1     -11.116   9.714  68.658  1.00  0.00    -0.457 N  
HETATM    2  C   UNL     1     -10.868  10.714  67.787  1.00  0.00    -0.286 C  
HETATM    3  H1  UNL     1     -12.028   9.520  69.071  1.00  0.00     0.000 HD 
HETATM    4  H2  UNL     1     -10.338   9.110  68.922  1.00  0.00     0.000 HD 
HETATM    5  O   UNL     1      -9.778  10.946  67.293  1.00  0.00    -0.163 OA 
ENDROOT
BRANCH   2   6
HETATM    6  O   UNL     1     -12.008  11.385  67.543  1.00  0.00    -0.626 OA 
BRANCH   6   7
HETATM    7  C   UNL     1     -12.115  12.764  67.989  1.00  0.00    -0.121 C  
BRANCH   7   8
HETATM    8  C   UNL     1     -11.732  13.665  66.804  1.00  0.00    -0.426 A  
HETATM    9  C   UNL     1     -11.145  15.337  64.584  1.00  0.00    -0.346 A  
HETATM   10  C   UNL     1     -12.620  13.802  65.714  1.00  0.00    -0.525 A  
HETATM   11  C   UNL     1     -10.547  14.426  66.757  1.00  0.00    -0.282 A  
HETATM   12  C   UNL     1     -12.337  14.628  64.624  1.00  0.00    -0.390 A  
HETATM   13  C   UNL     1     -10.252  15.234  65.647  1.00  0.00    -0.398 A  
HETATM   14 CL   UNL     1      -9.416  14.483  68.061  1.00  0.00    -0.204 Cl 
ENDBRANCH   7   8
BRANCH   7  15
HETATM   15  C   UNL     1     -11.313  12.981  69.283  1.00  0.00    -0.251 C  
BRANCH  15  16
HETATM   16  N   UNL     1     -12.094  12.783  70.483  1.00  0.00    -0.349 NA 
HETATM   17  N   UNL     1     -12.730  13.800  71.097  1.00  0.00    -0.354 NA 
HETATM   18  N   UNL     1     -13.286  11.759  71.901  1.00  0.00    -0.450 NA 
HETATM   19  C   UNL     1     -13.455  13.109  71.982  1.00  0.00    -0.507 A  
HETATM   20  N   UNL     1     -12.416  11.552  70.922  1.00  0.00    -0.389 NA 
ENDBRANCH  15  16
ENDBRANCH   7  15
ENDBRANCH   6   7
ENDBRANCH   2   6
TORSDOF 5
ENDMDL
MODEL      106
REMARK 921   NORMALIZED FREE ENERGY PREDICTED BY IDOCK:   -4.26 KCAL/MOL
REMARK 922        TOTAL FREE ENERGY PREDICTED BY IDOCK:   -6.32 KCAL/MOL
REMARK 923 INTER-LIGAND FREE ENERGY PREDICTED BY IDOCK:   -5.69 KCAL/MOL
REMARK 924 INTRA-LIGAND FREE ENERGY PREDICTED BY IDOCK:   -0.62 KCAL/MOL
REMARK 927      BINDING AFFINITY PREDICTED BY RF-SCORE:    0.00 PKD
ROOT
HETATM    1  N   UNL     1     -13.347  15.123  70.461  1.00  0.00    -0.689 N  
HETATM    2  C   UNL     1     -12.069  15.367  70.817  1.00  0.00    -0.366 C  
HETATM    3  H1  UNL     1     -13.627  14.575  69.648  1.00  0.00     0.000 HD 
HETATM    4  H2  UNL     1     -14.085  15.514  71.046  1.00  0.00     0.000 HD 
HETATM    5  O   UNL     1     -11.735  16.022  71.789  1.00  0.00    -0.450 OA 
ENDROOT
BRANCH   2   6
HETATM    6  O   UNL     1     -11.242  14.758  69.948  1.00  0.00    -0.256 OA 
BRANCH   6   7
HETATM    7  C   UNL     1     -11.474  14.933  68.524  1.00  0.00    -0.315 C  
BRANCH   7   8
HETATM    8  C   UNL     1     -11.123  13.608  67.830  1.00  0.00    -0.293 A  
HETATM    9  C   UNL     1     -10.448  11.109  66.660  1.00  0.00    -0.298 A  
HETATM   10  C   UNL     1     -10.308  12.664  68.496  1.00  0.00    -0.232 A  
HETATM   11  C   UNL     1     -11.617  13.238  66.563  1.00  0.00    -0.350 A  
HETATM   12  C   UNL     1      -9.980  11.433  67.925  1.00  0.00    -0.190 A  
HETATM   13  C   UNL     1     -11.263  12.011  65.981  1.00  0.00    -0.385 A  
HETATM   14 CL   UNL     1     -12.732  14.210  65.671  1.00  0.00    -0.523 Cl 
ENDBRANCH   7   8
BRANCH   7  15
HETATM   15  C   UNL     1     -10.739  16.179  68.003  1.00  0.00    -0.321 C  
BRANCH  15  16
HETATM   16  N   UNL     1      -9.319  15.976  67.824  1.00  0.00    -0.210 NA 
HETATM   17  N   UNL     1      -8.760  15.873  66.602  1.00  0.00    -0.259 NA 
HETATM   18  N   UNL     1      -7.253  16.051  68.280  1.00  0.00    -0.127 NA 
HETATM   19  C   UNL     1      -7.469  15.915  66.942  1.00  0.00    -0.198 A  
HETATM   20  N   UNL     1      -8.452  16.104  68.846  1.00  0.00    -0.229 NA 
ENDBRANCH  15  16
ENDBRANCH   7  15
ENDBRANCH   6   7
ENDBRANCH   2   6
TORSDOF 5
ENDMDL
MODEL      107
REMARK 921   NORMALIZED FREE ENERGY PREDICTED BY IDOCK:   -4.26 KCAL/MOL
REMARK 922        TOTAL FREE ENERGY PREDICTED BY IDOCK:   -6.31 KCAL/MOL
REMARK 923 INTER-LIGAND FREE ENERGY PREDICTED BY IDOCK:   -5.83 KCAL/MOL
REMARK 924 INTRA-LIGAND FREE ENERGY PREDICTED BY IDOCK:   -0.48 KCAL/MOL
REMARK 927      BINDING AFFINITY PREDICTED BY RF-SCORE:    0.00 PKD
ROOT
HETATM    1  N   UNL     1     -11.462   6.594  67.476  1.00  0.00    -0.715 N  
HETATM    2  C   UNL     1     -10.902   6.440  68.693  1.00  0.00    -0.314 C  
HETATM    3  H1  UNL     1     -11.579   7.489  67.002  1.00  0.00     0.000 HD 
HETATM    4  H2  UNL     1     -11.793   5.757  66.997  1.00  0.00     0.000 HD 
HETATM    5  O   UNL     1     -10.763   5.371  69.261  1.00  0.00    -0.248 OA 
ENDROOT
BRANCH   2   6
HETATM    6  O   UNL     1     -10.510   7.641  69.157  1.00  0.00    -0.215 OA 
BRANCH   6   7
HETATM    7  C   UNL     1     -10.348   7.816  70.591  1.00  0.00    -0.202 C  
BRANCH   7   8
HETATM    8  C   UNL     1     -11.387   8.849  71.054  1.00  0.00    -0.350 A  
HETATM    9  C   UNL     1     -13.261  10.839  71.825  1.00  0.00    -0.523 A  
HETATM   10  C   UNL     1     -11.170  10.222  70.798  1.00  0.00    -0.373 A  
HETATM   11  C   UNL     1     -12.599   8.504  71.683  1.00  0.00    -0.333 A  
HETATM   12  C   UNL     1     -12.093  11.201  71.171  1.00  0.00    -0.302 A  
HETATM   13  C   UNL     1     -13.512   9.494  72.081  1.00  0.00    -0.535 A  
HETATM   14 CL   UNL     1     -13.087   6.869  71.949  1.00  0.00    -0.311 Cl 
ENDBRANCH   7   8
BRANCH   7  15
HETATM   15  C   UNL     1      -8.884   8.136  70.936  1.00  0.00    -0.142 C  
BRANCH  15  16
HETATM   16  N   UNL     1      -8.636   8.230  72.357  1.00  0.00    -0.191 NA 
HETATM   17  N   UNL     1      -9.347   7.521  73.256  1.00  0.00    -0.194 NA 
HETATM   18  N   UNL     1      -7.545   8.565  74.140  1.00  0.00    -0.384 NA 
HETATM   19  C   UNL     1      -8.631   7.771  74.356  1.00  0.00    -0.168 A  
HETATM   20  N   UNL     1      -7.544   8.849  72.844  1.00  0.00    -0.326 NA 
ENDBRANCH  15  16
ENDBRANCH   7  15
ENDBRANCH   6   7
ENDBRANCH   2   6
TORSDOF 5
ENDMDL
MODEL      108
REMARK 921   NORMALIZED FREE ENERGY PREDICTED BY IDOCK:   -4.25 KCAL/MOL
REMARK 922        TOTAL FREE ENERGY PREDICTED BY IDOCK:   -6.29 KCAL/MOL
REMARK 923 INTER-LIGAND FREE ENERGY PREDICTED BY IDOCK:   -5.73 KCAL/MOL
REMARK 924 INTRA-LIGAND FREE ENERGY PREDICTED BY IDOCK:   -0.56 KCAL/MOL
REMARK 927      BINDING AFFINITY PREDICTED BY RF-SCORE:    0.00 PKD
ROOT
HETATM    1  N   UNL     1     -10.134  15.290  70.333  1.00  0.00    -0.453 N  
HETATM    2  C   UNL     1     -10.321  15.942  69.168  1.00  0.00    -0.237 C  
HETATM    3  H1  UNL     1      -9.577  14.442  70.439  1.00  0.00     0.000 HD 
HETATM    4  H2  UNL     1     -10.581  15.670  71.167  1.00  0.00     0.000 HD 
HETATM    5  O   UNL     1     -10.987  16.955  69.041  1.00  0.00    -0.283 OA 
ENDROOT
BRANCH   2   6
HETATM    6  O   UNL     1      -9.643  15.311  68.192  1.00  0.00    -0.200 OA 
BRANCH   6   7
HETATM    7  C   UNL     1      -9.903  15.682  66.810  1.00  0.00    -0.244 C  
BRANCH   7   8
HETATM    8  C   UNL     1     -10.688  14.532  66.161  1.00  0.00    -0.310 A  
HETATM    9  C   UNL     1     -12.147  12.351  65.073  1.00  0.00    -0.468 A  
HETATM   10  C   UNL     1     -10.758  13.279  66.810  1.00  0.00    -0.279 A  
HETATM   11  C   UNL     1     -11.407  14.664  64.957  1.00  0.00    -0.390 A  
HETATM   12  C   UNL     1     -11.479  12.207  66.280  1.00  0.00    -0.433 A  
HETATM   13  C   UNL     1     -12.109  13.576  64.413  1.00  0.00    -0.468 A  
HETATM   14 CL   UNL     1     -11.541  16.159  64.102  1.00  0.00    -0.210 Cl 
ENDBRANCH   7   8
BRANCH   7  15
HETATM   15  C   UNL     1      -8.599  16.088  66.103  1.00  0.00    -0.280 C  
BRANCH  15  16
HETATM   16  N   UNL     1      -8.172  17.434  66.413  1.00  0.00    -0.308 NA 
HETATM   17  N   UNL     1      -8.766  18.515  65.870  1.00  0.00    -0.451 NA 
HETATM   18  N   UNL     1      -7.319  19.011  67.537  1.00  0.00    -0.225 NA 
HETATM   19  C   UNL     1      -8.192  19.476  66.599  1.00  0.00    -0.311 A  
HETATM   20  N   UNL     1      -7.319  17.690  67.423  1.00  0.00    -0.183 NA 
ENDBRANCH  15  16
ENDBRANCH   7  15
ENDBRANCH   6   7
ENDBRANCH   2   6
TORSDOF 5
ENDMDL
MODEL      109
REMARK 921   NORMALIZED FREE ENERGY PREDICTED BY IDOCK:   -4.24 KCAL/MOL
REMARK 922        TOTAL FREE ENERGY PREDICTED BY IDOCK:   -6.28 KCAL/MOL
REMARK 923 INTER-LIGAND FREE ENERGY PREDICTED BY IDOCK:   -5.44 KCAL/MOL
REMARK 924 INTRA-LIGAND FREE ENERGY PREDICTED BY IDOCK:   -0.85 KCAL/MOL
REMARK 927      BINDING AFFINITY PREDICTED BY RF-SCORE:    0.00 PKD
ROOT
HETATM    1  N   UNL     1     -11.496   6.546  69.091  1.00  0.00    -0.624 N  
HETATM    2  C   UNL     1     -10.851   6.903  67.962  1.00  0.00    -0.200 C  
HETATM    3  H1  UNL     1     -11.355   6.985  70.001  1.00  0.00     0.000 HD 
HETATM    4  H2  UNL     1     -12.170   5.784  69.032  1.00  0.00     0.000 HD 
HETATM    5  O   UNL     1     -11.018   6.378  66.874  1.00  0.00    -0.370 OA 
ENDROOT
BRANCH   2   6
HETATM    6  O   UNL     1     -10.024   7.930  68.228  1.00  0.00    -0.168 OA 
BRANCH   6   7
HETATM    7  C   UNL     1     -10.521   9.036  69.030  1.00  0.00    -0.218 C  
BRANCH   7   8
HETATM    8  C   UNL     1     -10.798  10.211  68.080  1.00  0.00    -0.310 A  
HETATM    9  C   UNL     1     -11.288  12.307  66.227  1.00  0.00    -0.395 A  
HETATM   10  C   UNL     1     -10.295  10.177  66.760  1.00  0.00    -0.285 A  
HETATM   11  C   UNL     1     -11.589  11.324  68.430  1.00  0.00    -0.308 A  
HETATM   12  C   UNL     1     -10.540  11.204  65.845  1.00  0.00    -0.294 A  
HETATM   13  C   UNL     1     -11.810  12.367  67.516  1.00  0.00    -0.354 A  
HETATM   14 CL   UNL     1     -12.392  11.463  69.952  1.00  0.00    -0.312 Cl 
ENDBRANCH   7   8
BRANCH   7  15
HETATM   15  C   UNL     1      -9.566   9.330  70.200  1.00  0.00    -0.220 C  
BRANCH  15  16
HETATM   16  N   UNL     1      -9.900   8.611  71.408  1.00  0.00    -0.230 NA 
HETATM   17  N   UNL     1      -8.979   8.331  72.351  1.00  0.00    -0.208 NA 
HETATM   18  N   UNL     1     -11.102   7.893  72.996  1.00  0.00    -0.385 NA 
HETATM   19  C   UNL     1      -9.779   7.876  73.319  1.00  0.00    -0.285 A  
HETATM   20  N   UNL     1     -11.178   8.381  71.765  1.00  0.00    -0.273 NA 
ENDBRANCH  15  16
ENDBRANCH   7  15
ENDBRANCH   6   7
ENDBRANCH   2   6
TORSDOF 5
ENDMDL
MODEL      110
REMARK 921   NORMALIZED FREE ENERGY PREDICTED BY IDOCK:   -4.24 KCAL/MOL
REMARK 922        TOTAL FREE ENERGY PREDICTED BY IDOCK:   -6.28 KCAL/MOL
REMARK 923 INTER-LIGAND FREE ENERGY PREDICTED BY IDOCK:   -5.28 KCAL/MOL
REMARK 924 INTRA-LIGAND FREE ENERGY PREDICTED BY IDOCK:   -1.00 KCAL/MOL
REMARK 927      BINDING AFFINITY PREDICTED BY RF-SCORE:    0.00 PKD
ROOT
HETATM    1  N   UNL     1      -9.998   8.602  68.929  1.00  0.00    -0.184 N  
HETATM    2  C   UNL     1      -9.726   9.871  68.562  1.00  0.00    -0.154 C  
HETATM    3  H1  UNL     1     -10.474   8.338  69.791  1.00  0.00     0.000 HD 
HETATM    4  H2  UNL     1      -9.707   7.853  68.300  1.00  0.00     0.000 HD 
HETATM    5  O   UNL     1      -9.156  10.186  67.531  1.00  0.00    -0.134 OA 
ENDROOT
BRANCH   2   6
HETATM    6  O   UNL     1     -10.199  10.715  69.497  1.00  0.00    -0.218 OA 
BRANCH   6   7
HETATM    7  C   UNL     1     -11.618  11.032  69.496  1.00  0.00    -0.313 C  
BRANCH   7   8
HETATM    8  C   UNL     1     -11.760  12.523  69.150  1.00  0.00    -0.375 A  
HETATM    9  C   UNL     1     -11.978  15.305  68.624  1.00  0.00    -0.263 A  
HETATM   10  C   UNL     1     -11.821  13.479  70.188  1.00  0.00    -0.348 A  
HETATM   11  C   UNL     1     -11.778  13.016  67.830  1.00  0.00    -0.357 A  
HETATM   12  C   UNL     1     -11.922  14.848  69.932  1.00  0.00    -0.376 A  
HETATM   13  C   UNL     1     -11.908  14.391  67.576  1.00  0.00    -0.418 A  
HETATM   14 CL   UNL     1     -11.577  12.003  66.446  1.00  0.00    -0.417 Cl 
ENDBRANCH   7   8
BRANCH   7  15
HETATM   15  C   UNL     1     -12.275  10.583  70.811  1.00  0.00    -0.369 C  
BRANCH  15  16
HETATM   16  N   UNL     1     -11.847   9.274  71.250  1.00  0.00    -0.319 NA 
HETATM   17  N   UNL     1     -10.792   9.105  72.071  1.00  0.00    -0.297 NA 
HETATM   18  N   UNL     1     -12.007   7.224  71.750  1.00  0.00    -0.294 NA 
HETATM   19  C   UNL     1     -10.930   7.805  72.348  1.00  0.00    -0.311 A  
HETATM   20  N   UNL     1     -12.605   8.179  71.052  1.00  0.00    -0.138 NA 
ENDBRANCH  15  16
ENDBRANCH   7  15
ENDBRANCH   6   7
ENDBRANCH   2   6
TORSDOF 5
ENDMDL
MODEL      111
REMARK 921   NORMALIZED FREE ENERGY PREDICTED BY IDOCK:   -4.23 KCAL/MOL
REMARK 922        TOTAL FREE ENERGY PREDICTED BY IDOCK:   -6.27 KCAL/MOL
REMARK 923 INTER-LIGAND FREE ENERGY PREDICTED BY IDOCK:   -5.77 KCAL/MOL
REMARK 924 INTRA-LIGAND FREE ENERGY PREDICTED BY IDOCK:   -0.49 KCAL/MOL
REMARK 927      BINDING AFFINITY PREDICTED BY RF-SCORE:    0.00 PKD
ROOT
HETATM    1  N   UNL     1     -10.267   5.185  70.142  1.00  0.00    -0.270 N  
HETATM    2  C   UNL     1     -11.150   6.041  69.590  1.00  0.00    -0.404 C  
HETATM    3  H1  UNL     1     -10.171   5.018  71.144  1.00  0.00     0.000 HD 
HETATM    4  H2  UNL     1      -9.651   4.668  69.514  1.00  0.00     0.000 HD 
HETATM    5  O   UNL     1     -11.264   6.241  68.393  1.00  0.00    -0.335 OA 
ENDROOT
BRANCH   2   6
HETATM    6  O   UNL     1     -11.885   6.611  70.563  1.00  0.00    -0.390 OA 
BRANCH   6   7
HETATM    7  C   UNL     1     -11.513   7.936  71.032  1.00  0.00    -0.280 C  
BRANCH   7   8
HETATM    8  C   UNL     1     -10.493   7.757  72.168  1.00  0.00    -0.287 A  
HETATM    9  C   UNL     1      -8.667   7.320  74.299  1.00  0.00    -0.250 A  
HETATM   10  C   UNL     1     -10.811   6.929  73.269  1.00  0.00    -0.321 A  
HETATM   11  C   UNL     1      -9.209   8.335  72.157  1.00  0.00    -0.222 A  
HETATM   12  C   UNL     1      -9.912   6.708  74.315  1.00  0.00    -0.372 A  
HETATM   13  C   UNL     1      -8.318   8.133  73.224  1.00  0.00    -0.277 A  
HETATM   14 CL   UNL     1      -8.607   9.262  70.830  1.00  0.00    -0.260 Cl 
ENDBRANCH   7   8
BRANCH   7  15
HETATM   15  C   UNL     1     -12.765   8.759  71.378  1.00  0.00    -0.283 C  
BRANCH  15  16
HETATM   16  N   UNL     1     -12.563  10.186  71.268  1.00  0.00    -0.368 NA 
HETATM   17  N   UNL     1     -11.910  10.738  70.226  1.00  0.00    -0.319 NA 
HETATM   18  N   UNL     1     -12.938  12.249  71.560  1.00  0.00    -0.354 NA 
HETATM   19  C   UNL     1     -12.166  12.028  70.459  1.00  0.00    -0.325 A  
HETATM   20  N   UNL     1     -13.204  11.055  72.073  1.00  0.00    -0.459 NA 
ENDBRANCH  15  16
ENDBRANCH   7  15
ENDBRANCH   6   7
ENDBRANCH   2   6
TORSDOF 5
ENDMDL
MODEL      112
REMARK 921   NORMALIZED FREE ENERGY PREDICTED BY IDOCK:   -4.22 KCAL/MOL
REMARK 922        TOTAL FREE ENERGY PREDICTED BY IDOCK:   -6.26 KCAL/MOL
REMARK 923 INTER-LIGAND FREE ENERGY PREDICTED BY IDOCK:   -5.50 KCAL/MOL
REMARK 924 INTRA-LIGAND FREE ENERGY PREDICTED BY IDOCK:   -0.76 KCAL/MOL
REMARK 927      BINDING AFFINITY PREDICTED BY RF-SCORE:    0.00 PKD
ROOT
HETATM    1  N   UNL     1      -8.370  14.334  67.278  1.00  0.00    -0.202 N  
HETATM    2  C   UNL     1      -8.102  13.012  67.297  1.00  0.00    -0.161 C  
HETATM    3  H1  UNL     1      -9.152  14.759  66.779  1.00  0.00     0.000 HD 
HETATM    4  H2  UNL     1      -7.747  14.952  67.797  1.00  0.00     0.000 HD 
HETATM    5  O   UNL     1      -7.167  12.504  67.892  1.00  0.00    -0.091 OA 
ENDROOT
BRANCH   2   6
HETATM    6  O   UNL     1      -9.035  12.359  66.581  1.00  0.00    -0.212 OA 
BRANCH   6   7
HETATM    7  C   UNL     1     -10.416  12.397  67.033  1.00  0.00    -0.220 C  
BRANCH   7   8
HETATM    8  C   UNL     1     -10.590  11.292  68.086  1.00  0.00    -0.225 A  
HETATM    9  C   UNL     1     -10.816   9.187  69.980  1.00  0.00    -0.256 A  
HETATM   10  C   UNL     1     -10.068  10.002  67.839  1.00  0.00    -0.203 A  
HETATM   11  C   UNL     1     -11.203  11.500  69.338  1.00  0.00    -0.259 A  
HETATM   12  C   UNL     1     -10.173   8.967  68.771  1.00  0.00    -0.226 A  
HETATM   13  C   UNL     1     -11.331  10.450  70.261  1.00  0.00    -0.406 A  
HETATM   14 CL   UNL     1     -11.773  13.044  69.859  1.00  0.00    -0.359 Cl 
ENDBRANCH   7   8
BRANCH   7  15
HETATM   15  C   UNL     1     -11.381  12.343  65.837  1.00  0.00    -0.356 C  
BRANCH  15  16
HETATM   16  N   UNL     1     -11.716  13.647  65.310  1.00  0.00    -0.323 NA 
HETATM   17  N   UNL     1     -10.992  14.744  65.603  1.00  0.00    -0.330 NA 
HETATM   18  N   UNL     1     -12.520  15.072  63.968  1.00  0.00    -0.774 NA 
HETATM   19  C   UNL     1     -11.539  15.610  64.744  1.00  0.00    -0.218 A  
HETATM   20  N   UNL     1     -12.623  13.799  64.326  1.00  0.00    -0.677 NA 
ENDBRANCH  15  16
ENDBRANCH   7  15
ENDBRANCH   6   7
ENDBRANCH   2   6
TORSDOF 5
ENDMDL
MODEL      113
REMARK 921   NORMALIZED FREE ENERGY PREDICTED BY IDOCK:   -4.22 KCAL/MOL
REMARK 922        TOTAL FREE ENERGY PREDICTED BY IDOCK:   -6.26 KCAL/MOL
REMARK 923 INTER-LIGAND FREE ENERGY PREDICTED BY IDOCK:   -5.80 KCAL/MOL
REMARK 924 INTRA-LIGAND FREE ENERGY PREDICTED BY IDOCK:   -0.46 KCAL/MOL
REMARK 927      BINDING AFFINITY PREDICTED BY RF-SCORE:    0.00 PKD
ROOT
HETATM    1  N   UNL     1     -10.462  19.878  68.508  1.00  0.00    -0.496 N  
HETATM    2  C   UNL     1     -10.661  19.184  67.368  1.00  0.00    -0.481 C  
HETATM    3  H1  UNL     1     -10.505  19.477  69.444  1.00  0.00     0.000 HD 
HETATM    4  H2  UNL     1     -10.255  20.873  68.427  1.00  0.00     0.000 HD 
HETATM    5  O   UNL     1     -10.611  19.663  66.248  1.00  0.00    -0.464 OA 
ENDROOT
BRANCH   2   6
HETATM    6  O   UNL     1     -10.899  17.894  67.669  1.00  0.00    -0.375 OA 
BRANCH   6   7
HETATM    7  C   UNL     1      -9.879  16.906  67.358  1.00  0.00    -0.261 C  
BRANCH   7   8
HETATM    8  C   UNL     1     -10.579  15.706  66.703  1.00  0.00    -0.307 A  
HETATM    9  C   UNL     1     -11.776  13.476  65.414  1.00  0.00    -0.351 A  
HETATM   10  C   UNL     1     -10.208  15.305  65.400  1.00  0.00    -0.414 A  
HETATM   11  C   UNL     1     -11.554  14.924  67.354  1.00  0.00    -0.332 A  
HETATM   12  C   UNL     1     -10.791  14.206  64.766  1.00  0.00    -0.426 A  
HETATM   13  C   UNL     1     -12.158  13.836  66.704  1.00  0.00    -0.471 A  
HETATM   14 CL   UNL     1     -12.028  15.189  68.993  1.00  0.00    -0.321 Cl 
ENDBRANCH   7   8
BRANCH   7  15
HETATM   15  C   UNL     1      -9.031  16.592  68.602  1.00  0.00    -0.236 C  
BRANCH  15  16
HETATM   16  N   UNL     1      -8.053  15.551  68.383  1.00  0.00    -0.132 NA 
HETATM   17  N   UNL     1      -8.253  14.284  68.795  1.00  0.00    -0.133 NA 
HETATM   18  N   UNL     1      -6.451  14.529  67.450  1.00  0.00    -0.308 NA 
HETATM   19  C   UNL     1      -7.220  13.686  68.194  1.00  0.00    -0.117 A  
HETATM   20  N   UNL     1      -7.000  15.731  67.563  1.00  0.00    -0.169 NA 
ENDBRANCH  15  16
ENDBRANCH   7  15
ENDBRANCH   6   7
ENDBRANCH   2   6
TORSDOF 5
ENDMDL
MODEL      114
REMARK 921   NORMALIZED FREE ENERGY PREDICTED BY IDOCK:   -4.20 KCAL/MOL
REMARK 922        TOTAL FREE ENERGY PREDICTED BY IDOCK:   -6.23 KCAL/MOL
REMARK 923 INTER-LIGAND FREE ENERGY PREDICTED BY IDOCK:   -5.44 KCAL/MOL
REMARK 924 INTRA-LIGAND FREE ENERGY PREDICTED BY IDOCK:   -0.79 KCAL/MOL
REMARK 927      BINDING AFFINITY PREDICTED BY RF-SCORE:    0.00 PKD
ROOT
HETATM    1  N   UNL     1      -8.497  15.991  69.054  1.00  0.00    -0.233 N  
HETATM    2  C   UNL     1      -8.134  14.707  68.856  1.00  0.00    -0.147 C  
HETATM    3  H1  UNL     1      -9.358  16.409  68.703  1.00  0.00     0.000 HD 
HETATM    4  H2  UNL     1      -7.865  16.585  69.591  1.00  0.00     0.000 HD 
HETATM    5  O   UNL     1      -7.104  14.206  69.275  1.00  0.00    -0.119 OA 
ENDROOT
BRANCH   2   6
HETATM    6  O   UNL     1      -9.092  14.078  68.151  1.00  0.00    -0.179 OA 
BRANCH   6   7
HETATM    7  C   UNL     1     -10.477  14.474  68.348  1.00  0.00    -0.246 C  
BRANCH   7   8
HETATM    8  C   UNL     1     -11.189  13.325  69.079  1.00  0.00    -0.320 A  
HETATM    9  C   UNL     1     -12.582  11.286  70.483  1.00  0.00    -0.331 A  
HETATM   10  C   UNL     1     -11.952  13.599  70.237  1.00  0.00    -0.397 A  
HETATM   11  C   UNL     1     -11.177  11.990  68.628  1.00  0.00    -0.258 A  
HETATM   12  C   UNL     1     -12.642  12.599  70.925  1.00  0.00    -0.338 A  
HETATM   13  C   UNL     1     -11.849  10.983  69.338  1.00  0.00    -0.407 A  
HETATM   14 CL   UNL     1     -10.409  11.503  67.160  1.00  0.00    -0.239 Cl 
ENDBRANCH   7   8
BRANCH   7  15
HETATM   15  C   UNL     1     -11.109  14.917  67.018  1.00  0.00    -0.338 C  
BRANCH  15  16
HETATM   16  N   UNL     1     -10.912  16.319  66.727  1.00  0.00    -0.120 NA 
HETATM   17  N   UNL     1     -10.969  17.263  67.687  1.00  0.00    -0.226 NA 
HETATM   18  N   UNL     1     -10.202  18.029  65.701  1.00  0.00    -0.574 NA 
HETATM   19  C   UNL     1     -10.525  18.315  66.994  1.00  0.00    -0.385 A  
HETATM   20  N   UNL     1     -10.440  16.735  65.537  1.00  0.00    -0.587 NA 
ENDBRANCH  15  16
ENDBRANCH   7  15
ENDBRANCH   6   7
ENDBRANCH   2   6
TORSDOF 5
ENDMDL
MODEL      115
REMARK 921   NORMALIZED FREE ENERGY PREDICTED BY IDOCK:   -4.20 KCAL/MOL
REMARK 922        TOTAL FREE ENERGY PREDICTED BY IDOCK:   -6.23 KCAL/MOL
REMARK 923 INTER-LIGAND FREE ENERGY PREDICTED BY IDOCK:   -5.58 KCAL/MOL
REMARK 924 INTRA-LIGAND FREE ENERGY PREDICTED BY IDOCK:   -0.65 KCAL/MOL
REMARK 927      BINDING AFFINITY PREDICTED BY RF-SCORE:    0.00 PKD
ROOT
HETATM    1  N   UNL     1     -10.438  19.211  68.718  1.00  0.00    -0.445 N  
HETATM    2  C   UNL     1     -10.521  18.718  67.465  1.00  0.00    -0.435 C  
HETATM    3  H1  UNL     1     -10.197  18.661  69.542  1.00  0.00     0.000 HD 
HETATM    4  H2  UNL     1     -10.631  20.204  68.850  1.00  0.00     0.000 HD 
HETATM    5  O   UNL     1     -10.810  19.375  66.480  1.00  0.00    -0.419 OA 
ENDROOT
BRANCH   2   6
HETATM    6  O   UNL     1     -10.216  17.407  67.483  1.00  0.00    -0.307 OA 
BRANCH   6   7
HETATM    7  C   UNL     1      -9.185  16.919  66.582  1.00  0.00    -0.256 C  
BRANCH   7   8
HETATM    8  C   UNL     1      -9.456  15.428  66.330  1.00  0.00    -0.325 A  
HETATM    9  C   UNL     1      -9.907  12.645  65.978  1.00  0.00    -0.260 A  
HETATM   10  C   UNL     1      -8.732  14.453  67.054  1.00  0.00    -0.244 A  
HETATM   11  C   UNL     1     -10.443  14.956  65.443  1.00  0.00    -0.384 A  
HETATM   12  C   UNL     1      -8.956  13.085  66.887  1.00  0.00    -0.210 A  
HETATM   13  C   UNL     1     -10.647  13.579  65.257  1.00  0.00    -0.335 A  
HETATM   14 CL   UNL     1     -11.510  16.006  64.581  1.00  0.00    -0.332 Cl 
ENDBRANCH   7   8
BRANCH   7  15
HETATM   15  C   UNL     1      -7.786  17.266  67.119  1.00  0.00    -0.198 C  
BRANCH  15  16
HETATM   16  N   UNL     1      -7.242  18.483  66.562  1.00  0.00    -0.216 NA 
HETATM   17  N   UNL     1      -7.118  18.669  65.233  1.00  0.00    -0.481 NA 
HETATM   18  N   UNL     1      -6.738  20.536  66.452  1.00  0.00    -0.244 NA 
HETATM   19  C   UNL     1      -6.792  19.964  65.217  1.00  0.00    -0.279 A  
HETATM   20  N   UNL     1      -7.043  19.579  67.318  1.00  0.00    -0.203 NA 
ENDBRANCH  15  16
ENDBRANCH   7  15
ENDBRANCH   6   7
ENDBRANCH   2   6
TORSDOF 5
ENDMDL
MODEL      116
REMARK 921   NORMALIZED FREE ENERGY PREDICTED BY IDOCK:   -4.19 KCAL/MOL
REMARK 922        TOTAL FREE ENERGY PREDICTED BY IDOCK:   -6.22 KCAL/MOL
REMARK 923 INTER-LIGAND FREE ENERGY PREDICTED BY IDOCK:   -5.81 KCAL/MOL
REMARK 924 INTRA-LIGAND FREE ENERGY PREDICTED BY IDOCK:   -0.41 KCAL/MOL
REMARK 927      BINDING AFFINITY PREDICTED BY RF-SCORE:    0.00 PKD
ROOT
HETATM    1  N   UNL     1     -13.156  12.953  64.790  1.00  0.00    -0.711 N  
HETATM    2  C   UNL     1     -12.175  13.861  64.965  1.00  0.00    -0.425 C  
HETATM    3  H1  UNL     1     -13.122  11.992  65.127  1.00  0.00     0.000 HD 
HETATM    4  H2  UNL     1     -13.991  13.248  64.283  1.00  0.00     0.000 HD 
HETATM    5  O   UNL     1     -12.215  15.011  64.561  1.00  0.00    -0.431 OA 
ENDROOT
BRANCH   2   6
HETATM    6  O   UNL     1     -11.173  13.302  65.667  1.00  0.00    -0.285 OA 
BRANCH   6   7
HETATM    7  C   UNL     1     -11.415  12.926  67.050  1.00  0.00    -0.339 C  
BRANCH   7   8
HETATM    8  C   UNL     1     -11.094  14.146  67.927  1.00  0.00    -0.285 A  
HETATM    9  C   UNL     1     -10.598  16.371  69.622  1.00  0.00    -0.307 A  
HETATM   10  C   UNL     1     -12.095  14.687  68.766  1.00  0.00    -0.237 A  
HETATM   11  C   UNL     1      -9.820  14.742  67.993  1.00  0.00    -0.218 A  
HETATM   12  C   UNL     1     -11.851  15.777  69.605  1.00  0.00    -0.352 A  
HETATM   13  C   UNL     1      -9.586  15.855  68.816  1.00  0.00    -0.219 A  
HETATM   14 CL   UNL     1      -8.450  14.127  67.140  1.00  0.00    -0.225 Cl 
ENDBRANCH   7   8
BRANCH   7  15
HETATM   15  C   UNL     1     -10.663  11.631  67.400  1.00  0.00    -0.234 C  
BRANCH  15  16
HETATM   16  N   UNL     1     -11.133  11.003  68.614  1.00  0.00    -0.218 NA 
HETATM   17  N   UNL     1     -10.292  10.413  69.485  1.00  0.00    -0.233 NA 
HETATM   18  N   UNL     1     -12.404  10.631  70.264  1.00  0.00    -0.321 NA 
HETATM   19  C   UNL     1     -11.136  10.190  70.496  1.00  0.00    -0.327 A  
HETATM   20  N   UNL     1     -12.395  11.168  69.052  1.00  0.00    -0.445 NA 
ENDBRANCH  15  16
ENDBRANCH   7  15
ENDBRANCH   6   7
ENDBRANCH   2   6
TORSDOF 5
ENDMDL
MODEL      117
REMARK 921   NORMALIZED FREE ENERGY PREDICTED BY IDOCK:   -4.18 KCAL/MOL
REMARK 922        TOTAL FREE ENERGY PREDICTED BY IDOCK:   -6.21 KCAL/MOL
REMARK 923 INTER-LIGAND FREE ENERGY PREDICTED BY IDOCK:   -5.34 KCAL/MOL
REMARK 924 INTRA-LIGAND FREE ENERGY PREDICTED BY IDOCK:   -0.87 KCAL/MOL
REMARK 927      BINDING AFFINITY PREDICTED BY RF-SCORE:    0.00 PKD
ROOT
HETATM    1  N   UNL     1     -11.936   7.960  72.737  1.00  0.00    -0.615 N  
HETATM    2  C   UNL     1     -12.686   7.546  71.695  1.00  0.00    -0.355 C  
HETATM    3  H1  UNL     1     -10.984   8.317  72.659  1.00  0.00     0.000 HD 
HETATM    4  H2  UNL     1     -12.349   7.911  73.668  1.00  0.00     0.000 HD 
HETATM    5  O   UNL     1     -13.824   7.119  71.788  1.00  0.00    -0.356 OA 
ENDROOT
BRANCH   2   6
HETATM    6  O   UNL     1     -11.989   7.703  70.555  1.00  0.00    -0.170 OA 
BRANCH   6   7
HETATM    7  C   UNL     1     -10.813   8.557  70.569  1.00  0.00    -0.228 C  
BRANCH   7   8
HETATM    8  C   UNL     1     -11.002   9.625  69.480  1.00  0.00    -0.233 A  
HETATM    9  C   UNL     1     -11.327  11.511  67.381  1.00  0.00    -0.367 A  
HETATM   10  C   UNL     1     -10.446   9.421  68.197  1.00  0.00    -0.267 A  
HETATM   11  C   UNL     1     -11.759  10.799  69.665  1.00  0.00    -0.323 A  
HETATM   12  C   UNL     1     -10.610  10.344  67.161  1.00  0.00    -0.319 A  
HETATM   13  C   UNL     1     -11.899  11.737  68.630  1.00  0.00    -0.369 A  
HETATM   14 CL   UNL     1     -12.618  11.141  71.123  1.00  0.00    -0.503 Cl 
ENDBRANCH   7   8
BRANCH   7  15
HETATM   15  C   UNL     1      -9.530   7.716  70.468  1.00  0.00    -0.164 C  
BRANCH  15  16
HETATM   16  N   UNL     1      -8.668   7.840  71.622  1.00  0.00    -0.115 NA 
HETATM   17  N   UNL     1      -7.439   7.290  71.659  1.00  0.00    -0.084 NA 
HETATM   18  N   UNL     1      -7.863   8.687  73.387  1.00  0.00    -0.411 NA 
HETATM   19  C   UNL     1      -6.980   7.843  72.786  1.00  0.00    -0.083 A  
HETATM   20  N   UNL     1      -8.949   8.694  72.625  1.00  0.00    -0.375 NA 
ENDBRANCH  15  16
ENDBRANCH   7  15
ENDBRANCH   6   7
ENDBRANCH   2   6
TORSDOF 5
ENDMDL
MODEL      118
REMARK 921   NORMALIZED FREE ENERGY PREDICTED BY IDOCK:   -4.16 KCAL/MOL
REMARK 922        TOTAL FREE ENERGY PREDICTED BY IDOCK:   -6.18 KCAL/MOL
REMARK 923 INTER-LIGAND FREE ENERGY PREDICTED BY IDOCK:   -5.36 KCAL/MOL
REMARK 924 INTRA-LIGAND FREE ENERGY PREDICTED BY IDOCK:   -0.82 KCAL/MOL
REMARK 927      BINDING AFFINITY PREDICTED BY RF-SCORE:    0.00 PKD
ROOT
HETATM    1  N   UNL     1      -8.566  13.075  68.402  1.00  0.00    -0.280 N  
HETATM    2  C   UNL     1      -9.561  13.986  68.386  1.00  0.00    -0.222 C  
HETATM    3  H1  UNL     1      -8.700  12.070  68.300  1.00  0.00     0.000 HD 
HETATM    4  H2  UNL     1      -7.613  13.416  68.527  1.00  0.00     0.000 HD 
HETATM    5  O   UNL     1      -9.401  15.188  68.509  1.00  0.00    -0.180 OA 
ENDROOT
BRANCH   2   6
HETATM    6  O   UNL     1     -10.735  13.358  68.192  1.00  0.00    -0.239 OA 
BRANCH   6   7
HETATM    7  C   UNL     1     -10.723  12.006  67.658  1.00  0.00    -0.217 C  
BRANCH   7   8
HETATM    8  C   UNL     1     -11.158  12.083  66.186  1.00  0.00    -0.367 A  
HETATM    9  C   UNL     1     -11.999  12.345  63.486  1.00  0.00    -0.627 A  
HETATM   10  C   UNL     1     -12.103  13.055  65.787  1.00  0.00    -0.510 A  
HETATM   11  C   UNL     1     -10.621  11.265  65.173  1.00  0.00    -0.280 A  
HETATM   12  C   UNL     1     -12.513  13.190  64.458  1.00  0.00    -0.406 A  
HETATM   13  C   UNL     1     -11.056  11.384  63.843  1.00  0.00    -0.410 A  
HETATM   14 CL   UNL     1      -9.361  10.119  65.460  1.00  0.00    -0.236 Cl 
ENDBRANCH   7   8
BRANCH   7  15
HETATM   15  C   UNL     1     -11.546  11.063  68.552  1.00  0.00    -0.310 C  
BRANCH  15  16
HETATM   16  N   UNL     1     -10.740  10.301  69.479  1.00  0.00    -0.232 NA 
HETATM   17  N   UNL     1     -11.247   9.274  70.190  1.00  0.00    -0.237 NA 
HETATM   18  N   UNL     1      -8.995   9.449  70.320  1.00  0.00    -0.223 NA 
HETATM   19  C   UNL     1     -10.118   8.780  70.705  1.00  0.00    -0.210 A  
HETATM   20  N   UNL     1      -9.400  10.423  69.517  1.00  0.00    -0.172 NA 
ENDBRANCH  15  16
ENDBRANCH   7  15
ENDBRANCH   6   7
ENDBRANCH   2   6
TORSDOF 5
ENDMDL
MODEL      119
REMARK 921   NORMALIZED FREE ENERGY PREDICTED BY IDOCK:   -4.12 KCAL/MOL
REMARK 922        TOTAL FREE ENERGY PREDICTED BY IDOCK:   -6.13 KCAL/MOL
REMARK 923 INTER-LIGAND FREE ENERGY PREDICTED BY IDOCK:   -5.56 KCAL/MOL
REMARK 924 INTRA-LIGAND FREE ENERGY PREDICTED BY IDOCK:   -0.57 KCAL/MOL
REMARK 927      BINDING AFFINITY PREDICTED BY RF-SCORE:    0.00 PKD
ROOT
HETATM    1  N   UNL     1     -14.250   9.109  72.972  1.00  0.00    -0.714 N  
HETATM    2  C   UNL     1     -13.703   8.310  72.033  1.00  0.00    -0.337 C  
HETATM    3  H1  UNL     1     -13.724   9.586  73.704  1.00  0.00     0.000 HD 
HETATM    4  H2  UNL     1     -15.260   9.246  72.949  1.00  0.00     0.000 HD 
HETATM    5  O   UNL     1     -14.332   7.740  71.158  1.00  0.00    -0.332 OA 
ENDROOT
BRANCH   2   6
HETATM    6  O   UNL     1     -12.370   8.267  72.207  1.00  0.00    -0.345 OA 
BRANCH   6   7
HETATM    7  C   UNL     1     -11.521   8.045  71.048  1.00  0.00    -0.279 C  
BRANCH   7   8
HETATM    8  C   UNL     1     -10.959   6.619  71.150  1.00  0.00    -0.302 A  
HETATM    9  C   UNL     1      -9.985   3.967  71.445  1.00  0.00    -0.198 A  
HETATM   10  C   UNL     1     -10.950   5.958  72.400  1.00  0.00    -0.310 A  
HETATM   11  C   UNL     1     -10.491   5.886  70.042  1.00  0.00    -0.266 A  
HETATM   12  C   UNL     1     -10.477   4.652  72.546  1.00  0.00    -0.257 A  
HETATM   13  C   UNL     1      -9.991   4.583  70.197  1.00  0.00    -0.278 A  
HETATM   14 CL   UNL     1     -10.556   6.487  68.424  1.00  0.00    -0.256 Cl 
ENDBRANCH   7   8
BRANCH   7  15
HETATM   15  C   UNL     1     -10.480   9.169  70.915  1.00  0.00    -0.278 C  
BRANCH  15  16
HETATM   16  N   UNL     1     -10.934  10.282  70.113  1.00  0.00    -0.298 NA 
HETATM   17  N   UNL     1     -10.693  10.355  68.789  1.00  0.00    -0.211 NA 
HETATM   18  N   UNL     1     -12.145  11.919  69.537  1.00  0.00    -0.262 NA 
HETATM   19  C   UNL     1     -11.464  11.400  68.478  1.00  0.00    -0.297 A  
HETATM   20  N   UNL     1     -11.811  11.186  70.590  1.00  0.00    -0.337 NA 
ENDBRANCH  15  16
ENDBRANCH   7  15
ENDBRANCH   6   7
ENDBRANCH   2   6
TORSDOF 5
ENDMDL
MODEL      120
REMARK 921   NORMALIZED FREE ENERGY PREDICTED BY IDOCK:   -4.11 KCAL/MOL
REMARK 922        TOTAL FREE ENERGY PREDICTED BY IDOCK:   -6.12 KCAL/MOL
REMARK 923 INTER-LIGAND FREE ENERGY PREDICTED BY IDOCK:   -5.80 KCAL/MOL
REMARK 924 INTRA-LIGAND FREE ENERGY PREDICTED BY IDOCK:   -0.33 KCAL/MOL
REMARK 927      BINDING AFFINITY PREDICTED BY RF-SCORE:    0.00 PKD
ROOT
HETATM    1  N   UNL     1     -11.310   6.457  68.111  1.00  0.00    -0.562 N  
HETATM    2  C   UNL     1     -10.865   6.605  69.376  1.00  0.00    -0.292 C  
HETATM    3  H1  UNL     1     -11.050   7.062  67.332  1.00  0.00     0.000 HD 
HETATM    4  H2  UNL     1     -11.952   5.688  67.921  1.00  0.00     0.000 HD 
HETATM    5  O   UNL     1     -11.176   5.882  70.307  1.00  0.00    -0.332 OA 
ENDROOT
BRANCH   2   6
HETATM    6  O   UNL     1     -10.020   7.650  69.431  1.00  0.00    -0.173 OA 
BRANCH   6   7
HETATM    7  C   UNL     1      -9.811   8.312  70.708  1.00  0.00    -0.179 C  
BRANCH   7   8
HETATM    8  C   UNL     1     -10.872   9.416  70.837  1.00  0.00    -0.392 A  
HETATM    9  C   UNL     1     -12.858  11.416  71.191  1.00  0.00    -0.440 A  
HETATM   10  C   UNL     1     -11.899   9.291  71.800  1.00  0.00    -0.454 A  
HETATM   11  C   UNL     1     -10.857  10.602  70.076  1.00  0.00    -0.217 A  
HETATM   12  C   UNL     1     -12.872  10.275  71.980  1.00  0.00    -0.457 A  
HETATM   13  C   UNL     1     -11.854  11.577  70.240  1.00  0.00    -0.431 A  
HETATM   14 CL   UNL     1      -9.602  10.980  68.951  1.00  0.00    -0.197 Cl 
ENDBRANCH   7   8
BRANCH   7  15
HETATM   15  C   UNL     1      -8.349   8.766  70.851  1.00  0.00    -0.165 C  
BRANCH  15  16
HETATM   16  N   UNL     1      -7.890   8.803  72.221  1.00  0.00    -0.366 NA 
HETATM   17  N   UNL     1      -8.653   8.367  73.243  1.00  0.00    -0.356 NA 
HETATM   18  N   UNL     1      -6.515   8.813  73.830  1.00  0.00    -0.288 NA 
HETATM   19  C   UNL     1      -7.751   8.400  74.227  1.00  0.00    -0.189 A  
HETATM   20  N   UNL     1      -6.605   9.060  72.530  1.00  0.00    -0.307 NA 
ENDBRANCH  15  16
ENDBRANCH   7  15
ENDBRANCH   6   7
ENDBRANCH   2   6
TORSDOF 5
ENDMDL
MODEL      121
REMARK 921   NORMALIZED FREE ENERGY PREDICTED BY IDOCK:   -4.11 KCAL/MOL
REMARK 922        TOTAL FREE ENERGY PREDICTED BY IDOCK:   -6.12 KCAL/MOL
REMARK 923 INTER-LIGAND FREE ENERGY PREDICTED BY IDOCK:   -6.23 KCAL/MOL
REMARK 924 INTRA-LIGAND FREE ENERGY PREDICTED BY IDOCK:    0.12 KCAL/MOL
REMARK 927      BINDING AFFINITY PREDICTED BY RF-SCORE:    0.00 PKD
ROOT
HETATM    1  N   UNL     1      -8.785  17.171  67.252  1.00  0.00    -0.199 N  
HETATM    2  C   UNL     1     -10.085  16.930  66.985  1.00  0.00    -0.289 C  
HETATM    3  H1  UNL     1      -8.234  16.668  67.947  1.00  0.00     0.000 HD 
HETATM    4  H2  UNL     1      -8.321  17.909  66.722  1.00  0.00     0.000 HD 
HETATM    5  O   UNL     1     -10.744  17.531  66.154  1.00  0.00    -0.243 OA 
ENDROOT
BRANCH   2   6
HETATM    6  O   UNL     1     -10.517  15.917  67.759  1.00  0.00    -0.272 OA 
BRANCH   6   7
HETATM    7  C   UNL     1     -11.112  14.755  67.119  1.00  0.00    -0.333 C  
BRANCH   7   8
HETATM    8  C   UNL     1     -11.496  13.762  68.227  1.00  0.00    -0.348 A  
HETATM    9  C   UNL     1     -12.132  11.840  70.220  1.00  0.00    -0.426 A  
HETATM   10  C   UNL     1     -11.329  12.375  68.011  1.00  0.00    -0.340 A  
HETATM   11  C   UNL     1     -11.964  14.155  69.496  1.00  0.00    -0.340 A  
HETATM   12  C   UNL     1     -11.636  11.429  68.992  1.00  0.00    -0.383 A  
HETATM   13  C   UNL     1     -12.297  13.200  70.470  1.00  0.00    -0.380 A  
HETATM   14 CL   UNL     1     -12.098  15.809  69.976  1.00  0.00    -0.368 Cl 
ENDBRANCH   7   8
BRANCH   7  15
HETATM   15  C   UNL     1     -10.188  14.209  66.019  1.00  0.00    -0.308 C  
BRANCH  15  16
HETATM   16  N   UNL     1     -10.897  13.534  64.955  1.00  0.00    -0.341 NA 
HETATM   17  N   UNL     1     -11.999  14.060  64.386  1.00  0.00    -0.441 NA 
HETATM   18  N   UNL     1     -11.188  12.249  63.299  1.00  0.00    -0.393 NA 
HETATM   19  C   UNL     1     -12.147  13.215  63.361  1.00  0.00    -0.486 A  
HETATM   20  N   UNL     1     -10.374  12.467  64.323  1.00  0.00    -0.346 NA 
ENDBRANCH  15  16
ENDBRANCH   7  15
ENDBRANCH   6   7
ENDBRANCH   2   6
TORSDOF 5
ENDMDL
MODEL      122
REMARK 921   NORMALIZED FREE ENERGY PREDICTED BY IDOCK:   -4.11 KCAL/MOL
REMARK 922        TOTAL FREE ENERGY PREDICTED BY IDOCK:   -6.11 KCAL/MOL
REMARK 923 INTER-LIGAND FREE ENERGY PREDICTED BY IDOCK:   -5.81 KCAL/MOL
REMARK 924 INTRA-LIGAND FREE ENERGY PREDICTED BY IDOCK:   -0.30 KCAL/MOL
REMARK 927      BINDING AFFINITY PREDICTED BY RF-SCORE:    0.00 PKD
ROOT
HETATM    1  N   UNL     1     -10.126   9.412  67.556  1.00  0.00    -0.200 N  
HETATM    2  C   UNL     1     -10.154  10.677  67.089  1.00  0.00    -0.207 C  
HETATM    3  H1  UNL     1     -10.952   8.867  67.800  1.00  0.00     0.000 HD 
HETATM    4  H2  UNL     1      -9.214   8.969  67.672  1.00  0.00     0.000 HD 
HETATM    5  O   UNL     1      -9.166  11.329  66.797  1.00  0.00    -0.168 OA 
ENDROOT
BRANCH   2   6
HETATM    6  O   UNL     1     -11.432  11.083  66.982  1.00  0.00    -0.415 OA 
BRANCH   6   7
HETATM    7  C   UNL     1     -11.839  12.297  67.670  1.00  0.00    -0.264 C  
BRANCH   7   8
HETATM    8  C   UNL     1     -11.452  13.488  66.779  1.00  0.00    -0.374 A  
HETATM    9  C   UNL     1     -10.641  15.711  65.208  1.00  0.00    -0.448 A  
HETATM   10  C   UNL     1     -10.635  14.516  67.301  1.00  0.00    -0.280 A  
HETATM   11  C   UNL     1     -11.821  13.597  65.424  1.00  0.00    -0.353 A  
HETATM   12  C   UNL     1     -10.230  15.607  66.529  1.00  0.00    -0.291 A  
HETATM   13  C   UNL     1     -11.436  14.708  64.658  1.00  0.00    -0.389 A  
HETATM   14 CL   UNL     1     -12.701  12.367  64.589  1.00  0.00    -0.488 Cl 
ENDBRANCH   7   8
BRANCH   7  15
HETATM   15  C   UNL     1     -11.280  12.322  69.103  1.00  0.00    -0.242 C  
BRANCH  15  16
HETATM   16  N   UNL     1     -12.026  11.498  70.026  1.00  0.00    -0.339 NA 
HETATM   17  N   UNL     1     -11.814  10.171  70.131  1.00  0.00    -0.246 NA 
HETATM   18  N   UNL     1     -13.158  11.010  71.747  1.00  0.00    -0.480 NA 
HETATM   19  C   UNL     1     -12.551   9.912  71.215  1.00  0.00    -0.381 A  
HETATM   20  N   UNL     1     -12.805  12.035  70.983  1.00  0.00    -0.251 NA 
ENDBRANCH  15  16
ENDBRANCH   7  15
ENDBRANCH   6   7
ENDBRANCH   2   6
TORSDOF 5
ENDMDL
MODEL      123
REMARK 921   NORMALIZED FREE ENERGY PREDICTED BY IDOCK:   -4.09 KCAL/MOL
REMARK 922        TOTAL FREE ENERGY PREDICTED BY IDOCK:   -6.09 KCAL/MOL
REMARK 923 INTER-LIGAND FREE ENERGY PREDICTED BY IDOCK:   -5.77 KCAL/MOL
REMARK 924 INTRA-LIGAND FREE ENERGY PREDICTED BY IDOCK:   -0.32 KCAL/MOL
REMARK 927      BINDING AFFINITY PREDICTED BY RF-SCORE:    0.00 PKD
ROOT
HETATM    1  N   UNL     1     -12.626  12.820  64.169  1.00  0.00    -0.668 N  
HETATM    2  C   UNL     1     -11.310  12.680  63.905  1.00  0.00    -0.441 C  
HETATM    3  H1  UNL     1     -13.024  13.556  64.752  1.00  0.00     0.000 HD 
HETATM    4  H2  UNL     1     -13.267  12.143  63.756  1.00  0.00     0.000 HD 
HETATM    5  O   UNL     1     -10.834  11.801  63.207  1.00  0.00    -0.374 OA 
ENDROOT
BRANCH   2   6
HETATM    6  O   UNL     1     -10.628  13.669  64.511  1.00  0.00    -0.417 OA 
BRANCH   6   7
HETATM    7  C   UNL     1     -10.608  13.713  65.964  1.00  0.00    -0.290 C  
BRANCH   7   8
HETATM    8  C   UNL     1      -9.953  15.041  66.378  1.00  0.00    -0.295 A  
HETATM    9  C   UNL     1      -8.644  17.429  67.183  1.00  0.00    -0.233 A  
HETATM   10  C   UNL     1      -8.900  15.036  67.320  1.00  0.00    -0.216 A  
HETATM   11  C   UNL     1     -10.307  16.288  65.826  1.00  0.00    -0.374 A  
HETATM   12  C   UNL     1      -8.250  16.209  67.712  1.00  0.00    -0.162 A  
HETATM   13  C   UNL     1      -9.671  17.467  66.244  1.00  0.00    -0.271 A  
HETATM   14 CL   UNL     1     -11.477  16.459  64.568  1.00  0.00    -0.281 Cl 
ENDBRANCH   7   8
BRANCH   7  15
HETATM   15  C   UNL     1      -9.964  12.440  66.537  1.00  0.00    -0.230 C  
BRANCH  15  16
HETATM   16  N   UNL     1     -10.576  11.990  67.767  1.00  0.00    -0.202 NA 
HETATM   17  N   UNL     1     -11.911  12.007  67.949  1.00  0.00    -0.547 NA 
HETATM   18  N   UNL     1     -10.785  10.903  69.571  1.00  0.00    -0.229 NA 
HETATM   19  C   UNL     1     -11.990  11.323  69.094  1.00  0.00    -0.336 A  
HETATM   20  N   UNL     1      -9.875  11.324  68.703  1.00  0.00    -0.203 NA 
ENDBRANCH  15  16
ENDBRANCH   7  15
ENDBRANCH   6   7
ENDBRANCH   2   6
TORSDOF 5
ENDMDL
MODEL      124
REMARK 921   NORMALIZED FREE ENERGY PREDICTED BY IDOCK:   -4.09 KCAL/MOL
REMARK 922        TOTAL FREE ENERGY PREDICTED BY IDOCK:   -6.09 KCAL/MOL
REMARK 923 INTER-LIGAND FREE ENERGY PREDICTED BY IDOCK:   -5.55 KCAL/MOL
REMARK 924 INTRA-LIGAND FREE ENERGY PREDICTED BY IDOCK:   -0.54 KCAL/MOL
REMARK 927      BINDING AFFINITY PREDICTED BY RF-SCORE:    0.00 PKD
ROOT
HETATM    1  N   UNL     1     -10.280  11.065  69.570  1.00  0.00    -0.440 N  
HETATM    2  C   UNL     1     -11.596  11.191  69.305  1.00  0.00    -0.318 C  
HETATM    3  H1  UNL     1      -9.569  10.836  68.876  1.00  0.00     0.000 HD 
HETATM    4  H2  UNL     1      -9.974  11.207  70.533  1.00  0.00     0.000 HD 
HETATM    5  O   UNL     1     -12.446  11.464  70.135  1.00  0.00    -0.260 OA 
ENDROOT
BRANCH   2   6
HETATM    6  O   UNL     1     -11.806  10.991  67.991  1.00  0.00    -0.593 OA 
BRANCH   6   7
HETATM    7  C   UNL     1     -10.698  11.186  67.070  1.00  0.00    -0.268 C  
BRANCH   7   8
HETATM    8  C   UNL     1     -10.946  12.503  66.318  1.00  0.00    -0.311 A  
HETATM    9  C   UNL     1     -11.527  14.917  64.939  1.00  0.00    -0.407 A  
HETATM   10  C   UNL     1     -12.190  12.723  65.684  1.00  0.00    -0.503 A  
HETATM   11  C   UNL     1     -10.011  13.555  66.264  1.00  0.00    -0.298 A  
HETATM   12  C   UNL     1     -12.480  13.911  65.010  1.00  0.00    -0.447 A  
HETATM   13  C   UNL     1     -10.295  14.738  65.563  1.00  0.00    -0.387 A  
HETATM   14 CL   UNL     1      -8.498  13.510  67.096  1.00  0.00    -0.197 Cl 
ENDBRANCH   7   8
BRANCH   7  15
HETATM   15  C   UNL     1     -10.497   9.939  66.192  1.00  0.00    -0.074 C  
BRANCH  15  16
HETATM   16  N   UNL     1      -9.573  10.148  65.100  1.00  0.00    -0.269 NA 
HETATM   17  N   UNL     1      -8.265   9.839  65.201  1.00  0.00    -0.133 NA 
HETATM   18  N   UNL     1      -8.917  10.363  63.099  1.00  0.00    -0.211 NA 
HETATM   19  C   UNL     1      -7.898   9.998  63.927  1.00  0.00    -0.150 A  
HETATM   20  N   UNL     1     -10.001  10.446  63.859  1.00  0.00    -0.279 NA 
ENDBRANCH  15  16
ENDBRANCH   7  15
ENDBRANCH   6   7
ENDBRANCH   2   6
TORSDOF 5
ENDMDL
MODEL      125
REMARK 921   NORMALIZED FREE ENERGY PREDICTED BY IDOCK:   -4.09 KCAL/MOL
REMARK 922        TOTAL FREE ENERGY PREDICTED BY IDOCK:   -6.09 KCAL/MOL
REMARK 923 INTER-LIGAND FREE ENERGY PREDICTED BY IDOCK:   -5.53 KCAL/MOL
REMARK 924 INTRA-LIGAND FREE ENERGY PREDICTED BY IDOCK:   -0.56 KCAL/MOL
REMARK 927      BINDING AFFINITY PREDICTED BY RF-SCORE:    0.00 PKD
ROOT
HETATM    1  N   UNL     1     -13.748  11.054  72.326  1.00  0.00    -0.366 N  
HETATM    2  C   UNL     1     -12.905  10.200  71.710  1.00  0.00    -0.452 C  
HETATM    3  H1  UNL     1     -14.176  11.866  71.882  1.00  0.00     0.000 HD 
HETATM    4  H2  UNL     1     -13.972  10.876  73.305  1.00  0.00     0.000 HD 
HETATM    5  O   UNL     1     -12.393   9.229  72.241  1.00  0.00    -0.344 OA 
ENDROOT
BRANCH   2   6
HETATM    6  O   UNL     1     -12.745  10.579  70.429  1.00  0.00    -0.331 OA 
BRANCH   6   7
HETATM    7  C   UNL     1     -11.412  10.928  69.966  1.00  0.00    -0.329 C  
BRANCH   7   8
HETATM    8  C   UNL     1     -11.560  12.057  68.934  1.00  0.00    -0.377 A  
HETATM    9  C   UNL     1     -11.858  14.057  66.940  1.00  0.00    -0.458 A  
HETATM   10  C   UNL     1     -11.441  11.765  67.556  1.00  0.00    -0.373 A  
HETATM   11  C   UNL     1     -11.868  13.388  69.277  1.00  0.00    -0.334 A  
HETATM   12  C   UNL     1     -11.594  12.745  66.574  1.00  0.00    -0.435 A  
HETATM   13  C   UNL     1     -11.993  14.377  68.288  1.00  0.00    -0.323 A  
HETATM   14 CL   UNL     1     -12.180  13.891  70.899  1.00  0.00    -0.430 Cl 
ENDBRANCH   7   8
BRANCH   7  15
HETATM   15  C   UNL     1     -10.659   9.675  69.487  1.00  0.00    -0.229 C  
BRANCH  15  16
HETATM   16  N   UNL     1      -9.265   9.662  69.869  1.00  0.00    -0.215 NA 
HETATM   17  N   UNL     1      -8.851   9.148  71.044  1.00  0.00    -0.223 NA 
HETATM   18  N   UNL     1      -7.164   9.641  69.620  1.00  0.00    -0.073 NA 
HETATM   19  C   UNL     1      -7.530   9.166  70.843  1.00  0.00    -0.118 A  
HETATM   20  N   UNL     1      -8.288   9.948  68.988  1.00  0.00    -0.121 NA 
ENDBRANCH  15  16
ENDBRANCH   7  15
ENDBRANCH   6   7
ENDBRANCH   2   6
TORSDOF 5
ENDMDL
MODEL      126
REMARK 921   NORMALIZED FREE ENERGY PREDICTED BY IDOCK:   -4.08 KCAL/MOL
REMARK 922        TOTAL FREE ENERGY PREDICTED BY IDOCK:   -6.08 KCAL/MOL
REMARK 923 INTER-LIGAND FREE ENERGY PREDICTED BY IDOCK:   -5.40 KCAL/MOL
REMARK 924 INTRA-LIGAND FREE ENERGY PREDICTED BY IDOCK:   -0.68 KCAL/MOL
REMARK 927      BINDING AFFINITY PREDICTED BY RF-SCORE:    0.00 PKD
ROOT
HETATM    1  N   UNL     1      -8.480  11.024  69.433  1.00  0.00    -0.379 N  
HETATM    2  C   UNL     1      -9.400  11.108  68.450  1.00  0.00    -0.185 C  
HETATM    3  H1  UNL     1      -7.580  11.503  69.425  1.00  0.00     0.000 HD 
HETATM    4  H2  UNL     1      -8.700  10.441  70.240  1.00  0.00     0.000 HD 
HETATM    5  O   UNL     1     -10.476  10.536  68.458  1.00  0.00    -0.169 OA 
ENDROOT
BRANCH   2   6
HETATM    6  O   UNL     1      -8.947  11.931  67.487  1.00  0.00    -0.162 OA 
BRANCH   6   7
HETATM    7  C   UNL     1      -9.741  13.097  67.135  1.00  0.00    -0.235 C  
BRANCH   7   8
HETATM    8  C   UNL     1     -10.543  12.748  65.871  1.00  0.00    -0.295 A  
HETATM    9  C   UNL     1     -11.960  11.997  63.527  1.00  0.00    -0.605 A  
HETATM   10  C   UNL     1     -10.027  11.805  64.954  1.00  0.00    -0.280 A  
HETATM   11  C   UNL     1     -11.817  13.279  65.587  1.00  0.00    -0.380 A  
HETATM   12  C   UNL     1     -10.725  11.430  63.803  1.00  0.00    -0.470 A  
HETATM   13  C   UNL     1     -12.503  12.921  64.416  1.00  0.00    -0.447 A  
HETATM   14 CL   UNL     1     -12.654  14.339  66.664  1.00  0.00    -0.209 Cl 
ENDBRANCH   7   8
BRANCH   7  15
HETATM   15  C   UNL     1      -8.855  14.350  67.043  1.00  0.00    -0.237 C  
BRANCH  15  16
HETATM   16  N   UNL     1      -9.467  15.530  67.611  1.00  0.00    -0.208 NA 
HETATM   17  N   UNL     1      -9.746  16.619  66.868  1.00  0.00    -0.245 NA 
HETATM   18  N   UNL     1     -10.633  16.685  68.948  1.00  0.00    -0.315 NA 
HETATM   19  C   UNL     1     -10.467  17.314  67.751  1.00  0.00    -0.371 A  
HETATM   20  N   UNL     1      -9.996  15.526  68.849  1.00  0.00    -0.208 NA 
ENDBRANCH  15  16
ENDBRANCH   7  15
ENDBRANCH   6   7
ENDBRANCH   2   6
TORSDOF 5
ENDMDL
MODEL      127
REMARK 921   NORMALIZED FREE ENERGY PREDICTED BY IDOCK:   -4.08 KCAL/MOL
REMARK 922        TOTAL FREE ENERGY PREDICTED BY IDOCK:   -6.08 KCAL/MOL
REMARK 923 INTER-LIGAND FREE ENERGY PREDICTED BY IDOCK:   -5.74 KCAL/MOL
REMARK 924 INTRA-LIGAND FREE ENERGY PREDICTED BY IDOCK:   -0.34 KCAL/MOL
REMARK 927      BINDING AFFINITY PREDICTED BY RF-SCORE:    0.00 PKD
ROOT
HETATM    1  N   UNL     1     -12.625  15.094  69.423  1.00  0.00    -0.594 N  
HETATM    2  C   UNL     1     -12.388  13.845  69.873  1.00  0.00    -0.300 C  
HETATM    3  H1  UNL     1     -12.565  15.378  68.446  1.00  0.00     0.000 HD 
HETATM    4  H2  UNL     1     -12.882  15.804  70.108  1.00  0.00     0.000 HD 
HETATM    5  O   UNL     1     -12.460  13.505  71.042  1.00  0.00    -0.360 OA 
ENDROOT
BRANCH   2   6
HETATM    6  O   UNL     1     -12.087  13.046  68.833  1.00  0.00    -0.286 OA 
BRANCH   6   7
HETATM    7  C   UNL     1     -10.902  13.344  68.046  1.00  0.00    -0.247 C  
BRANCH   7   8
HETATM    8  C   UNL     1     -11.336  13.455  66.576  1.00  0.00    -0.346 A  
HETATM    9  C   UNL     1     -12.215  13.563  63.877  1.00  0.00    -0.458 A  
HETATM   10  C   UNL     1     -11.928  12.343  65.936  1.00  0.00    -0.434 A  
HETATM   11  C   UNL     1     -11.230  14.640  65.822  1.00  0.00    -0.336 A  
HETATM   12  C   UNL     1     -12.366  12.396  64.611  1.00  0.00    -0.518 A  
HETATM   13  C   UNL     1     -11.647  14.682  64.482  1.00  0.00    -0.377 A  
HETATM   14 CL   UNL     1     -10.658  16.128  66.486  1.00  0.00    -0.297 Cl 
ENDBRANCH   7   8
BRANCH   7  15
HETATM   15  C   UNL     1      -9.786  12.327  68.341  1.00  0.00    -0.191 C  
BRANCH  15  16
HETATM   16  N   UNL     1     -10.280  11.004  68.646  1.00  0.00    -0.191 NA 
HETATM   17  N   UNL     1     -10.146   9.975  67.785  1.00  0.00    -0.173 NA 
HETATM   18  N   UNL     1     -10.874   9.358  69.836  1.00  0.00    -0.231 NA 
HETATM   19  C   UNL     1     -10.539   8.971  68.574  1.00  0.00    -0.155 A  
HETATM   20  N   UNL     1     -10.692  10.670  69.883  1.00  0.00    -0.242 NA 
ENDBRANCH  15  16
ENDBRANCH   7  15
ENDBRANCH   6   7
ENDBRANCH   2   6
TORSDOF 5
ENDMDL
MODEL      128
REMARK 921   NORMALIZED FREE ENERGY PREDICTED BY IDOCK:   -4.07 KCAL/MOL
REMARK 922        TOTAL FREE ENERGY PREDICTED BY IDOCK:   -6.06 KCAL/MOL
REMARK 923 INTER-LIGAND FREE ENERGY PREDICTED BY IDOCK:   -5.45 KCAL/MOL
REMARK 924 INTRA-LIGAND FREE ENERGY PREDICTED BY IDOCK:   -0.61 KCAL/MOL
REMARK 927      BINDING AFFINITY PREDICTED BY RF-SCORE:    0.00 PKD
ROOT
HETATM    1  N   UNL     1     -11.103   7.358  67.547  1.00  0.00    -0.551 N  
HETATM    2  C   UNL     1     -10.521   8.569  67.670  1.00  0.00    -0.241 C  
HETATM    3  H1  UNL     1     -11.269   6.884  66.660  1.00  0.00     0.000 HD 
HETATM    4  H2  UNL     1     -11.398   6.885  68.401  1.00  0.00     0.000 HD 
HETATM    5  O   UNL     1     -10.323   9.137  68.730  1.00  0.00    -0.205 OA 
ENDROOT
BRANCH   2   6
HETATM    6  O   UNL     1     -10.183   9.025  66.451  1.00  0.00    -0.288 OA 
BRANCH   6   7
HETATM    7  C   UNL     1      -9.552  10.331  66.345  1.00  0.00    -0.185 C  
BRANCH   7   8
HETATM    8  C   UNL     1     -10.485  11.232  65.521  1.00  0.00    -0.323 A  
HETATM    9  C   UNL     1     -12.195  12.820  63.901  1.00  0.00    -0.543 A  
HETATM   10  C   UNL     1     -10.446  11.174  64.109  1.00  0.00    -0.442 A  
HETATM   11  C   UNL     1     -11.440  12.094  66.095  1.00  0.00    -0.371 A  
HETATM   12  C   UNL     1     -11.290  11.950  63.311  1.00  0.00    -0.373 A  
HETATM   13  C   UNL     1     -12.268  12.892  65.289  1.00  0.00    -0.524 A  
HETATM   14 CL   UNL     1     -11.717  12.188  67.797  1.00  0.00    -0.403 Cl 
ENDBRANCH   7   8
BRANCH   7  15
HETATM   15  C   UNL     1      -8.113  10.197  65.820  1.00  0.00    -0.142 C  
BRANCH  15  16
HETATM   16  N   UNL     1      -7.219  11.214  66.326  1.00  0.00    -0.093 NA 
HETATM   17  N   UNL     1      -7.584  12.061  67.309  1.00  0.00    -0.150 NA 
HETATM   18  N   UNL     1      -5.382  12.153  66.799  1.00  0.00    -0.334 NA 
HETATM   19  C   UNL     1      -6.403  12.632  67.563  1.00  0.00    -0.159 A  
HETATM   20  N   UNL     1      -5.911  11.227  66.010  1.00  0.00    -0.126 NA 
ENDBRANCH  15  16
ENDBRANCH   7  15
ENDBRANCH   6   7
ENDBRANCH   2   6
TORSDOF 5
ENDMDL
MODEL      129
REMARK 921   NORMALIZED FREE ENERGY PREDICTED BY IDOCK:   -4.06 KCAL/MOL
REMARK 922        TOTAL FREE ENERGY PREDICTED BY IDOCK:   -6.06 KCAL/MOL
REMARK 923 INTER-LIGAND FREE ENERGY PREDICTED BY IDOCK:   -5.39 KCAL/MOL
REMARK 924 INTRA-LIGAND FREE ENERGY PREDICTED BY IDOCK:   -0.67 KCAL/MOL
REMARK 927      BINDING AFFINITY PREDICTED BY RF-SCORE:    0.00 PKD
ROOT
HETATM    1  N   UNL     1      -8.697  12.666  68.396  1.00  0.00    -0.300 N  
HETATM    2  C   UNL     1      -9.744  12.102  67.759  1.00  0.00    -0.197 C  
HETATM    3  H1  UNL     1      -7.757  12.745  68.008  1.00  0.00     0.000 HD 
HETATM    4  H2  UNL     1      -8.856  13.039  69.332  1.00  0.00     0.000 HD 
HETATM    5  O   UNL     1     -10.867  12.006  68.223  1.00  0.00    -0.208 OA 
ENDROOT
BRANCH   2   6
HETATM    6  O   UNL     1      -9.352  11.690  66.540  1.00  0.00    -0.194 OA 
BRANCH   6   7
HETATM    7  C   UNL     1     -10.228  10.807  65.787  1.00  0.00    -0.257 C  
BRANCH   7   8
HETATM    8  C   UNL     1      -9.488   9.474  65.593  1.00  0.00    -0.326 A  
HETATM    9  C   UNL     1      -8.033   7.072  65.167  1.00  0.00    -0.128 A  
HETATM   10  C   UNL     1      -8.566   9.335  64.531  1.00  0.00    -0.217 A  
HETATM   11  C   UNL     1      -9.630   8.372  66.459  1.00  0.00    -0.236 A  
HETATM   12  C   UNL     1      -7.845   8.157  64.323  1.00  0.00    -0.137 A  
HETATM   13  C   UNL     1      -8.925   7.180  66.231  1.00  0.00    -0.181 A  
HETATM   14 CL   UNL     1     -10.609   8.416  67.881  1.00  0.00    -0.255 Cl 
ENDBRANCH   7   8
BRANCH   7  15
HETATM   15  C   UNL     1     -10.719  11.495  64.503  1.00  0.00    -0.329 C  
BRANCH  15  16
HETATM   16  N   UNL     1     -11.488  12.693  64.751  1.00  0.00    -0.310 NA 
HETATM   17  N   UNL     1     -11.110  13.897  64.278  1.00  0.00    -0.308 NA 
HETATM   18  N   UNL     1     -13.192  13.880  65.164  1.00  0.00    -0.690 NA 
HETATM   19  C   UNL     1     -12.204  14.606  64.569  1.00  0.00    -0.456 A  
HETATM   20  N   UNL     1     -12.731  12.641  65.268  1.00  0.00    -0.656 NA 
ENDBRANCH  15  16
ENDBRANCH   7  15
ENDBRANCH   6   7
ENDBRANCH   2   6
TORSDOF 5
ENDMDL
MODEL      130
REMARK 921   NORMALIZED FREE ENERGY PREDICTED BY IDOCK:   -4.06 KCAL/MOL
REMARK 922        TOTAL FREE ENERGY PREDICTED BY IDOCK:   -6.06 KCAL/MOL
REMARK 923 INTER-LIGAND FREE ENERGY PREDICTED BY IDOCK:   -5.86 KCAL/MOL
REMARK 924 INTRA-LIGAND FREE ENERGY PREDICTED BY IDOCK:   -0.20 KCAL/MOL
REMARK 927      BINDING AFFINITY PREDICTED BY RF-SCORE:    0.00 PKD
ROOT
HETATM    1  N   UNL     1      -8.234  13.614  66.662  1.00  0.00    -0.349 N  
HETATM    2  C   UNL     1      -8.662  13.137  67.849  1.00  0.00    -0.192 C  
HETATM    3  H1  UNL     1      -8.608  14.444  66.202  1.00  0.00     0.000 HD 
HETATM    4  H2  UNL     1      -7.485  13.108  66.190  1.00  0.00     0.000 HD 
HETATM    5  O   UNL     1      -8.216  12.144  68.397  1.00  0.00    -0.154 OA 
ENDROOT
BRANCH   2   6
HETATM    6  O   UNL     1      -9.630  13.940  68.327  1.00  0.00    -0.209 OA 
BRANCH   6   7
HETATM    7  C   UNL     1     -10.584  14.516  67.392  1.00  0.00    -0.271 C  
BRANCH   7   8
HETATM    8  C   UNL     1     -10.429  16.043  67.453  1.00  0.00    -0.308 A  
HETATM    9  C   UNL     1     -10.187  18.873  67.449  1.00  0.00    -0.456 A  
HETATM   10  C   UNL     1     -10.352  16.787  66.254  1.00  0.00    -0.316 A  
HETATM   11  C   UNL     1     -10.415  16.776  68.657  1.00  0.00    -0.333 A  
HETATM   12  C   UNL     1     -10.239  18.179  66.249  1.00  0.00    -0.401 A  
HETATM   13  C   UNL     1     -10.273  18.173  68.649  1.00  0.00    -0.382 A  
HETATM   14 CL   UNL     1     -10.635  16.043  70.205  1.00  0.00    -0.297 Cl 
ENDBRANCH   7   8
BRANCH   7  15
HETATM   15  C   UNL     1     -11.998  13.973  67.657  1.00  0.00    -0.368 C  
BRANCH  15  16
HETATM   16  N   UNL     1     -12.009  12.739  68.409  1.00  0.00    -0.293 NA 
HETATM   17  N   UNL     1     -11.857  11.539  67.816  1.00  0.00    -0.626 NA 
HETATM   18  N   UNL     1     -11.771  11.455  70.075  1.00  0.00    -0.322 NA 
HETATM   19  C   UNL     1     -11.723  10.768  68.899  1.00  0.00    -0.267 A  
HETATM   20  N   UNL     1     -11.942  12.730  69.754  1.00  0.00    -0.314 NA 
ENDBRANCH  15  16
ENDBRANCH   7  15
ENDBRANCH   6   7
ENDBRANCH   2   6
TORSDOF 5
ENDMDL
MODEL      131
REMARK 921   NORMALIZED FREE ENERGY PREDICTED BY IDOCK:   -4.05 KCAL/MOL
REMARK 922        TOTAL FREE ENERGY PREDICTED BY IDOCK:   -6.04 KCAL/MOL
REMARK 923 INTER-LIGAND FREE ENERGY PREDICTED BY IDOCK:   -5.69 KCAL/MOL
REMARK 924 INTRA-LIGAND FREE ENERGY PREDICTED BY IDOCK:   -0.36 KCAL/MOL
REMARK 927      BINDING AFFINITY PREDICTED BY RF-SCORE:    0.00 PKD
ROOT
HETATM    1  N   UNL     1     -10.776  18.960  67.158  1.00  0.00    -0.451 N  
HETATM    2  C   UNL     1     -10.240  18.773  65.935  1.00  0.00    -0.266 C  
HETATM    3  H1  UNL     1     -10.249  19.243  67.984  1.00  0.00     0.000 HD 
HETATM    4  H2  UNL     1     -11.779  18.808  67.265  1.00  0.00     0.000 HD 
HETATM    5  O   UNL     1     -10.869  18.435  64.947  1.00  0.00    -0.565 OA 
ENDROOT
BRANCH   2   6
HETATM    6  O   UNL     1      -8.921  19.039  65.982  1.00  0.00    -0.456 OA 
BRANCH   6   7
HETATM    7  C   UNL     1      -8.083  18.254  66.874  1.00  0.00    -0.245 C  
BRANCH   7   8
HETATM    8  C   UNL     1      -7.209  19.235  67.671  1.00  0.00    -0.254 A  
HETATM    9  C   UNL     1      -5.583  20.961  69.236  1.00  0.00    -0.391 A  
HETATM   10  C   UNL     1      -7.068  19.069  69.068  1.00  0.00    -0.361 A  
HETATM   11  C   UNL     1      -6.475  20.281  67.079  1.00  0.00    -0.208 A  
HETATM   12  C   UNL     1      -6.264  19.913  69.838  1.00  0.00    -0.388 A  
HETATM   13  C   UNL     1      -5.690  21.144  67.860  1.00  0.00    -0.389 A  
HETATM   14 CL   UNL     1      -6.424  20.543  65.372  1.00  0.00    -0.291 Cl 
ENDBRANCH   7   8
BRANCH   7  15
HETATM   15  C   UNL     1      -7.329  17.166  66.092  1.00  0.00    -0.246 C  
BRANCH  15  16
HETATM   16  N   UNL     1      -6.683  16.191  66.941  1.00  0.00    -0.264 NA 
HETATM   17  N   UNL     1      -7.378  15.235  67.589  1.00  0.00    -0.160 NA 
HETATM   18  N   UNL     1      -5.136  14.947  67.674  1.00  0.00    -0.323 NA 
HETATM   19  C   UNL     1      -6.366  14.488  68.038  1.00  0.00    -0.154 A  
HETATM   20  N   UNL     1      -5.345  16.040  66.953  1.00  0.00    -0.271 NA 
ENDBRANCH  15  16
ENDBRANCH   7  15
ENDBRANCH   6   7
ENDBRANCH   2   6
TORSDOF 5
ENDMDL
MODEL      132
REMARK 921   NORMALIZED FREE ENERGY PREDICTED BY IDOCK:   -4.05 KCAL/MOL
REMARK 922        TOTAL FREE ENERGY PREDICTED BY IDOCK:   -6.04 KCAL/MOL
REMARK 923 INTER-LIGAND FREE ENERGY PREDICTED BY IDOCK:   -5.71 KCAL/MOL
REMARK 924 INTRA-LIGAND FREE ENERGY PREDICTED BY IDOCK:   -0.33 KCAL/MOL
REMARK 927      BINDING AFFINITY PREDICTED BY RF-SCORE:    0.00 PKD
ROOT
HETATM    1  N   UNL     1     -11.865  13.021  70.559  1.00  0.00    -0.537 N  
HETATM    2  C   UNL     1     -11.655  13.257  69.248  1.00  0.00    -0.314 C  
HETATM    3  H1  UNL     1     -11.246  12.471  71.155  1.00  0.00     0.000 HD 
HETATM    4  H2  UNL     1     -12.702  13.419  70.985  1.00  0.00     0.000 HD 
HETATM    5  O   UNL     1     -12.396  13.913  68.536  1.00  0.00    -0.272 OA 
ENDROOT
BRANCH   2   6
HETATM    6  O   UNL     1     -10.502  12.675  68.871  1.00  0.00    -0.188 OA 
BRANCH   6   7
HETATM    7  C   UNL     1     -10.485  11.887  67.650  1.00  0.00    -0.208 C  
BRANCH   7   8
HETATM    8  C   UNL     1      -9.622  10.643  67.912  1.00  0.00    -0.174 A  
HETATM    9  C   UNL     1      -8.059   8.350  68.517  1.00  0.00    -0.123 A  
HETATM   10  C   UNL     1      -9.185  10.360  69.226  1.00  0.00    -0.198 A  
HETATM   11  C   UNL     1      -9.274   9.713  66.912  1.00  0.00    -0.143 A  
HETATM   12  C   UNL     1      -8.422   9.229  69.527  1.00  0.00    -0.144 A  
HETATM   13  C   UNL     1      -8.483   8.593  67.213  1.00  0.00    -0.115 A  
HETATM   14 CL   UNL     1      -9.836   9.832  65.283  1.00  0.00    -0.384 Cl 
ENDBRANCH   7   8
BRANCH   7  15
HETATM   15  C   UNL     1     -10.068  12.753  66.450  1.00  0.00    -0.259 C  
BRANCH  15  16
HETATM   16  N   UNL     1     -11.104  12.891  65.451  1.00  0.00    -0.277 NA 
HETATM   17  N   UNL     1     -10.840  13.318  64.201  1.00  0.00    -0.388 NA 
HETATM   18  N   UNL     1     -12.940  12.519  64.466  1.00  0.00    -0.823 NA 
HETATM   19  C   UNL     1     -12.021  13.074  63.626  1.00  0.00    -0.539 A  
HETATM   20  N   UNL     1     -12.339  12.389  65.641  1.00  0.00    -0.621 NA 
ENDBRANCH  15  16
ENDBRANCH   7  15
ENDBRANCH   6   7
ENDBRANCH   2   6
TORSDOF 5
ENDMDL
MODEL      133
REMARK 921   NORMALIZED FREE ENERGY PREDICTED BY IDOCK:   -4.05 KCAL/MOL
REMARK 922        TOTAL FREE ENERGY PREDICTED BY IDOCK:   -6.04 KCAL/MOL
REMARK 923 INTER-LIGAND FREE ENERGY PREDICTED BY IDOCK:   -5.83 KCAL/MOL
REMARK 924 INTRA-LIGAND FREE ENERGY PREDICTED BY IDOCK:   -0.21 KCAL/MOL
REMARK 927      BINDING AFFINITY PREDICTED BY RF-SCORE:    0.00 PKD
ROOT
HETATM    1  N   UNL     1     -10.518  19.916  69.282  1.00  0.00    -0.544 N  
HETATM    2  C   UNL     1     -10.315  19.770  67.956  1.00  0.00    -0.434 C  
HETATM    3  H1  UNL     1     -10.953  19.215  69.881  1.00  0.00     0.000 HD 
HETATM    4  H2  UNL     1     -10.217  20.789  69.714  1.00  0.00     0.000 HD 
HETATM    5  O   UNL     1      -9.796  20.608  67.239  1.00  0.00    -0.471 OA 
ENDROOT
BRANCH   2   6
HETATM    6  O   UNL     1     -10.752  18.558  67.570  1.00  0.00    -0.427 OA 
BRANCH   6   7
HETATM    7  C   UNL     1      -9.795  17.467  67.478  1.00  0.00    -0.293 C  
BRANCH   7   8
HETATM    8  C   UNL     1     -10.537  16.168  67.829  1.00  0.00    -0.309 A  
HETATM    9  C   UNL     1     -11.963  13.827  68.572  1.00  0.00    -0.402 A  
HETATM   10  C   UNL     1     -11.080  16.001  69.123  1.00  0.00    -0.317 A  
HETATM   11  C   UNL     1     -10.764  15.128  66.906  1.00  0.00    -0.308 A  
HETATM   12  C   UNL     1     -11.787  14.853  69.489  1.00  0.00    -0.360 A  
HETATM   13  C   UNL     1     -11.452  13.965  67.285  1.00  0.00    -0.369 A  
HETATM   14 CL   UNL     1     -10.290  15.225  65.248  1.00  0.00    -0.418 Cl 
ENDBRANCH   7   8
BRANCH   7  15
HETATM   15  C   UNL     1      -8.542  17.773  68.315  1.00  0.00    -0.277 C  
BRANCH  15  16
HETATM   16  N   UNL     1      -7.491  16.793  68.155  1.00  0.00    -0.166 NA 
HETATM   17  N   UNL     1      -7.255  15.842  69.079  1.00  0.00    -0.154 NA 
HETATM   18  N   UNL     1      -6.116  15.539  67.149  1.00  0.00    -0.284 NA 
HETATM   19  C   UNL     1      -6.381  15.088  68.406  1.00  0.00    -0.107 A  
HETATM   20  N   UNL     1      -6.846  16.634  66.985  1.00  0.00    -0.190 NA 
ENDBRANCH  15  16
ENDBRANCH   7  15
ENDBRANCH   6   7
ENDBRANCH   2   6
TORSDOF 5
ENDMDL
MODEL      134
REMARK 921   NORMALIZED FREE ENERGY PREDICTED BY IDOCK:   -4.05 KCAL/MOL
REMARK 922        TOTAL FREE ENERGY PREDICTED BY IDOCK:   -6.03 KCAL/MOL
REMARK 923 INTER-LIGAND FREE ENERGY PREDICTED BY IDOCK:   -5.31 KCAL/MOL
REMARK 924 INTRA-LIGAND FREE ENERGY PREDICTED BY IDOCK:   -0.72 KCAL/MOL
REMARK 927      BINDING AFFINITY PREDICTED BY RF-SCORE:    0.00 PKD
ROOT
HETATM    1  N   UNL     1     -10.221  19.373  67.231  1.00  0.00    -0.385 N  
HETATM    2  C   UNL     1     -10.257  18.725  66.048  1.00  0.00    -0.372 C  
HETATM    3  H1  UNL     1      -9.597  19.135  68.002  1.00  0.00     0.000 HD 
HETATM    4  H2  UNL     1     -10.864  20.153  67.364  1.00  0.00     0.000 HD 
HETATM    5  O   UNL     1     -11.003  19.008  65.127  1.00  0.00    -0.471 OA 
ENDROOT
BRANCH   2   6
HETATM    6  O   UNL     1      -9.333  17.748  66.049  1.00  0.00    -0.501 OA 
BRANCH   6   7
HETATM    7  C   UNL     1      -9.680  16.460  66.626  1.00  0.00    -0.257 C  
BRANCH   7   8
HETATM    8  C   UNL     1      -8.497  16.008  67.497  1.00  0.00    -0.178 A  
HETATM    9  C   UNL     1      -6.238  15.251  69.044  1.00  0.00    -0.103 A  
HETATM   10  C   UNL     1      -7.175  16.204  67.038  1.00  0.00    -0.256 A  
HETATM   11  C   UNL     1      -8.647  15.447  68.781  1.00  0.00    -0.190 A  
HETATM   12  C   UNL     1      -6.063  15.838  67.799  1.00  0.00    -0.171 A  
HETATM   13  C   UNL     1      -7.527  15.055  69.532  1.00  0.00    -0.194 A  
HETATM   14 CL   UNL     1     -10.182  15.262  69.551  1.00  0.00    -0.254 Cl 
ENDBRANCH   7   8
BRANCH   7  15
HETATM   15  C   UNL     1     -10.121  15.475  65.530  1.00  0.00    -0.373 C  
BRANCH  15  16
HETATM   16  N   UNL     1     -10.741  14.277  66.049  1.00  0.00    -0.298 NA 
HETATM   17  N   UNL     1     -10.042  13.145  66.261  1.00  0.00    -0.279 NA 
HETATM   18  N   UNL     1     -12.137  13.094  67.112  1.00  0.00    -0.335 NA 
HETATM   19  C   UNL     1     -10.961  12.433  66.919  1.00  0.00    -0.265 A  
HETATM   20  N   UNL     1     -11.986  14.290  66.560  1.00  0.00    -0.425 NA 
ENDBRANCH  15  16
ENDBRANCH   7  15
ENDBRANCH   6   7
ENDBRANCH   2   6
TORSDOF 5
ENDMDL
MODEL      135
REMARK 921   NORMALIZED FREE ENERGY PREDICTED BY IDOCK:   -4.02 KCAL/MOL
REMARK 922        TOTAL FREE ENERGY PREDICTED BY IDOCK:   -6.01 KCAL/MOL
REMARK 923 INTER-LIGAND FREE ENERGY PREDICTED BY IDOCK:   -5.35 KCAL/MOL
REMARK 924 INTRA-LIGAND FREE ENERGY PREDICTED BY IDOCK:   -0.66 KCAL/MOL
REMARK 927      BINDING AFFINITY PREDICTED BY RF-SCORE:    0.00 PKD
ROOT
HETATM    1  N   UNL     1      -6.932  10.724  66.857  1.00  0.00    -0.102 N  
HETATM    2  C   UNL     1      -7.758  11.460  67.629  1.00  0.00    -0.121 C  
HETATM    3  H1  UNL     1      -7.099   9.754  66.591  1.00  0.00     0.000 HD 
HETATM    4  H2  UNL     1      -6.080  11.169  66.517  1.00  0.00     0.000 HD 
HETATM    5  O   UNL     1      -7.558  12.620  67.947  1.00  0.00    -0.107 OA 
ENDROOT
BRANCH   2   6
HETATM    6  O   UNL     1      -8.831  10.720  67.963  1.00  0.00    -0.127 OA 
BRANCH   6   7
HETATM    7  C   UNL     1     -10.155  11.294  67.793  1.00  0.00    -0.179 C  
BRANCH   7   8
HETATM    8  C   UNL     1     -10.969  10.967  69.055  1.00  0.00    -0.285 A  
HETATM    9  C   UNL     1     -12.387  10.276  71.417  1.00  0.00    -0.502 A  
HETATM   10  C   UNL     1     -10.784   9.725  69.704  1.00  0.00    -0.264 A  
HETATM   11  C   UNL     1     -11.870  11.868  69.654  1.00  0.00    -0.337 A  
HETATM   12  C   UNL     1     -11.475   9.386  70.869  1.00  0.00    -0.382 A  
HETATM   13  C   UNL     1     -12.584  11.513  70.810  1.00  0.00    -0.390 A  
HETATM   14 CL   UNL     1     -12.116  13.476  69.072  1.00  0.00    -0.366 Cl 
ENDBRANCH   7   8
BRANCH   7  15
HETATM   15  C   UNL     1     -10.774  10.843  66.459  1.00  0.00    -0.209 C  
BRANCH  15  16
HETATM   16  N   UNL     1     -11.205  11.942  65.625  1.00  0.00    -0.322 NA 
HETATM   17  N   UNL     1     -12.488  12.351  65.589  1.00  0.00    -0.562 NA 
HETATM   18  N   UNL     1     -11.058  13.743  64.523  1.00  0.00    -0.385 NA 
HETATM   19  C   UNL     1     -12.345  13.475  64.880  1.00  0.00    -0.407 A  
HETATM   20  N   UNL     1     -10.322  12.757  65.017  1.00  0.00    -0.300 NA 
ENDBRANCH  15  16
ENDBRANCH   7  15
ENDBRANCH   6   7
ENDBRANCH   2   6
TORSDOF 5
ENDMDL
MODEL      136
REMARK 921   NORMALIZED FREE ENERGY PREDICTED BY IDOCK:   -4.02 KCAL/MOL
REMARK 922        TOTAL FREE ENERGY PREDICTED BY IDOCK:   -6.00 KCAL/MOL
REMARK 923 INTER-LIGAND FREE ENERGY PREDICTED BY IDOCK:   -5.55 KCAL/MOL
REMARK 924 INTRA-LIGAND FREE ENERGY PREDICTED BY IDOCK:   -0.45 KCAL/MOL
REMARK 927      BINDING AFFINITY PREDICTED BY RF-SCORE:    0.00 PKD
ROOT
HETATM    1  N   UNL     1     -11.834  16.563  72.176  1.00  0.00    -0.631 N  
HETATM    2  C   UNL     1     -12.071  16.031  70.959  1.00  0.00    -0.331 C  
HETATM    3  H1  UNL     1     -10.920  16.873  72.504  1.00  0.00     0.000 HD 
HETATM    4  H2  UNL     1     -12.625  16.660  72.813  1.00  0.00     0.000 HD 
HETATM    5  O   UNL     1     -13.163  15.659  70.567  1.00  0.00    -0.434 OA 
ENDROOT
BRANCH   2   6
HETATM    6  O   UNL     1     -10.924  16.001  70.257  1.00  0.00    -0.328 OA 
BRANCH   6   7
HETATM    7  C   UNL     1     -10.843  16.760  69.020  1.00  0.00    -0.291 C  
BRANCH   7   8
HETATM    8  C   UNL     1     -10.537  15.768  67.886  1.00  0.00    -0.282 A  
HETATM    9  C   UNL     1     -10.067  13.985  65.725  1.00  0.00    -0.345 A  
HETATM   10  C   UNL     1     -11.535  15.468  66.931  1.00  0.00    -0.000 A  
HETATM   11  C   UNL     1      -9.278  15.165  67.699  1.00  0.00    -0.181 A  
HETATM   12  C   UNL     1     -11.304  14.597  65.864  1.00  0.00    -0.338 A  
HETATM   13  C   UNL     1      -9.057  14.268  66.642  1.00  0.00    -0.249 A  
HETATM   14 CL   UNL     1      -7.909  15.523  68.691  1.00  0.00    -0.135 Cl 
ENDBRANCH   7   8
BRANCH   7  15
HETATM   15  C   UNL     1      -9.862  17.935  69.166  1.00  0.00    -0.153 C  
BRANCH  15  16
HETATM   16  N   UNL     1      -9.842  18.813  68.019  1.00  0.00    -0.326 NA 
HETATM   17  N   UNL     1      -8.763  18.920  67.219  1.00  0.00    -0.275 NA 
HETATM   18  N   UNL     1     -10.605  19.948  66.403  1.00  0.00    -0.461 NA 
HETATM   19  C   UNL     1      -9.288  19.646  66.229  1.00  0.00    -0.383 A  
HETATM   20  N   UNL     1     -10.964  19.396  67.555  1.00  0.00    -0.411 NA 
ENDBRANCH  15  16
ENDBRANCH   7  15
ENDBRANCH   6   7
ENDBRANCH   2   6
TORSDOF 5
ENDMDL
MODEL      137
REMARK 921   NORMALIZED FREE ENERGY PREDICTED BY IDOCK:   -4.02 KCAL/MOL
REMARK 922        TOTAL FREE ENERGY PREDICTED BY IDOCK:   -6.00 KCAL/MOL
REMARK 923 INTER-LIGAND FREE ENERGY PREDICTED BY IDOCK:   -5.56 KCAL/MOL
REMARK 924 INTRA-LIGAND FREE ENERGY PREDICTED BY IDOCK:   -0.44 KCAL/MOL
REMARK 927      BINDING AFFINITY PREDICTED BY RF-SCORE:    0.00 PKD
ROOT
HETATM    1  N   UNL     1     -11.854  13.443  70.368  1.00  0.00    -0.527 N  
HETATM    2  C   UNL     1     -12.133  14.750  70.185  1.00  0.00    -0.327 C  
HETATM    3  H1  UNL     1     -10.963  13.003  70.141  1.00  0.00     0.000 HD 
HETATM    4  H2  UNL     1     -12.588  12.852  70.761  1.00  0.00     0.000 HD 
HETATM    5  O   UNL     1     -13.199  15.275  70.457  1.00  0.00    -0.342 OA 
ENDROOT
BRANCH   2   6
HETATM    6  O   UNL     1     -11.049  15.369  69.683  1.00  0.00    -0.238 OA 
BRANCH   6   7
HETATM    7  C   UNL     1     -10.528  14.931  68.399  1.00  0.00    -0.243 C  
BRANCH   7   8
HETATM    8  C   UNL     1      -9.081  15.436  68.288  1.00  0.00    -0.187 A  
HETATM    9  C   UNL     1      -6.375  16.263  68.029  1.00  0.00    -0.144 A  
HETATM   10  C   UNL     1      -8.027  14.510  68.120  1.00  0.00    -0.133 A  
HETATM   11  C   UNL     1      -8.732  16.801  68.289  1.00  0.00    -0.227 A  
HETATM   12  C   UNL     1      -6.697  14.914  67.985  1.00  0.00    -0.152 A  
HETATM   13  C   UNL     1      -7.391  17.203  68.182  1.00  0.00    -0.202 A  
HETATM   14 CL   UNL     1      -9.903  18.069  68.349  1.00  0.00    -0.346 Cl 
ENDBRANCH   7   8
BRANCH   7  15
HETATM   15  C   UNL     1     -11.473  15.346  67.259  1.00  0.00    -0.165 C  
BRANCH  15  16
HETATM   16  N   UNL     1     -11.746  14.280  66.322  1.00  0.00    -0.380 NA 
HETATM   17  N   UNL     1     -11.129  13.085  66.399  1.00  0.00    -0.281 NA 
HETATM   18  N   UNL     1     -12.844  13.131  64.924  1.00  0.00    -0.742 NA 
HETATM   19  C   UNL     1     -11.845  12.404  65.499  1.00  0.00    -0.412 A  
HETATM   20  N   UNL     1     -12.786  14.339  65.468  1.00  0.00    -0.509 NA 
ENDBRANCH  15  16
ENDBRANCH   7  15
ENDBRANCH   6   7
ENDBRANCH   2   6
TORSDOF 5
ENDMDL
MODEL      138
REMARK 921   NORMALIZED FREE ENERGY PREDICTED BY IDOCK:   -4.02 KCAL/MOL
REMARK 922        TOTAL FREE ENERGY PREDICTED BY IDOCK:   -6.00 KCAL/MOL
REMARK 923 INTER-LIGAND FREE ENERGY PREDICTED BY IDOCK:   -5.75 KCAL/MOL
REMARK 924 INTRA-LIGAND FREE ENERGY PREDICTED BY IDOCK:   -0.25 KCAL/MOL
REMARK 927      BINDING AFFINITY PREDICTED BY RF-SCORE:    0.00 PKD
ROOT
HETATM    1  N   UNL     1     -13.314  14.075  65.376  1.00  0.00    -0.593 N  
HETATM    2  C   UNL     1     -12.487  13.023  65.210  1.00  0.00    -0.499 C  
HETATM    3  H1  UNL     1     -13.787  14.306  66.249  1.00  0.00     0.000 HD 
HETATM    4  H2  UNL     1     -13.478  14.681  64.573  1.00  0.00     0.000 HD 
HETATM    5  O   UNL     1     -11.921  12.745  64.166  1.00  0.00    -0.369 OA 
ENDROOT
BRANCH   2   6
HETATM    6  O   UNL     1     -12.376  12.356  66.373  1.00  0.00    -0.539 OA 
BRANCH   6   7
HETATM    7  C   UNL     1     -11.119  12.426  67.100  1.00  0.00    -0.280 C  
BRANCH   7   8
HETATM    8  C   UNL     1     -11.294  11.635  68.406  1.00  0.00    -0.339 A  
HETATM    9  C   UNL     1     -11.713  10.249  70.850  1.00  0.00    -0.472 A  
HETATM   10  C   UNL     1     -11.985  12.221  69.491  1.00  0.00    -0.333 A  
HETATM   11  C   UNL     1     -10.847  10.310  68.579  1.00  0.00    -0.240 A  
HETATM   12  C   UNL     1     -12.198  11.539  70.691  1.00  0.00    -0.473 A  
HETATM   13  C   UNL     1     -11.038   9.637  69.797  1.00  0.00    -0.247 A  
HETATM   14 CL   UNL     1     -10.105   9.397  67.314  1.00  0.00    -0.265 Cl 
ENDBRANCH   7   8
BRANCH   7  15
HETATM   15  C   UNL     1     -10.662  13.886  67.255  1.00  0.00    -0.284 C  
BRANCH  15  16
HETATM   16  N   UNL     1      -9.227  14.034  67.333  1.00  0.00    -0.207 NA 
HETATM   17  N   UNL     1      -8.412  12.989  67.579  1.00  0.00    -0.178 NA 
HETATM   18  N   UNL     1      -7.318  14.870  66.961  1.00  0.00    -0.091 NA 
HETATM   19  C   UNL     1      -7.230  13.565  67.342  1.00  0.00    -0.098 A  
HETATM   20  N   UNL     1      -8.611  15.166  66.942  1.00  0.00    -0.242 NA 
ENDBRANCH  15  16
ENDBRANCH   7  15
ENDBRANCH   6   7
ENDBRANCH   2   6
TORSDOF 5
ENDMDL
MODEL      139
REMARK 921   NORMALIZED FREE ENERGY PREDICTED BY IDOCK:   -4.01 KCAL/MOL
REMARK 922        TOTAL FREE ENERGY PREDICTED BY IDOCK:   -5.99 KCAL/MOL
REMARK 923 INTER-LIGAND FREE ENERGY PREDICTED BY IDOCK:   -5.50 KCAL/MOL
REMARK 924 INTRA-LIGAND FREE ENERGY PREDICTED BY IDOCK:   -0.49 KCAL/MOL
REMARK 927      BINDING AFFINITY PREDICTED BY RF-SCORE:    0.00 PKD
ROOT
HETATM    1  N   UNL     1     -13.489  15.280  70.481  1.00  0.00    -0.708 N  
HETATM    2  C   UNL     1     -12.247  15.757  70.264  1.00  0.00    -0.339 C  
HETATM    3  H1  UNL     1     -14.131  14.980  69.747  1.00  0.00     0.000 HD 
HETATM    4  H2  UNL     1     -13.810  15.214  71.447  1.00  0.00     0.000 HD 
HETATM    5  O   UNL     1     -11.480  16.116  71.142  1.00  0.00    -0.413 OA 
ENDROOT
BRANCH   2   6
HETATM    6  O   UNL     1     -11.992  15.750  68.943  1.00  0.00    -0.382 OA 
BRANCH   6   7
HETATM    7  C   UNL     1     -10.810  15.053  68.464  1.00  0.00    -0.250 C  
BRANCH   7   8
HETATM    8  C   UNL     1      -9.928  16.080  67.737  1.00  0.00    -0.234 A  
HETATM    9  C   UNL     1      -8.373  18.070  66.437  1.00  0.00    -0.275 A  
HETATM   10  C   UNL     1     -10.443  17.365  67.449  1.00  0.00    -0.336 A  
HETATM   11  C   UNL     1      -8.588  15.839  67.377  1.00  0.00    -0.175 A  
HETATM   12  C   UNL     1      -9.679  18.347  66.816  1.00  0.00    -0.331 A  
HETATM   13  C   UNL     1      -7.831  16.818  66.716  1.00  0.00    -0.281 A  
HETATM   14 CL   UNL     1      -7.759  14.376  67.773  1.00  0.00    -0.152 Cl 
ENDBRANCH   7   8
BRANCH   7  15
HETATM   15  C   UNL     1     -11.205  13.811  67.649  1.00  0.00    -0.293 C  
BRANCH  15  16
HETATM   16  N   UNL     1     -11.064  12.573  68.382  1.00  0.00    -0.241 NA 
HETATM   17  N   UNL     1     -12.130  11.836  68.752  1.00  0.00    -0.388 NA 
HETATM   18  N   UNL     1     -10.148  10.792  69.066  1.00  0.00    -0.208 NA 
HETATM   19  C   UNL     1     -11.504  10.737  69.183  1.00  0.00    -0.298 A  
HETATM   20  N   UNL     1      -9.868  11.975  68.535  1.00  0.00    -0.200 NA 
ENDBRANCH  15  16
ENDBRANCH   7  15
ENDBRANCH   6   7
ENDBRANCH   2   6
TORSDOF 5
ENDMDL
MODEL      140
REMARK 921   NORMALIZED FREE ENERGY PREDICTED BY IDOCK:   -4.01 KCAL/MOL
REMARK 922        TOTAL FREE ENERGY PREDICTED BY IDOCK:   -5.98 KCAL/MOL
REMARK 923 INTER-LIGAND FREE ENERGY PREDICTED BY IDOCK:   -5.65 KCAL/MOL
REMARK 924 INTRA-LIGAND FREE ENERGY PREDICTED BY IDOCK:   -0.33 KCAL/MOL
REMARK 927      BINDING AFFINITY PREDICTED BY RF-SCORE:    0.00 PKD
ROOT
HETATM    1  N   UNL     1      -7.529  14.593  67.072  1.00  0.00    -0.267 N  
HETATM    2  C   UNL     1      -8.388  13.754  67.686  1.00  0.00    -0.182 C  
HETATM    3  H1  UNL     1      -7.806  15.353  66.451  1.00  0.00     0.000 HD 
HETATM    4  H2  UNL     1      -6.532  14.457  67.240  1.00  0.00     0.000 HD 
HETATM    5  O   UNL     1      -8.057  12.845  68.428  1.00  0.00    -0.149 OA 
ENDROOT
BRANCH   2   6
HETATM    6  O   UNL     1      -9.649  14.096  67.365  1.00  0.00    -0.220 OA 
BRANCH   6   7
HETATM    7  C   UNL     1     -10.675  13.066  67.371  1.00  0.00    -0.245 C  
BRANCH   7   8
HETATM    8  C   UNL     1     -10.650  12.379  65.997  1.00  0.00    -0.286 A  
HETATM    9  C   UNL     1     -10.606  10.998  63.515  1.00  0.00    -0.303 A  
HETATM   10  C   UNL     1     -10.219  11.037  65.893  1.00  0.00    -0.309 A  
HETATM   11  C   UNL     1     -11.092  12.997  64.810  1.00  0.00    -0.322 A  
HETATM   12  C   UNL     1     -10.203  10.354  64.675  1.00  0.00    -0.305 A  
HETATM   13  C   UNL     1     -11.048  12.317  63.583  1.00  0.00    -0.537 A  
HETATM   14 CL   UNL     1     -11.776  14.583  64.776  1.00  0.00    -0.402 Cl 
ENDBRANCH   7   8
BRANCH   7  15
HETATM   15  C   UNL     1     -12.029  13.651  67.805  1.00  0.00    -0.352 C  
BRANCH  15  16
HETATM   16  N   UNL     1     -12.001  14.253  69.118  1.00  0.00    -0.335 NA 
HETATM   17  N   UNL     1     -12.026  15.589  69.293  1.00  0.00    -0.340 NA 
HETATM   18  N   UNL     1     -12.292  14.416  71.208  1.00  0.00    -0.341 NA 
HETATM   19  C   UNL     1     -12.200  15.640  70.616  1.00  0.00    -0.405 A  
HETATM   20  N   UNL     1     -12.177  13.522  70.235  1.00  0.00    -0.350 NA 
ENDBRANCH  15  16
ENDBRANCH   7  15
ENDBRANCH   6   7
ENDBRANCH   2   6
TORSDOF 5
ENDMDL
MODEL      141
REMARK 921   NORMALIZED FREE ENERGY PREDICTED BY IDOCK:   -4.00 KCAL/MOL
REMARK 922        TOTAL FREE ENERGY PREDICTED BY IDOCK:   -5.97 KCAL/MOL
REMARK 923 INTER-LIGAND FREE ENERGY PREDICTED BY IDOCK:   -5.34 KCAL/MOL
REMARK 924 INTRA-LIGAND FREE ENERGY PREDICTED BY IDOCK:   -0.63 KCAL/MOL
REMARK 927      BINDING AFFINITY PREDICTED BY RF-SCORE:    0.00 PKD
ROOT
HETATM    1  N   UNL     1     -12.521  13.087  65.237  1.00  0.00    -0.490 N  
HETATM    2  C   UNL     1     -12.095  13.712  66.354  1.00  0.00    -0.433 C  
HETATM    3  H1  UNL     1     -12.316  13.396  64.287  1.00  0.00     0.000 HD 
HETATM    4  H2  UNL     1     -13.088  12.247  65.350  1.00  0.00     0.000 HD 
HETATM    5  O   UNL     1     -12.340  13.342  67.490  1.00  0.00    -0.246 OA 
ENDROOT
BRANCH   2   6
HETATM    6  O   UNL     1     -11.350  14.778  66.011  1.00  0.00    -0.342 OA 
BRANCH   6   7
HETATM    7  C   UNL     1     -10.278  15.196  66.899  1.00  0.00    -0.259 C  
BRANCH   7   8
HETATM    8  C   UNL     1     -10.338  16.727  67.012  1.00  0.00    -0.300 A  
HETATM    9  C   UNL     1     -10.489  19.562  67.102  1.00  0.00    -0.592 A  
HETATM   10  C   UNL     1     -10.314  17.516  65.840  1.00  0.00    -0.265 A  
HETATM   11  C   UNL     1     -10.475  17.412  68.235  1.00  0.00    -0.385 A  
HETATM   12  C   UNL     1     -10.395  18.910  65.881  1.00  0.00    -0.408 A  
HETATM   13  C   UNL     1     -10.527  18.814  68.276  1.00  0.00    -0.321 A  
HETATM   14 CL   UNL     1     -10.656  16.600  69.750  1.00  0.00    -0.277 Cl 
ENDBRANCH   7   8
BRANCH   7  15
HETATM   15  C   UNL     1      -8.933  14.609  66.438  1.00  0.00    -0.156 C  
BRANCH  15  16
HETATM   16  N   UNL     1      -7.890  14.712  67.434  1.00  0.00    -0.192 NA 
HETATM   17  N   UNL     1      -6.717  15.325  67.179  1.00  0.00    -0.266 NA 
HETATM   18  N   UNL     1      -7.020  14.810  69.361  1.00  0.00    -0.156 NA 
HETATM   19  C   UNL     1      -6.206  15.353  68.413  1.00  0.00    -0.109 A  
HETATM   20  N   UNL     1      -8.114  14.409  68.726  1.00  0.00    -0.141 NA 
ENDBRANCH  15  16
ENDBRANCH   7  15
ENDBRANCH   6   7
ENDBRANCH   2   6
TORSDOF 5
ENDMDL
MODEL      142
REMARK 921   NORMALIZED FREE ENERGY PREDICTED BY IDOCK:   -3.99 KCAL/MOL
REMARK 922        TOTAL FREE ENERGY PREDICTED BY IDOCK:   -5.97 KCAL/MOL
REMARK 923 INTER-LIGAND FREE ENERGY PREDICTED BY IDOCK:   -5.33 KCAL/MOL
REMARK 924 INTRA-LIGAND FREE ENERGY PREDICTED BY IDOCK:   -0.64 KCAL/MOL
REMARK 927      BINDING AFFINITY PREDICTED BY RF-SCORE:    0.00 PKD
ROOT
HETATM    1  N   UNL     1     -11.709  12.513  70.127  1.00  0.00    -0.537 N  
HETATM    2  C   UNL     1     -11.903  11.333  69.502  1.00  0.00    -0.357 C  
HETATM    3  H1  UNL     1     -11.405  12.612  71.095  1.00  0.00     0.000 HD 
HETATM    4  H2  UNL     1     -11.880  13.365  69.594  1.00  0.00     0.000 HD 
HETATM    5  O   UNL     1     -12.268  11.215  68.345  1.00  0.00    -0.610 OA 
ENDROOT
BRANCH   2   6
HETATM    6  O   UNL     1     -11.611  10.329  70.348  1.00  0.00    -0.280 OA 
BRANCH   6   7
HETATM    7  C   UNL     1     -10.742   9.259  69.887  1.00  0.00    -0.234 C  
BRANCH   7   8
HETATM    8  C   UNL     1     -10.808   8.127  70.925  1.00  0.00    -0.254 A  
HETATM    9  C   UNL     1     -10.962   6.121  72.929  1.00  0.00    -0.294 A  
HETATM   10  C   UNL     1     -10.715   8.435  72.301  1.00  0.00    -0.417 A  
HETATM   11  C   UNL     1     -11.015   6.775  70.589  1.00  0.00    -0.267 A  
HETATM   12  C   UNL     1     -10.797   7.450  73.289  1.00  0.00    -0.417 A  
HETATM   13  C   UNL     1     -11.069   5.785  71.582  1.00  0.00    -0.290 A  
HETATM   14 CL   UNL     1     -11.284   6.241  68.968  1.00  0.00    -0.452 Cl 
ENDBRANCH   7   8
BRANCH   7  15
HETATM   15  C   UNL     1      -9.337   9.798  69.571  1.00  0.00    -0.213 C  
BRANCH  15  16
HETATM   16  N   UNL     1      -9.045   9.847  68.156  1.00  0.00    -0.121 NA 
HETATM   17  N   UNL     1      -9.395   8.851  67.319  1.00  0.00    -0.137 NA 
HETATM   18  N   UNL     1      -8.651  10.707  66.263  1.00  0.00    -0.147 NA 
HETATM   19  C   UNL     1      -9.121   9.434  66.149  1.00  0.00    -0.171 A  
HETATM   20  N   UNL     1      -8.616  10.976  67.561  1.00  0.00    -0.127 NA 
ENDBRANCH  15  16
ENDBRANCH   7  15
ENDBRANCH   6   7
ENDBRANCH   2   6
TORSDOF 5
ENDMDL
MODEL      143
REMARK 921   NORMALIZED FREE ENERGY PREDICTED BY IDOCK:   -3.98 KCAL/MOL
REMARK 922        TOTAL FREE ENERGY PREDICTED BY IDOCK:   -5.94 KCAL/MOL
REMARK 923 INTER-LIGAND FREE ENERGY PREDICTED BY IDOCK:   -5.33 KCAL/MOL
REMARK 924 INTRA-LIGAND FREE ENERGY PREDICTED BY IDOCK:   -0.61 KCAL/MOL
REMARK 927      BINDING AFFINITY PREDICTED BY RF-SCORE:    0.00 PKD
ROOT
HETATM    1  N   UNL     1     -11.881  16.271  71.639  1.00  0.00    -0.646 N  
HETATM    2  C   UNL     1     -11.918  15.351  70.654  1.00  0.00    -0.356 C  
HETATM    3  H1  UNL     1     -11.028  16.698  72.000  1.00  0.00     0.000 HD 
HETATM    4  H2  UNL     1     -12.767  16.559  72.053  1.00  0.00     0.000 HD 
HETATM    5  O   UNL     1     -12.938  14.840  70.223  1.00  0.00    -0.273 OA 
ENDROOT
BRANCH   2   6
HETATM    6  O   UNL     1     -10.667  15.113  70.220  1.00  0.00    -0.261 OA 
BRANCH   6   7
HETATM    7  C   UNL     1     -10.272  15.623  68.918  1.00  0.00    -0.214 C  
BRANCH   7   8
HETATM    8  C   UNL     1      -9.767  14.433  68.087  1.00  0.00    -0.223 A  
HETATM    9  C   UNL     1      -8.749  12.210  66.641  1.00  0.00    -0.153 A  
HETATM   10  C   UNL     1      -8.469  13.922  68.313  1.00  0.00    -0.169 A  
HETATM   11  C   UNL     1     -10.553  13.765  67.128  1.00  0.00    -0.277 A  
HETATM   12  C   UNL     1      -7.969  12.825  67.608  1.00  0.00    -0.165 A  
HETATM   13  C   UNL     1     -10.038  12.680  66.401  1.00  0.00    -0.263 A  
HETATM   14 CL   UNL     1     -12.205  14.169  66.821  1.00  0.00    -0.475 Cl 
ENDBRANCH   7   8
BRANCH   7  15
HETATM   15  C   UNL     1      -9.292  16.798  69.070  1.00  0.00    -0.212 C  
BRANCH  15  16
HETATM   16  N   UNL     1      -9.427  17.797  68.034  1.00  0.00    -0.273 NA 
HETATM   17  N   UNL     1      -8.378  18.204  67.292  1.00  0.00    -0.238 NA 
HETATM   18  N   UNL     1     -10.374  18.952  66.533  1.00  0.00    -0.405 NA 
HETATM   19  C   UNL     1      -9.021  18.931  66.374  1.00  0.00    -0.310 A  
HETATM   20  N   UNL     1     -10.634  18.206  67.599  1.00  0.00    -0.420 NA 
ENDBRANCH  15  16
ENDBRANCH   7  15
ENDBRANCH   6   7
ENDBRANCH   2   6
TORSDOF 5
ENDMDL
MODEL      144
REMARK 921   NORMALIZED FREE ENERGY PREDICTED BY IDOCK:   -3.96 KCAL/MOL
REMARK 922        TOTAL FREE ENERGY PREDICTED BY IDOCK:   -5.92 KCAL/MOL
REMARK 923 INTER-LIGAND FREE ENERGY PREDICTED BY IDOCK:   -5.52 KCAL/MOL
REMARK 924 INTRA-LIGAND FREE ENERGY PREDICTED BY IDOCK:   -0.40 KCAL/MOL
REMARK 927      BINDING AFFINITY PREDICTED BY RF-SCORE:    0.00 PKD
ROOT
HETATM    1  N   UNL     1      -6.648  11.178  65.481  1.00  0.00    -0.353 N  
HETATM    2  C   UNL     1      -7.176   9.968  65.206  1.00  0.00    -0.137 C  
HETATM    3  H1  UNL     1      -7.036  12.065  65.160  1.00  0.00     0.000 HD 
HETATM    4  H2  UNL     1      -5.802  11.208  66.049  1.00  0.00     0.000 HD 
HETATM    5  O   UNL     1      -6.713   8.907  65.588  1.00  0.00    -0.070 OA 
ENDROOT
BRANCH   2   6
HETATM    6  O   UNL     1      -8.292  10.126  64.470  1.00  0.00    -0.155 OA 
BRANCH   6   7
HETATM    7  C   UNL     1      -9.354  10.973  64.988  1.00  0.00    -0.221 C  
BRANCH   7   8
HETATM    8  C   UNL     1      -9.772  10.409  66.355  1.00  0.00    -0.250 A  
HETATM    9  C   UNL     1     -10.521   9.253  68.839  1.00  0.00    -0.235 A  
HETATM   10  C   UNL     1     -10.153   9.053  66.465  1.00  0.00    -0.354 A  
HETATM   11  C   UNL     1      -9.748  11.161  67.546  1.00  0.00    -0.176 A  
HETATM   12  C   UNL     1     -10.515   8.480  67.687  1.00  0.00    -0.308 A  
HETATM   13  C   UNL     1     -10.139  10.590  68.768  1.00  0.00    -0.202 A  
HETATM   14 CL   UNL     1      -9.180  12.791  67.616  1.00  0.00    -0.184 Cl 
ENDBRANCH   7   8
BRANCH   7  15
HETATM   15  C   UNL     1     -10.480  11.125  63.952  1.00  0.00    -0.381 C  
BRANCH  15  16
HETATM   16  N   UNL     1     -11.205  12.370  64.069  1.00  0.00    -0.362 NA 
HETATM   17  N   UNL     1     -10.635  13.484  64.569  1.00  0.00    -0.424 NA 
HETATM   18  N   UNL     1     -12.661  13.841  63.627  1.00  0.00    -0.782 NA 
HETATM   19  C   UNL     1     -11.588  14.374  64.277  1.00  0.00    -0.262 A  
HETATM   20  N   UNL     1     -12.403  12.549  63.482  1.00  0.00    -0.659 NA 
ENDBRANCH  15  16
ENDBRANCH   7  15
ENDBRANCH   6   7
ENDBRANCH   2   6
TORSDOF 5
ENDMDL
MODEL      145
REMARK 921   NORMALIZED FREE ENERGY PREDICTED BY IDOCK:   -3.94 KCAL/MOL
REMARK 922        TOTAL FREE ENERGY PREDICTED BY IDOCK:   -5.90 KCAL/MOL
REMARK 923 INTER-LIGAND FREE ENERGY PREDICTED BY IDOCK:   -5.46 KCAL/MOL
REMARK 924 INTRA-LIGAND FREE ENERGY PREDICTED BY IDOCK:   -0.44 KCAL/MOL
REMARK 927      BINDING AFFINITY PREDICTED BY RF-SCORE:    0.00 PKD
ROOT
HETATM    1  N   UNL     1      -8.835  16.794  69.189  1.00  0.00    -0.173 N  
HETATM    2  C   UNL     1     -10.182  16.749  69.147  1.00  0.00    -0.306 C  
HETATM    3  H1  UNL     1      -8.245  16.085  69.623  1.00  0.00     0.000 HD 
HETATM    4  H2  UNL     1      -8.374  17.595  68.758  1.00  0.00     0.000 HD 
HETATM    5  O   UNL     1     -10.888  17.597  68.629  1.00  0.00    -0.213 OA 
ENDROOT
BRANCH   2   6
HETATM    6  O   UNL     1     -10.607  15.619  69.742  1.00  0.00    -0.258 OA 
BRANCH   6   7
HETATM    7  C   UNL     1     -11.635  14.829  69.085  1.00  0.00    -0.303 C  
BRANCH   7   8
HETATM    8  C   UNL     1     -12.151  13.800  70.103  1.00  0.00    -0.429 A  
HETATM    9  C   UNL     1     -13.024  11.815  71.938  1.00  0.00    -0.435 A  
HETATM   10  C   UNL     1     -11.945  12.421  69.871  1.00  0.00    -0.369 A  
HETATM   11  C   UNL     1     -12.785  14.152  71.311  1.00  0.00    -0.361 A  
HETATM   12  C   UNL     1     -12.367  11.444  70.774  1.00  0.00    -0.483 A  
HETATM   13  C   UNL     1     -13.233  13.166  72.204  1.00  0.00    -0.561 A  
HETATM   14 CL   UNL     1     -12.996  15.790  71.818  1.00  0.00    -0.518 Cl 
ENDBRANCH   7   8
BRANCH   7  15
HETATM   15  C   UNL     1     -11.112  14.255  67.758  1.00  0.00    -0.280 C  
BRANCH  15  16
HETATM   16  N   UNL     1      -9.669  14.248  67.663  1.00  0.00    -0.217 NA 
HETATM   17  N   UNL     1      -8.921  13.276  68.222  1.00  0.00    -0.189 NA 
HETATM   18  N   UNL     1      -7.755  14.654  66.858  1.00  0.00     0.062 NA 
HETATM   19  C   UNL     1      -7.731  13.579  67.696  1.00  0.00    -0.176 A  
HETATM   20  N   UNL     1      -9.012  15.075  66.828  1.00  0.00    -0.249 NA 
ENDBRANCH  15  16
ENDBRANCH   7  15
ENDBRANCH   6   7
ENDBRANCH   2   6
TORSDOF 5
ENDMDL
MODEL      146
REMARK 921   NORMALIZED FREE ENERGY PREDICTED BY IDOCK:   -3.92 KCAL/MOL
REMARK 922        TOTAL FREE ENERGY PREDICTED BY IDOCK:   -5.88 KCAL/MOL
REMARK 923 INTER-LIGAND FREE ENERGY PREDICTED BY IDOCK:   -5.55 KCAL/MOL
REMARK 924 INTRA-LIGAND FREE ENERGY PREDICTED BY IDOCK:   -0.32 KCAL/MOL
REMARK 927      BINDING AFFINITY PREDICTED BY RF-SCORE:    0.00 PKD
ROOT
HETATM    1  N   UNL     1     -10.904  19.032  67.144  1.00  0.00    -0.448 N  
HETATM    2  C   UNL     1     -10.344  18.489  66.044  1.00  0.00    -0.393 C  
HETATM    3  H1  UNL     1     -10.387  19.318  67.975  1.00  0.00     0.000 HD 
HETATM    4  H2  UNL     1     -11.915  19.165  67.146  1.00  0.00     0.000 HD 
HETATM    5  O   UNL     1     -10.962  18.146  65.051  1.00  0.00    -0.726 OA 
ENDROOT
BRANCH   2   6
HETATM    6  O   UNL     1      -9.012  18.411  66.215  1.00  0.00    -0.403 OA 
BRANCH   6   7
HETATM    7  C   UNL     1      -8.496  18.094  67.536  1.00  0.00    -0.248 C  
BRANCH   7   8
HETATM    8  C   UNL     1      -7.353  19.077  67.836  1.00  0.00    -0.271 A  
HETATM    9  C   UNL     1      -5.243  20.855  68.511  1.00  0.00    -0.344 A  
HETATM   10  C   UNL     1      -7.118  19.490  69.167  1.00  0.00    -0.392 A  
HETATM   11  C   UNL     1      -6.467  19.563  66.855  1.00  0.00    -0.192 A  
HETATM   12  C   UNL     1      -6.077  20.359  69.502  1.00  0.00    -0.355 A  
HETATM   13  C   UNL     1      -5.439  20.458  67.190  1.00  0.00    -0.192 A  
HETATM   14 CL   UNL     1      -6.525  19.056  65.204  1.00  0.00    -0.306 Cl 
ENDBRANCH   7   8
BRANCH   7  15
HETATM   15  C   UNL     1      -8.140  16.601  67.636  1.00  0.00    -0.171 C  
BRANCH  15  16
HETATM   16  N   UNL     1      -9.249  15.773  68.052  1.00  0.00    -0.188 NA 
HETATM   17  N   UNL     1      -9.259  14.440  67.855  1.00  0.00    -0.189 NA 
HETATM   18  N   UNL     1     -10.935  15.176  69.184  1.00  0.00    -0.246 NA 
HETATM   19  C   UNL     1     -10.337  14.115  68.574  1.00  0.00    -0.249 A  
HETATM   20  N   UNL     1     -10.221  16.244  68.856  1.00  0.00    -0.241 NA 
ENDBRANCH  15  16
ENDBRANCH   7  15
ENDBRANCH   6   7
ENDBRANCH   2   6
TORSDOF 5
ENDMDL
MODEL      147
REMARK 921   NORMALIZED FREE ENERGY PREDICTED BY IDOCK:   -3.92 KCAL/MOL
REMARK 922        TOTAL FREE ENERGY PREDICTED BY IDOCK:   -5.87 KCAL/MOL
REMARK 923 INTER-LIGAND FREE ENERGY PREDICTED BY IDOCK:   -5.22 KCAL/MOL
REMARK 924 INTRA-LIGAND FREE ENERGY PREDICTED BY IDOCK:   -0.64 KCAL/MOL
REMARK 927      BINDING AFFINITY PREDICTED BY RF-SCORE:    0.00 PKD
ROOT
HETATM    1  N   UNL     1     -13.273  10.856  72.125  1.00  0.00    -0.586 N  
HETATM    2  C   UNL     1     -13.605   9.551  72.051  1.00  0.00    -0.415 C  
HETATM    3  H1  UNL     1     -12.632  11.328  71.488  1.00  0.00     0.000 HD 
HETATM    4  H2  UNL     1     -13.692  11.410  72.872  1.00  0.00     0.000 HD 
HETATM    5  O   UNL     1     -14.371   8.987  72.814  1.00  0.00    -0.596 OA 
ENDROOT
BRANCH   2   6
HETATM    6  O   UNL     1     -12.978   8.992  71.000  1.00  0.00    -0.197 OA 
BRANCH   6   7
HETATM    7  C   UNL     1     -11.747   8.256  71.234  1.00  0.00    -0.283 C  
BRANCH   7   8
HETATM    8  C   UNL     1     -10.611   9.014  70.529  1.00  0.00    -0.274 A  
HETATM    9  C   UNL     1      -8.597  10.497  69.182  1.00  0.00    -0.157 A  
HETATM   10  C   UNL     1     -10.907   9.855  69.432  1.00  0.00    -0.265 A  
HETATM   11  C   UNL     1      -9.267   8.969  70.950  1.00  0.00    -0.259 A  
HETATM   12  C   UNL     1      -9.919  10.589  68.772  1.00  0.00    -0.200 A  
HETATM   13  C   UNL     1      -8.273   9.687  70.268  1.00  0.00    -0.217 A  
HETATM   14 CL   UNL     1      -8.752   8.102  72.353  1.00  0.00    -0.228 Cl 
ENDBRANCH   7   8
BRANCH   7  15
HETATM   15  C   UNL     1     -11.914   6.779  70.837  1.00  0.00    -0.383 C  
BRANCH  15  16
HETATM   16  N   UNL     1     -11.146   5.873  71.660  1.00  0.00    -0.270 NA 
HETATM   17  N   UNL     1     -11.500   5.583  72.928  1.00  0.00    -0.298 NA 
HETATM   18  N   UNL     1      -9.841   4.272  72.123  1.00  0.00    -0.160 NA 
HETATM   19  C   UNL     1     -10.649   4.583  73.175  1.00  0.00    -0.216 A  
HETATM   20  N   UNL     1     -10.174   5.098  71.141  1.00  0.00    -0.220 NA 
ENDBRANCH  15  16
ENDBRANCH   7  15
ENDBRANCH   6   7
ENDBRANCH   2   6
TORSDOF 5
ENDMDL
MODEL      148
REMARK 921   NORMALIZED FREE ENERGY PREDICTED BY IDOCK:   -3.91 KCAL/MOL
REMARK 922        TOTAL FREE ENERGY PREDICTED BY IDOCK:   -5.86 KCAL/MOL
REMARK 923 INTER-LIGAND FREE ENERGY PREDICTED BY IDOCK:   -4.76 KCAL/MOL
REMARK 924 INTRA-LIGAND FREE ENERGY PREDICTED BY IDOCK:   -1.10 KCAL/MOL
REMARK 927      BINDING AFFINITY PREDICTED BY RF-SCORE:    0.00 PKD
ROOT
HETATM    1  N   UNL     1     -11.348  10.971  70.367  1.00  0.00    -0.467 N  
HETATM    2  C   UNL     1     -11.840  10.105  71.276  1.00  0.00    -0.360 C  
HETATM    3  H1  UNL     1     -10.369  11.019  70.084  1.00  0.00     0.000 HD 
HETATM    4  H2  UNL     1     -12.000  11.625  69.934  1.00  0.00     0.000 HD 
HETATM    5  O   UNL     1     -13.010  10.048  71.615  1.00  0.00    -0.379 OA 
ENDROOT
BRANCH   2   6
HETATM    6  O   UNL     1     -10.846   9.314  71.721  1.00  0.00    -0.368 OA 
BRANCH   6   7
HETATM    7  C   UNL     1     -10.646   8.022  71.086  1.00  0.00    -0.203 C  
BRANCH   7   8
HETATM    8  C   UNL     1     -10.628   6.958  72.194  1.00  0.00    -0.241 A  
HETATM    9  C   UNL     1     -10.647   4.910  74.163  1.00  0.00    -0.345 A  
HETATM   10  C   UNL     1     -11.496   5.846  72.110  1.00  0.00    -0.333 A  
HETATM   11  C   UNL     1      -9.742   6.990  73.289  1.00  0.00    -0.198 A  
HETATM   12  C   UNL     1     -11.503   4.835  73.073  1.00  0.00    -0.297 A  
HETATM   13  C   UNL     1      -9.771   5.987  74.270  1.00  0.00    -0.221 A  
HETATM   14 CL   UNL     1      -8.525   8.202  73.476  1.00  0.00    -0.302 Cl 
ENDBRANCH   7   8
BRANCH   7  15
HETATM   15  C   UNL     1      -9.414   8.055  70.167  1.00  0.00    -0.160 C  
BRANCH  15  16
HETATM   16  N   UNL     1      -9.621   8.814  68.954  1.00  0.00    -0.156 NA 
HETATM   17  N   UNL     1     -10.580   8.493  68.065  1.00  0.00    -0.180 NA 
HETATM   18  N   UNL     1      -9.595  10.489  67.661  1.00  0.00    -0.156 NA 
HETATM   19  C   UNL     1     -10.519   9.566  67.271  1.00  0.00    -0.262 A  
HETATM   20  N   UNL     1      -9.026  10.006  68.757  1.00  0.00    -0.138 NA 
ENDBRANCH  15  16
ENDBRANCH   7  15
ENDBRANCH   6   7
ENDBRANCH   2   6
TORSDOF 5
ENDMDL
MODEL      149
REMARK 921   NORMALIZED FREE ENERGY PREDICTED BY IDOCK:   -3.91 KCAL/MOL
REMARK 922        TOTAL FREE ENERGY PREDICTED BY IDOCK:   -5.85 KCAL/MOL
REMARK 923 INTER-LIGAND FREE ENERGY PREDICTED BY IDOCK:   -5.34 KCAL/MOL
REMARK 924 INTRA-LIGAND FREE ENERGY PREDICTED BY IDOCK:   -0.51 KCAL/MOL
REMARK 927      BINDING AFFINITY PREDICTED BY RF-SCORE:    0.00 PKD
ROOT
HETATM    1  N   UNL     1     -10.132  13.917  69.255  1.00  0.00    -0.423 N  
HETATM    2  C   UNL     1     -10.793  14.296  68.143  1.00  0.00    -0.244 C  
HETATM    3  H1  UNL     1      -9.453  13.157  69.295  1.00  0.00     0.000 HD 
HETATM    4  H2  UNL     1     -10.325  14.425  70.118  1.00  0.00     0.000 HD 
HETATM    5  O   UNL     1     -11.605  15.204  68.095  1.00  0.00    -0.333 OA 
ENDROOT
BRANCH   2   6
HETATM    6  O   UNL     1     -10.396  13.532  67.108  1.00  0.00    -0.248 OA 
BRANCH   6   7
HETATM    7  C   UNL     1     -10.520  12.088  67.219  1.00  0.00    -0.218 C  
BRANCH   7   8
HETATM    8  C   UNL     1     -10.195  11.487  65.843  1.00  0.00    -0.286 A  
HETATM    9  C   UNL     1      -9.542  10.278  63.357  1.00  0.00    -0.316 A  
HETATM   10  C   UNL     1      -9.184  10.506  65.729  1.00  0.00    -0.215 A  
HETATM   11  C   UNL     1     -10.893  11.819  64.665  1.00  0.00    -0.307 A  
HETATM   12  C   UNL     1      -8.866   9.906  64.509  1.00  0.00    -0.238 A  
HETATM   13  C   UNL     1     -10.552  11.234  63.435  1.00  0.00    -0.393 A  
HETATM   14 CL   UNL     1     -12.243  12.896  64.645  1.00  0.00    -0.464 Cl 
ENDBRANCH   7   8
BRANCH   7  15
HETATM   15  C   UNL     1     -11.886  11.705  67.813  1.00  0.00    -0.176 C  
BRANCH  15  16
HETATM   16  N   UNL     1     -11.787  10.939  69.035  1.00  0.00    -0.342 NA 
HETATM   17  N   UNL     1     -11.061   9.806  69.111  1.00  0.00    -0.171 NA 
HETATM   18  N   UNL     1     -11.791  10.558  71.116  1.00  0.00    -0.332 NA 
HETATM   19  C   UNL     1     -11.101   9.603  70.431  1.00  0.00    -0.290 A  
HETATM   20  N   UNL     1     -12.221  11.427  70.212  1.00  0.00    -0.348 NA 
ENDBRANCH  15  16
ENDBRANCH   7  15
ENDBRANCH   6   7
ENDBRANCH   2   6
TORSDOF 5
ENDMDL
MODEL      150
REMARK 921   NORMALIZED FREE ENERGY PREDICTED BY IDOCK:   -3.90 KCAL/MOL
REMARK 922        TOTAL FREE ENERGY PREDICTED BY IDOCK:   -5.84 KCAL/MOL
REMARK 923 INTER-LIGAND FREE ENERGY PREDICTED BY IDOCK:   -5.65 KCAL/MOL
REMARK 924 INTRA-LIGAND FREE ENERGY PREDICTED BY IDOCK:   -0.19 KCAL/MOL
REMARK 927      BINDING AFFINITY PREDICTED BY RF-SCORE:    0.00 PKD
ROOT
HETATM    1  N   UNL     1     -12.827  13.978  64.547  1.00  0.00    -0.613 N  
HETATM    2  C   UNL     1     -12.175  13.174  65.411  1.00  0.00    -0.461 C  
HETATM    3  H1  UNL     1     -13.179  14.908  64.773  1.00  0.00     0.000 HD 
HETATM    4  H2  UNL     1     -12.979  13.632  63.599  1.00  0.00     0.000 HD 
HETATM    5  O   UNL     1     -11.754  12.062  65.140  1.00  0.00    -0.330 OA 
ENDROOT
BRANCH   2   6
HETATM    6  O   UNL     1     -12.050  13.802  66.594  1.00  0.00    -0.411 OA 
BRANCH   6   7
HETATM    7  C   UNL     1     -10.869  13.543  67.401  1.00  0.00    -0.269 C  
BRANCH   7   8
HETATM    8  C   UNL     1     -11.298  12.661  68.583  1.00  0.00    -0.331 A  
HETATM    9  C   UNL     1     -12.007  10.945  70.733  1.00  0.00    -0.449 A  
HETATM   10  C   UNL     1     -11.012  11.277  68.563  1.00  0.00    -0.266 A  
HETATM   11  C   UNL     1     -11.926  13.162  69.741  1.00  0.00    -0.314 A  
HETATM   12  C   UNL     1     -11.354  10.432  69.622  1.00  0.00    -0.333 A  
HETATM   13  C   UNL     1     -12.293  12.306  70.791  1.00  0.00    -0.383 A  
HETATM   14 CL   UNL     1     -12.226  14.845  69.991  1.00  0.00    -0.373 Cl 
ENDBRANCH   7   8
BRANCH   7  15
HETATM   15  C   UNL     1     -10.162  14.859  67.767  1.00  0.00    -0.236 C  
BRANCH  15  16
HETATM   16  N   UNL     1      -8.918  14.665  68.477  1.00  0.00    -0.180 NA 
HETATM   17  N   UNL     1      -8.094  13.634  68.206  1.00  0.00    -0.149 NA 
HETATM   18  N   UNL     1      -7.192  15.183  69.587  1.00  0.00    -0.198 NA 
HETATM   19  C   UNL     1      -7.033  13.999  68.931  1.00  0.00    -0.110 A  
HETATM   20  N   UNL     1      -8.407  15.617  69.280  1.00  0.00    -0.246 NA 
ENDBRANCH  15  16
ENDBRANCH   7  15
ENDBRANCH   6   7
ENDBRANCH   2   6
TORSDOF 5
ENDMDL
MODEL      151
REMARK 921   NORMALIZED FREE ENERGY PREDICTED BY IDOCK:   -3.88 KCAL/MOL
REMARK 922        TOTAL FREE ENERGY PREDICTED BY IDOCK:   -5.82 KCAL/MOL
REMARK 923 INTER-LIGAND FREE ENERGY PREDICTED BY IDOCK:   -5.32 KCAL/MOL
REMARK 924 INTRA-LIGAND FREE ENERGY PREDICTED BY IDOCK:   -0.50 KCAL/MOL
REMARK 927      BINDING AFFINITY PREDICTED BY RF-SCORE:    0.00 PKD
ROOT
HETATM    1  N   UNL     1      -8.777  17.093  68.020  1.00  0.00    -0.216 N  
HETATM    2  C   UNL     1      -9.409  16.630  66.922  1.00  0.00    -0.231 C  
HETATM    3  H1  UNL     1      -8.379  16.503  68.751  1.00  0.00     0.000 HD 
HETATM    4  H2  UNL     1      -8.692  18.104  68.127  1.00  0.00     0.000 HD 
HETATM    5  O   UNL     1      -9.885  17.334  66.049  1.00  0.00    -0.435 OA 
ENDROOT
BRANCH   2   6
HETATM    6  O   UNL     1      -9.406  15.284  66.942  1.00  0.00    -0.215 OA 
BRANCH   6   7
HETATM    7  C   UNL     1     -10.475  14.595  67.646  1.00  0.00    -0.243 C  
BRANCH   7   8
HETATM    8  C   UNL     1     -10.150  13.093  67.627  1.00  0.00    -0.221 A  
HETATM    9  C   UNL     1      -9.437  10.345  67.541  1.00  0.00    -0.167 A  
HETATM   10  C   UNL     1      -9.148  12.605  66.757  1.00  0.00    -0.214 A  
HETATM   11  C   UNL     1     -10.761  12.154  68.481  1.00  0.00    -0.232 A  
HETATM   12  C   UNL     1      -8.792  11.255  66.718  1.00  0.00    -0.170 A  
HETATM   13  C   UNL     1     -10.420  10.793  68.419  1.00  0.00    -0.207 A  
HETATM   14 CL   UNL     1     -11.905  12.597  69.697  1.00  0.00    -0.385 Cl 
ENDBRANCH   7   8
BRANCH   7  15
HETATM   15  C   UNL     1     -11.846  14.992  67.074  1.00  0.00    -0.109 C  
BRANCH  15  16
HETATM   16  N   UNL     1     -12.205  14.258  65.881  1.00  0.00    -0.420 NA 
HETATM   17  N   UNL     1     -11.566  14.442  64.709  1.00  0.00    -0.388 NA 
HETATM   18  N   UNL     1     -12.971  12.669  64.712  1.00  0.00    -0.867 NA 
HETATM   19  C   UNL     1     -12.087  13.430  64.009  1.00  0.00    -0.449 A  
HETATM   20  N   UNL     1     -13.035  13.199  65.926  1.00  0.00    -0.150 NA 
ENDBRANCH  15  16
ENDBRANCH   7  15
ENDBRANCH   6   7
ENDBRANCH   2   6
TORSDOF 5
ENDMDL
MODEL      152
REMARK 921   NORMALIZED FREE ENERGY PREDICTED BY IDOCK:   -3.88 KCAL/MOL
REMARK 922        TOTAL FREE ENERGY PREDICTED BY IDOCK:   -5.81 KCAL/MOL
REMARK 923 INTER-LIGAND FREE ENERGY PREDICTED BY IDOCK:   -5.78 KCAL/MOL
REMARK 924 INTRA-LIGAND FREE ENERGY PREDICTED BY IDOCK:   -0.03 KCAL/MOL
REMARK 927      BINDING AFFINITY PREDICTED BY RF-SCORE:    0.00 PKD
ROOT
HETATM    1  N   UNL     1      -9.238   8.124  73.140  1.00  0.00    -0.273 N  
HETATM    2  C   UNL     1     -10.270   7.375  73.580  1.00  0.00    -0.349 C  
HETATM    3  H1  UNL     1      -9.280   8.756  72.340  1.00  0.00     0.000 HD 
HETATM    4  H2  UNL     1      -8.353   8.053  73.642  1.00  0.00     0.000 HD 
HETATM    5  O   UNL     1     -10.219   6.620  74.535  1.00  0.00    -0.356 OA 
ENDROOT
BRANCH   2   6
HETATM    6  O   UNL     1     -11.351   7.615  72.814  1.00  0.00    -0.356 OA 
BRANCH   6   7
HETATM    7  C   UNL     1     -11.167   7.786  71.383  1.00  0.00    -0.246 C  
BRANCH   7   8
HETATM    8  C   UNL     1     -11.605   9.215  71.026  1.00  0.00    -0.370 A  
HETATM    9  C   UNL     1     -12.363  11.842  70.254  1.00  0.00    -0.320 A  
HETATM   10  C   UNL     1     -10.975   9.893  69.958  1.00  0.00    -0.338 A  
HETATM   11  C   UNL     1     -12.656   9.892  71.676  1.00  0.00    -0.424 A  
HETATM   12  C   UNL     1     -11.351  11.182  69.572  1.00  0.00    -0.359 A  
HETATM   13  C   UNL     1     -13.012  11.198  71.304  1.00  0.00    -0.457 A  
HETATM   14 CL   UNL     1     -13.620   9.163  72.910  1.00  0.00    -0.272 Cl 
ENDBRANCH   7   8
BRANCH   7  15
HETATM   15  C   UNL     1     -11.867   6.657  70.607  1.00  0.00    -0.383 C  
BRANCH  15  16
HETATM   16  N   UNL     1     -11.019   6.027  69.620  1.00  0.00    -0.371 NA 
HETATM   17  N   UNL     1     -10.210   4.994  69.928  1.00  0.00    -0.276 NA 
HETATM   18  N   UNL     1     -10.372   5.394  67.707  1.00  0.00    -0.184 NA 
HETATM   19  C   UNL     1      -9.823   4.639  68.700  1.00  0.00    -0.120 A  
HETATM   20  N   UNL     1     -11.156   6.281  68.305  1.00  0.00    -0.325 NA 
ENDBRANCH  15  16
ENDBRANCH   7  15
ENDBRANCH   6   7
ENDBRANCH   2   6
TORSDOF 5
ENDMDL
MODEL      153
REMARK 921   NORMALIZED FREE ENERGY PREDICTED BY IDOCK:   -3.87 KCAL/MOL
REMARK 922        TOTAL FREE ENERGY PREDICTED BY IDOCK:   -5.81 KCAL/MOL
REMARK 923 INTER-LIGAND FREE ENERGY PREDICTED BY IDOCK:   -5.41 KCAL/MOL
REMARK 924 INTRA-LIGAND FREE ENERGY PREDICTED BY IDOCK:   -0.40 KCAL/MOL
REMARK 927      BINDING AFFINITY PREDICTED BY RF-SCORE:    0.00 PKD
ROOT
HETATM    1  N   UNL     1      -6.284  19.485  69.952  1.00  0.00    -0.295 N  
HETATM    2  C   UNL     1      -6.304  19.725  68.625  1.00  0.00    -0.272 C  
HETATM    3  H1  UNL     1      -6.642  18.638  70.392  1.00  0.00     0.000 HD 
HETATM    4  H2  UNL     1      -5.885  20.202  70.557  1.00  0.00     0.000 HD 
HETATM    5  O   UNL     1      -5.877  20.739  68.098  1.00  0.00    -0.264 OA 
ENDROOT
BRANCH   2   6
HETATM    6  O   UNL     1      -6.842  18.669  67.990  1.00  0.00    -0.219 OA 
BRANCH   6   7
HETATM    7  C   UNL     1      -7.266  18.826  66.608  1.00  0.00    -0.217 C  
BRANCH   7   8
HETATM    8  C   UNL     1      -8.432  17.855  66.366  1.00  0.00    -0.263 A  
HETATM    9  C   UNL     1     -10.523  15.971  65.981  1.00  0.00    -0.356 A  
HETATM   10  C   UNL     1      -8.210  16.462  66.451  1.00  0.00    -0.366 A  
HETATM   11  C   UNL     1      -9.753  18.273  66.113  1.00  0.00    -0.224 A  
HETATM   12  C   UNL     1      -9.238  15.534  66.268  1.00  0.00    -0.364 A  
HETATM   13  C   UNL     1     -10.778  17.338  65.902  1.00  0.00    -0.126 A  
HETATM   14 CL   UNL     1     -10.227  19.934  66.110  1.00  0.00    -0.590 Cl 
ENDBRANCH   7   8
BRANCH   7  15
HETATM   15  C   UNL     1      -6.068  18.688  65.654  1.00  0.00    -0.233 C  
BRANCH  15  16
HETATM   16  N   UNL     1      -6.174  19.516  64.474  1.00  0.00    -0.382 NA 
HETATM   17  N   UNL     1      -6.532  20.814  64.542  1.00  0.00    -0.309 NA 
HETATM   18  N   UNL     1      -5.786  20.180  62.502  1.00  0.00    -0.263 NA 
HETATM   19  C   UNL     1      -6.281  21.181  63.282  1.00  0.00    -0.285 A  
HETATM   20  N   UNL     1      -5.705  19.109  63.280  1.00  0.00    -0.379 NA 
ENDBRANCH  15  16
ENDBRANCH   7  15
ENDBRANCH   6   7
ENDBRANCH   2   6
TORSDOF 5
ENDMDL
MODEL      154
REMARK 921   NORMALIZED FREE ENERGY PREDICTED BY IDOCK:   -3.87 KCAL/MOL
REMARK 922        TOTAL FREE ENERGY PREDICTED BY IDOCK:   -5.81 KCAL/MOL
REMARK 923 INTER-LIGAND FREE ENERGY PREDICTED BY IDOCK:   -4.88 KCAL/MOL
REMARK 924 INTRA-LIGAND FREE ENERGY PREDICTED BY IDOCK:   -0.93 KCAL/MOL
REMARK 927      BINDING AFFINITY PREDICTED BY RF-SCORE:    0.00 PKD
ROOT
HETATM    1  N   UNL     1      -9.722  11.111  69.318  1.00  0.00    -0.424 N  
HETATM    2  C   UNL     1     -11.064  11.242  69.305  1.00  0.00    -0.255 C  
HETATM    3  H1  UNL     1      -9.152  10.910  68.497  1.00  0.00     0.000 HD 
HETATM    4  H2  UNL     1      -9.244  11.220  70.212  1.00  0.00     0.000 HD 
HETATM    5  O   UNL     1     -11.747  11.482  70.286  1.00  0.00    -0.327 OA 
ENDROOT
BRANCH   2   6
HETATM    6  O   UNL     1     -11.513  11.088  68.045  1.00  0.00    -0.353 OA 
BRANCH   6   7
HETATM    7  C   UNL     1     -10.567  11.204  66.948  1.00  0.00    -0.258 C  
BRANCH   7   8
HETATM    8  C   UNL     1     -10.955  12.445  66.129  1.00  0.00    -0.321 A  
HETATM    9  C   UNL     1     -11.793  14.704  64.625  1.00  0.00    -0.459 A  
HETATM   10  C   UNL     1     -12.199  12.480  65.460  1.00  0.00    -0.442 A  
HETATM   11  C   UNL     1     -10.156  13.602  66.045  1.00  0.00    -0.312 A  
HETATM   12  C   UNL     1     -12.616  13.592  64.724  1.00  0.00    -0.339 A  
HETATM   13  C   UNL     1     -10.565  14.708  65.282  1.00  0.00    -0.409 A  
HETATM   14 CL   UNL     1      -8.671  13.783  66.909  1.00  0.00    -0.210 Cl 
ENDBRANCH   7   8
BRANCH   7  15
HETATM   15  C   UNL     1     -10.480   9.884  66.165  1.00  0.00    -0.074 C  
BRANCH  15  16
HETATM   16  N   UNL     1      -9.445   8.997  66.647  1.00  0.00    -0.177 NA 
HETATM   17  N   UNL     1      -9.474   7.671  66.412  1.00  0.00    -0.184 NA 
HETATM   18  N   UNL     1      -7.521   8.397  67.295  1.00  0.00    -0.092 NA 
HETATM   19  C   UNL     1      -8.253   7.340  66.844  1.00  0.00    -0.117 A  
HETATM   20  N   UNL     1      -8.289   9.468  67.153  1.00  0.00    -0.130 NA 
ENDBRANCH  15  16
ENDBRANCH   7  15
ENDBRANCH   6   7
ENDBRANCH   2   6
TORSDOF 5
ENDMDL
MODEL      155
REMARK 921   NORMALIZED FREE ENERGY PREDICTED BY IDOCK:   -3.87 KCAL/MOL
REMARK 922        TOTAL FREE ENERGY PREDICTED BY IDOCK:   -5.81 KCAL/MOL
REMARK 923 INTER-LIGAND FREE ENERGY PREDICTED BY IDOCK:   -5.16 KCAL/MOL
REMARK 924 INTRA-LIGAND FREE ENERGY PREDICTED BY IDOCK:   -0.65 KCAL/MOL
REMARK 927      BINDING AFFINITY PREDICTED BY RF-SCORE:    0.00 PKD
ROOT
HETATM    1  N   UNL     1     -14.396   7.799  71.011  1.00  0.00    -0.656 N  
HETATM    2  C   UNL     1     -13.251   7.875  71.720  1.00  0.00    -0.329 C  
HETATM    3  H1  UNL     1     -14.670   7.001  70.439  1.00  0.00     0.000 HD 
HETATM    4  H2  UNL     1     -15.031   8.596  71.049  1.00  0.00     0.000 HD 
HETATM    5  O   UNL     1     -12.922   8.830  72.403  1.00  0.00    -0.392 OA 
ENDROOT
BRANCH   2   6
HETATM    6  O   UNL     1     -12.556   6.733  71.567  1.00  0.00    -0.361 OA 
BRANCH   6   7
HETATM    7  C   UNL     1     -11.120   6.813  71.360  1.00  0.00    -0.254 C  
BRANCH   7   8
HETATM    8  C   UNL     1     -10.883   7.161  69.882  1.00  0.00    -0.276 A  
HETATM    9  C   UNL     1     -10.518   7.708  67.118  1.00  0.00    -0.412 A  
HETATM   10  C   UNL     1     -11.098   6.179  68.889  1.00  0.00    -0.417 A  
HETATM   11  C   UNL     1     -10.508   8.443  69.435  1.00  0.00    -0.217 A  
HETATM   12  C   UNL     1     -10.926   6.447  67.529  1.00  0.00    -0.454 A  
HETATM   13  C   UNL     1     -10.308   8.702  68.070  1.00  0.00    -0.277 A  
HETATM   14 CL   UNL     1     -10.334   9.794  70.498  1.00  0.00    -0.354 Cl 
ENDBRANCH   7   8
BRANCH   7  15
HETATM   15  C   UNL     1     -10.427   5.538  71.868  1.00  0.00    -0.225 C  
BRANCH  15  16
HETATM   16  N   UNL     1      -9.042   5.742  72.231  1.00  0.00    -0.142 NA 
HETATM   17  N   UNL     1      -8.041   5.066  71.635  1.00  0.00    -0.112 NA 
HETATM   18  N   UNL     1      -7.335   6.757  72.961  1.00  0.00    -0.079 NA 
HETATM   19  C   UNL     1      -6.994   5.732  72.131  1.00  0.00    -0.082 A  
HETATM   20  N   UNL     1      -8.660   6.769  73.012  1.00  0.00    -0.120 NA 
ENDBRANCH  15  16
ENDBRANCH   7  15
ENDBRANCH   6   7
ENDBRANCH   2   6
TORSDOF 5
ENDMDL
MODEL      156
REMARK 921   NORMALIZED FREE ENERGY PREDICTED BY IDOCK:   -3.84 KCAL/MOL
REMARK 922        TOTAL FREE ENERGY PREDICTED BY IDOCK:   -5.76 KCAL/MOL
REMARK 923 INTER-LIGAND FREE ENERGY PREDICTED BY IDOCK:   -5.53 KCAL/MOL
REMARK 924 INTRA-LIGAND FREE ENERGY PREDICTED BY IDOCK:   -0.24 KCAL/MOL
REMARK 927      BINDING AFFINITY PREDICTED BY RF-SCORE:    0.00 PKD
ROOT
HETATM    1  N   UNL     1     -11.022  19.011  67.228  1.00  0.00    -0.396 N  
HETATM    2  C   UNL     1     -10.313  19.087  66.082  1.00  0.00    -0.468 C  
HETATM    3  H1  UNL     1     -10.802  18.388  68.004  1.00  0.00     0.000 HD 
HETATM    4  H2  UNL     1     -11.835  19.619  67.323  1.00  0.00     0.000 HD 
HETATM    5  O   UNL     1     -10.576  19.831  65.154  1.00  0.00    -0.260 OA 
ENDROOT
BRANCH   2   6
HETATM    6  O   UNL     1      -9.274  18.235  66.146  1.00  0.00    -0.475 OA 
BRANCH   6   7
HETATM    7  C   UNL     1      -9.497  16.900  66.676  1.00  0.00    -0.265 C  
BRANCH   7   8
HETATM    8  C   UNL     1      -8.221  16.477  67.420  1.00  0.00    -0.183 A  
HETATM    9  C   UNL     1      -5.838  15.613  68.702  1.00  0.00    -0.101 A  
HETATM   10  C   UNL     1      -7.624  15.229  67.131  1.00  0.00    -0.224 A  
HETATM   11  C   UNL     1      -7.558  17.296  68.356  1.00  0.00    -0.241 A  
HETATM   12  C   UNL     1      -6.449  14.805  67.756  1.00  0.00    -0.183 A  
HETATM   13  C   UNL     1      -6.392  16.855  69.002  1.00  0.00    -0.194 A  
HETATM   14 CL   UNL     1      -8.071  18.903  68.726  1.00  0.00    -0.376 Cl 
ENDBRANCH   7   8
BRANCH   7  15
HETATM   15  C   UNL     1      -9.974  15.948  65.567  1.00  0.00    -0.278 C  
BRANCH  15  16
HETATM   16  N   UNL     1     -11.101  15.131  65.957  1.00  0.00    -0.334 NA 
HETATM   17  N   UNL     1     -11.905  14.542  65.050  1.00  0.00    -0.386 NA 
HETATM   18  N   UNL     1     -12.268  13.850  67.172  1.00  0.00    -0.379 NA 
HETATM   19  C   UNL     1     -12.622  13.759  65.860  1.00  0.00    -0.447 A  
HETATM   20  N   UNL     1     -11.275  14.727  67.230  1.00  0.00    -0.336 NA 
ENDBRANCH  15  16
ENDBRANCH   7  15
ENDBRANCH   6   7
ENDBRANCH   2   6
TORSDOF 5
ENDMDL
MODEL      157
REMARK 921   NORMALIZED FREE ENERGY PREDICTED BY IDOCK:   -3.84 KCAL/MOL
REMARK 922        TOTAL FREE ENERGY PREDICTED BY IDOCK:   -5.76 KCAL/MOL
REMARK 923 INTER-LIGAND FREE ENERGY PREDICTED BY IDOCK:   -5.04 KCAL/MOL
REMARK 924 INTRA-LIGAND FREE ENERGY PREDICTED BY IDOCK:   -0.72 KCAL/MOL
REMARK 927      BINDING AFFINITY PREDICTED BY RF-SCORE:    0.00 PKD
ROOT
HETATM    1  N   UNL     1      -9.184   6.067  73.095  1.00  0.00    -0.133 N  
HETATM    2  C   UNL     1      -9.699   5.486  71.992  1.00  0.00    -0.160 C  
HETATM    3  H1  UNL     1      -9.597   6.866  73.574  1.00  0.00     0.000 HD 
HETATM    4  H2  UNL     1      -8.321   5.679  73.475  1.00  0.00     0.000 HD 
HETATM    5  O   UNL     1      -9.205   4.530  71.418  1.00  0.00    -0.126 OA 
ENDROOT
BRANCH   2   6
HETATM    6  O   UNL     1     -10.840   6.113  71.651  1.00  0.00    -0.239 OA 
BRANCH   6   7
HETATM    7  C   UNL     1     -10.811   7.067  70.555  1.00  0.00    -0.251 C  
BRANCH   7   8
HETATM    8  C   UNL     1     -11.656   8.280  70.973  1.00  0.00    -0.301 A  
HETATM    9  C   UNL     1     -13.261  10.456  71.844  1.00  0.00    -0.535 A  
HETATM   10  C   UNL     1     -12.765   8.097  71.830  1.00  0.00    -0.361 A  
HETATM   11  C   UNL     1     -11.359   9.604  70.593  1.00  0.00    -0.312 A  
HETATM   12  C   UNL     1     -13.552   9.166  72.265  1.00  0.00    -0.548 A  
HETATM   13  C   UNL     1     -12.168  10.673  71.009  1.00  0.00    -0.498 A  
HETATM   14 CL   UNL     1      -9.965  10.022  69.662  1.00  0.00    -0.246 Cl 
ENDBRANCH   7   8
BRANCH   7  15
HETATM   15  C   UNL     1     -11.215   6.390  69.235  1.00  0.00    -0.375 C  
BRANCH  15  16
HETATM   16  N   UNL     1     -10.328   6.699  68.136  1.00  0.00    -0.174 NA 
HETATM   17  N   UNL     1     -10.730   7.427  67.076  1.00  0.00    -0.356 NA 
HETATM   18  N   UNL     1      -8.500   7.054  67.131  1.00  0.00    -0.120 NA 
HETATM   19  C   UNL     1      -9.553   7.615  66.473  1.00  0.00    -0.186 A  
HETATM   20  N   UNL     1      -9.003   6.474  68.212  1.00  0.00    -0.122 NA 
ENDBRANCH  15  16
ENDBRANCH   7  15
ENDBRANCH   6   7
ENDBRANCH   2   6
TORSDOF 5
ENDMDL
MODEL      158
REMARK 921   NORMALIZED FREE ENERGY PREDICTED BY IDOCK:   -3.84 KCAL/MOL
REMARK 922        TOTAL FREE ENERGY PREDICTED BY IDOCK:   -5.76 KCAL/MOL
REMARK 923 INTER-LIGAND FREE ENERGY PREDICTED BY IDOCK:   -5.67 KCAL/MOL
REMARK 924 INTRA-LIGAND FREE ENERGY PREDICTED BY IDOCK:   -0.09 KCAL/MOL
REMARK 927      BINDING AFFINITY PREDICTED BY RF-SCORE:    0.00 PKD
ROOT
HETATM    1  N   UNL     1      -7.501  16.170  68.045  1.00  0.00    -0.129 N  
HETATM    2  C   UNL     1      -8.268  15.336  68.776  1.00  0.00    -0.169 C  
HETATM    3  H1  UNL     1      -7.777  16.575  67.150  1.00  0.00     0.000 HD 
HETATM    4  H2  UNL     1      -6.580  16.412  68.411  1.00  0.00     0.000 HD 
HETATM    5  O   UNL     1      -7.939  14.851  69.845  1.00  0.00    -0.044 OA 
ENDROOT
BRANCH   2   6
HETATM    6  O   UNL     1      -9.445  15.151  68.150  1.00  0.00    -0.196 OA 
BRANCH   6   7
HETATM    7  C   UNL     1     -10.596  15.925  68.585  1.00  0.00    -0.250 C  
BRANCH   7   8
HETATM    8  C   UNL     1     -10.518  17.297  67.898  1.00  0.00    -0.382 A  
HETATM    9  C   UNL     1     -10.312  19.877  66.728  1.00  0.00    -0.599 A  
HETATM   10  C   UNL     1     -10.279  18.455  68.673  1.00  0.00    -0.370 A  
HETATM   11  C   UNL     1     -10.617  17.476  66.504  1.00  0.00    -0.191 A  
HETATM   12  C   UNL     1     -10.171  19.723  68.099  1.00  0.00    -0.577 A  
HETATM   13  C   UNL     1     -10.536  18.756  65.934  1.00  0.00    -0.424 A  
HETATM   14 CL   UNL     1     -10.773  16.159  65.398  1.00  0.00    -0.397 Cl 
ENDBRANCH   7   8
BRANCH   7  15
HETATM   15  C   UNL     1     -10.686  15.947  70.120  1.00  0.00    -0.332 C  
BRANCH  15  16
HETATM   16  N   UNL     1     -11.759  15.132  70.644  1.00  0.00    -0.287 NA 
HETATM   17  N   UNL     1     -12.852  15.672  71.218  1.00  0.00    -0.478 NA 
HETATM   18  N   UNL     1     -13.026  13.448  70.844  1.00  0.00    -0.182 NA 
HETATM   19  C   UNL     1     -13.610  14.578  71.332  1.00  0.00    -0.381 A  
HETATM   20  N   UNL     1     -11.835  13.813  70.387  1.00  0.00    -0.287 NA 
ENDBRANCH  15  16
ENDBRANCH   7  15
ENDBRANCH   6   7
ENDBRANCH   2   6
TORSDOF 5
ENDMDL
MODEL      159
REMARK 921   NORMALIZED FREE ENERGY PREDICTED BY IDOCK:   -3.82 KCAL/MOL
REMARK 922        TOTAL FREE ENERGY PREDICTED BY IDOCK:   -5.74 KCAL/MOL
REMARK 923 INTER-LIGAND FREE ENERGY PREDICTED BY IDOCK:   -5.81 KCAL/MOL
REMARK 924 INTRA-LIGAND FREE ENERGY PREDICTED BY IDOCK:    0.07 KCAL/MOL
REMARK 927      BINDING AFFINITY PREDICTED BY RF-SCORE:    0.00 PKD
ROOT
HETATM    1  N   UNL     1      -9.234  17.962  66.812  1.00  0.00    -0.264 N  
HETATM    2  C   UNL     1      -8.426  17.066  66.209  1.00  0.00    -0.269 C  
HETATM    3  H1  UNL     1     -10.161  17.750  67.179  1.00  0.00     0.000 HD 
HETATM    4  H2  UNL     1      -8.893  18.919  66.908  1.00  0.00     0.000 HD 
HETATM    5  O   UNL     1      -7.317  17.320  65.770  1.00  0.00    -0.361 OA 
ENDROOT
BRANCH   2   6
HETATM    6  O   UNL     1      -9.030  15.864  66.193  1.00  0.00    -0.317 OA 
BRANCH   6   7
HETATM    7  C   UNL     1     -10.477  15.808  66.317  1.00  0.00    -0.309 C  
BRANCH   7   8
HETATM    8  C   UNL     1     -10.809  14.784  67.414  1.00  0.00    -0.300 A  
HETATM    9  C   UNL     1     -11.543  12.933  69.440  1.00  0.00    -0.363 A  
HETATM   10  C   UNL     1     -11.957  14.969  68.218  1.00  0.00    -0.214 A  
HETATM   11  C   UNL     1     -10.057  13.615  67.640  1.00  0.00    -0.242 A  
HETATM   12  C   UNL     1     -12.323  14.057  69.211  1.00  0.00    -0.210 A  
HETATM   13  C   UNL     1     -10.412  12.714  68.657  1.00  0.00    -0.224 A  
HETATM   14 CL   UNL     1      -8.706  13.164  66.663  1.00  0.00    -0.089 Cl 
ENDBRANCH   7   8
BRANCH   7  15
HETATM   15  C   UNL     1     -11.130  15.560  64.947  1.00  0.00    -0.416 C  
BRANCH  15  16
HETATM   16  N   UNL     1     -11.495  14.179  64.726  1.00  0.00    -0.365 NA 
HETATM   17  N   UNL     1     -12.750  13.730  64.927  1.00  0.00    -0.683 NA 
HETATM   18  N   UNL     1     -11.401  12.234  63.897  1.00  0.00    -0.390 NA 
HETATM   19  C   UNL     1     -12.637  12.507  64.401  1.00  0.00    -0.410 A  
HETATM   20  N   UNL     1     -10.669  13.321  64.097  1.00  0.00    -0.385 NA 
ENDBRANCH  15  16
ENDBRANCH   7  15
ENDBRANCH   6   7
ENDBRANCH   2   6
TORSDOF 5
ENDMDL
MODEL      160
REMARK 921   NORMALIZED FREE ENERGY PREDICTED BY IDOCK:   -3.81 KCAL/MOL
REMARK 922        TOTAL FREE ENERGY PREDICTED BY IDOCK:   -5.73 KCAL/MOL
REMARK 923 INTER-LIGAND FREE ENERGY PREDICTED BY IDOCK:   -4.60 KCAL/MOL
REMARK 924 INTRA-LIGAND FREE ENERGY PREDICTED BY IDOCK:   -1.13 KCAL/MOL
REMARK 927      BINDING AFFINITY PREDICTED BY RF-SCORE:    0.00 PKD
ROOT
HETATM    1  N   UNL     1     -12.158  12.831  66.285  1.00  0.00    -0.392 N  
HETATM    2  C   UNL     1     -11.770  13.799  67.141  1.00  0.00    -0.385 C  
HETATM    3  H1  UNL     1     -11.665  12.584  65.427  1.00  0.00     0.000 HD 
HETATM    4  H2  UNL     1     -13.005  12.309  66.512  1.00  0.00     0.000 HD 
HETATM    5  O   UNL     1     -12.359  14.094  68.166  1.00  0.00    -0.227 OA 
ENDROOT
BRANCH   2   6
HETATM    6  O   UNL     1     -10.632  14.358  66.691  1.00  0.00    -0.277 OA 
BRANCH   6   7
HETATM    7  C   UNL     1      -9.478  14.399  67.575  1.00  0.00    -0.207 C  
BRANCH   7   8
HETATM    8  C   UNL     1      -8.984  15.853  67.627  1.00  0.00    -0.193 A  
HETATM    9  C   UNL     1      -8.037  18.531  67.604  1.00  0.00    -0.262 A  
HETATM   10  C   UNL     1      -8.046  16.307  66.673  1.00  0.00    -0.323 A  
HETATM   11  C   UNL     1      -9.459  16.802  68.553  1.00  0.00    -0.245 A  
HETATM   12  C   UNL     1      -7.583  17.625  66.656  1.00  0.00    -0.273 A  
HETATM   13  C   UNL     1      -8.971  18.119  68.551  1.00  0.00    -0.309 A  
HETATM   14 CL   UNL     1     -10.704  16.455  69.699  1.00  0.00    -0.331 Cl 
ENDBRANCH   7   8
BRANCH   7  15
HETATM   15  C   UNL     1      -8.435  13.350  67.153  1.00  0.00    -0.170 C  
BRANCH  15  16
HETATM   16  N   UNL     1      -9.005  12.051  66.878  1.00  0.00    -0.194 NA 
HETATM   17  N   UNL     1      -9.537  11.284  67.850  1.00  0.00    -0.173 NA 
HETATM   18  N   UNL     1      -9.938  10.515  65.760  1.00  0.00    -0.244 NA 
HETATM   19  C   UNL     1     -10.100  10.331  67.100  1.00  0.00    -0.210 A  
HETATM   20  N   UNL     1      -9.241  11.634  65.620  1.00  0.00    -0.184 NA 
ENDBRANCH  15  16
ENDBRANCH   7  15
ENDBRANCH   6   7
ENDBRANCH   2   6
TORSDOF 5
ENDMDL
MODEL      161
REMARK 921   NORMALIZED FREE ENERGY PREDICTED BY IDOCK:   -3.80 KCAL/MOL
REMARK 922        TOTAL FREE ENERGY PREDICTED BY IDOCK:   -5.71 KCAL/MOL
REMARK 923 INTER-LIGAND FREE ENERGY PREDICTED BY IDOCK:   -5.74 KCAL/MOL
REMARK 924 INTRA-LIGAND FREE ENERGY PREDICTED BY IDOCK:    0.02 KCAL/MOL
REMARK 927      BINDING AFFINITY PREDICTED BY RF-SCORE:    0.00 PKD
ROOT
HETATM    1  N   UNL     1      -9.529  16.767  66.815  1.00  0.00    -0.236 N  
HETATM    2  C   UNL     1     -10.453  16.240  65.986  1.00  0.00    -0.331 C  
HETATM    3  H1  UNL     1      -9.569  16.718  67.833  1.00  0.00     0.000 HD 
HETATM    4  H2  UNL     1      -8.736  17.250  66.394  1.00  0.00     0.000 HD 
HETATM    5  O   UNL     1     -10.406  16.299  64.769  1.00  0.00    -0.527 OA 
ENDROOT
BRANCH   2   6
HETATM    6  O   UNL     1     -11.406  15.629  66.714  1.00  0.00    -0.163 OA 
BRANCH   6   7
HETATM    7  C   UNL     1     -11.215  14.237  67.085  1.00  0.00    -0.322 C  
BRANCH   7   8
HETATM    8  C   UNL     1     -11.162  13.413  65.789  1.00  0.00    -0.305 A  
HETATM    9  C   UNL     1     -11.141  11.976  63.339  1.00  0.00    -0.476 A  
HETATM   10  C   UNL     1     -12.180  13.568  64.820  1.00  0.00    -0.450 A  
HETATM   11  C   UNL     1     -10.110  12.532  65.469  1.00  0.00    -0.265 A  
HETATM   12  C   UNL     1     -12.168  12.867  63.613  1.00  0.00    -0.581 A  
HETATM   13  C   UNL     1     -10.116  11.808  64.267  1.00  0.00    -0.326 A  
HETATM   14 CL   UNL     1      -8.721  12.325  66.475  1.00  0.00    -0.139 Cl 
ENDBRANCH   7   8
BRANCH   7  15
HETATM   15  C   UNL     1     -12.270  13.800  68.115  1.00  0.00    -0.143 C  
BRANCH  15  16
HETATM   16  N   UNL     1     -11.993  12.513  68.712  1.00  0.00    -0.291 NA 
HETATM   17  N   UNL     1     -12.047  11.369  68.002  1.00  0.00    -0.615 NA 
HETATM   18  N   UNL     1     -11.155  11.119  70.066  1.00  0.00    -0.175 NA 
HETATM   19  C   UNL     1     -11.522  10.526  68.896  1.00  0.00    -0.226 A  
HETATM   20  N   UNL     1     -11.448  12.406  69.939  1.00  0.00    -0.166 NA 
ENDBRANCH  15  16
ENDBRANCH   7  15
ENDBRANCH   6   7
ENDBRANCH   2   6
TORSDOF 5
ENDMDL
MODEL      162
REMARK 921   NORMALIZED FREE ENERGY PREDICTED BY IDOCK:   -3.80 KCAL/MOL
REMARK 922        TOTAL FREE ENERGY PREDICTED BY IDOCK:   -5.71 KCAL/MOL
REMARK 923 INTER-LIGAND FREE ENERGY PREDICTED BY IDOCK:   -5.55 KCAL/MOL
REMARK 924 INTRA-LIGAND FREE ENERGY PREDICTED BY IDOCK:   -0.16 KCAL/MOL
REMARK 927      BINDING AFFINITY PREDICTED BY RF-SCORE:    0.00 PKD
ROOT
HETATM    1  N   UNL     1     -11.286  13.253  69.548  1.00  0.00    -0.450 N  
HETATM    2  C   UNL     1     -11.907  12.861  68.416  1.00  0.00    -0.318 C  
HETATM    3  H1  UNL     1     -11.006  12.625  70.302  1.00  0.00     0.000 HD 
HETATM    4  H2  UNL     1     -11.083  14.246  69.657  1.00  0.00     0.000 HD 
HETATM    5  O   UNL     1     -12.242  13.610  67.515  1.00  0.00    -0.342 OA 
ENDROOT
BRANCH   2   6
HETATM    6  O   UNL     1     -12.071  11.525  68.439  1.00  0.00    -0.556 OA 
BRANCH   6   7
HETATM    7  C   UNL     1     -11.111  10.692  67.734  1.00  0.00    -0.321 C  
BRANCH   7   8
HETATM    8  C   UNL     1     -10.568   9.660  68.735  1.00  0.00    -0.242 A  
HETATM    9  C   UNL     1      -9.611   7.824  70.679  1.00  0.00    -0.166 A  
HETATM   10  C   UNL     1     -10.364  10.034  70.083  1.00  0.00    -0.321 A  
HETATM   11  C   UNL     1     -10.306   8.317  68.402  1.00  0.00    -0.199 A  
HETATM   12  C   UNL     1      -9.899   9.131  71.042  1.00  0.00    -0.366 A  
HETATM   13  C   UNL     1      -9.813   7.419  69.362  1.00  0.00    -0.168 A  
HETATM   14 CL   UNL     1     -10.628   7.657  66.839  1.00  0.00    -0.411 Cl 
ENDBRANCH   7   8
BRANCH   7  15
HETATM   15  C   UNL     1     -10.057  11.559  67.026  1.00  0.00    -0.210 C  
BRANCH  15  16
HETATM   16  N   UNL     1     -10.078  11.428  65.586  1.00  0.00    -0.237 NA 
HETATM   17  N   UNL     1      -9.356  10.490  64.943  1.00  0.00    -0.211 NA 
HETATM   18  N   UNL     1     -10.835  11.569  63.615  1.00  0.00    -0.402 NA 
HETATM   19  C   UNL     1      -9.859  10.624  63.713  1.00  0.00    -0.335 A  
HETATM   20  N   UNL     1     -10.984  12.077  64.831  1.00  0.00    -0.298 NA 
ENDBRANCH  15  16
ENDBRANCH   7  15
ENDBRANCH   6   7
ENDBRANCH   2   6
TORSDOF 5
ENDMDL
MODEL      163
REMARK 921   NORMALIZED FREE ENERGY PREDICTED BY IDOCK:   -3.80 KCAL/MOL
REMARK 922        TOTAL FREE ENERGY PREDICTED BY IDOCK:   -5.71 KCAL/MOL
REMARK 923 INTER-LIGAND FREE ENERGY PREDICTED BY IDOCK:   -5.05 KCAL/MOL
REMARK 924 INTRA-LIGAND FREE ENERGY PREDICTED BY IDOCK:   -0.66 KCAL/MOL
REMARK 927      BINDING AFFINITY PREDICTED BY RF-SCORE:    0.00 PKD
ROOT
HETATM    1  N   UNL     1     -12.454  13.540  65.616  1.00  0.00    -0.475 N  
HETATM    2  C   UNL     1     -11.153  13.777  65.352  1.00  0.00    -0.302 C  
HETATM    3  H1  UNL     1     -12.793  12.845  66.280  1.00  0.00     0.000 HD 
HETATM    4  H2  UNL     1     -13.148  14.096  65.115  1.00  0.00     0.000 HD 
HETATM    5  O   UNL     1     -10.747  14.608  64.558  1.00  0.00    -0.334 OA 
ENDROOT
BRANCH   2   6
HETATM    6  O   UNL     1     -10.391  12.971  66.115  1.00  0.00    -0.267 OA 
BRANCH   6   7
HETATM    7  C   UNL     1     -10.407  13.156  67.556  1.00  0.00    -0.225 C  
BRANCH   7   8
HETATM    8  C   UNL     1      -9.620  14.439  67.868  1.00  0.00    -0.219 A  
HETATM    9  C   UNL     1      -8.085  16.779  68.354  1.00  0.00    -0.219 A  
HETATM   10  C   UNL     1      -8.268  14.544  67.471  1.00  0.00    -0.201 A  
HETATM   11  C   UNL     1     -10.188  15.567  68.492  1.00  0.00    -0.215 A  
HETATM   12  C   UNL     1      -7.513  15.695  67.704  1.00  0.00    -0.186 A  
HETATM   13  C   UNL     1      -9.419  16.713  68.749  1.00  0.00    -0.258 A  
HETATM   14 CL   UNL     1     -11.859  15.662  68.920  1.00  0.00    -0.390 Cl 
ENDBRANCH   7   8
BRANCH   7  15
HETATM   15  C   UNL     1      -9.926  11.883  68.272  1.00  0.00    -0.202 C  
BRANCH  15  16
HETATM   16  N   UNL     1     -10.854  11.399  69.269  1.00  0.00    -0.219 NA 
HETATM   17  N   UNL     1     -10.630  10.266  69.964  1.00  0.00    -0.280 NA 
HETATM   18  N   UNL     1     -12.368  11.485  70.746  1.00  0.00    -0.391 NA 
HETATM   19  C   UNL     1     -11.608  10.361  70.868  1.00  0.00    -0.337 A  
HETATM   20  N   UNL     1     -11.869  12.161  69.720  1.00  0.00    -0.332 NA 
ENDBRANCH  15  16
ENDBRANCH   7  15
ENDBRANCH   6   7
ENDBRANCH   2   6
TORSDOF 5
ENDMDL
MODEL      164
REMARK 921   NORMALIZED FREE ENERGY PREDICTED BY IDOCK:   -3.79 KCAL/MOL
REMARK 922        TOTAL FREE ENERGY PREDICTED BY IDOCK:   -5.71 KCAL/MOL
REMARK 923 INTER-LIGAND FREE ENERGY PREDICTED BY IDOCK:   -5.36 KCAL/MOL
REMARK 924 INTRA-LIGAND FREE ENERGY PREDICTED BY IDOCK:   -0.35 KCAL/MOL
REMARK 927      BINDING AFFINITY PREDICTED BY RF-SCORE:    0.00 PKD
ROOT
HETATM    1  N   UNL     1     -12.346  13.533  64.144  1.00  0.00    -0.634 N  
HETATM    2  C   UNL     1     -11.063  13.117  64.108  1.00  0.00    -0.394 C  
HETATM    3  H1  UNL     1     -12.692  14.291  64.731  1.00  0.00     0.000 HD 
HETATM    4  H2  UNL     1     -13.016  13.055  63.541  1.00  0.00     0.000 HD 
HETATM    5  O   UNL     1     -10.648  12.211  63.406  1.00  0.00    -0.436 OA 
ENDROOT
BRANCH   2   6
HETATM    6  O   UNL     1     -10.328  13.872  64.945  1.00  0.00    -0.397 OA 
BRANCH   6   7
HETATM    7  C   UNL     1     -10.873  14.196  66.253  1.00  0.00    -0.300 C  
BRANCH   7   8
HETATM    8  C   UNL     1     -10.206  15.497  66.725  1.00  0.00    -0.282 A  
HETATM    9  C   UNL     1      -8.929  17.919  67.480  1.00  0.00    -0.248 A  
HETATM   10  C   UNL     1      -9.137  16.045  65.980  1.00  0.00    -0.361 A  
HETATM   11  C   UNL     1     -10.636  16.229  67.849  1.00  0.00    -0.318 A  
HETATM   12  C   UNL     1      -8.512  17.239  66.346  1.00  0.00    -0.304 A  
HETATM   13  C   UNL     1      -9.987  17.414  68.230  1.00  0.00    -0.320 A  
HETATM   14 CL   UNL     1     -12.011  15.777  68.793  1.00  0.00    -0.331 Cl 
ENDBRANCH   7   8
BRANCH   7  15
HETATM   15  C   UNL     1     -10.750  12.995  67.205  1.00  0.00    -0.250 C  
BRANCH  15  16
HETATM   16  N   UNL     1      -9.390  12.541  67.385  1.00  0.00    -0.181 NA 
HETATM   17  N   UNL     1      -8.892  11.490  66.704  1.00  0.00    -0.183 NA 
HETATM   18  N   UNL     1      -7.329  12.656  67.851  1.00  0.00    -0.102 NA 
HETATM   19  C   UNL     1      -7.602  11.599  67.035  1.00  0.00    -0.154 A  
HETATM   20  N   UNL     1      -8.485  13.271  68.063  1.00  0.00    -0.161 NA 
ENDBRANCH  15  16
ENDBRANCH   7  15
ENDBRANCH   6   7
ENDBRANCH   2   6
TORSDOF 5
ENDMDL
MODEL      165
REMARK 921   NORMALIZED FREE ENERGY PREDICTED BY IDOCK:   -3.79 KCAL/MOL
REMARK 922        TOTAL FREE ENERGY PREDICTED BY IDOCK:   -5.70 KCAL/MOL
REMARK 923 INTER-LIGAND FREE ENERGY PREDICTED BY IDOCK:   -5.39 KCAL/MOL
REMARK 924 INTRA-LIGAND FREE ENERGY PREDICTED BY IDOCK:   -0.30 KCAL/MOL
REMARK 927      BINDING AFFINITY PREDICTED BY RF-SCORE:    0.00 PKD
ROOT
HETATM    1  N   UNL     1     -11.179   5.164  65.872  1.00  0.00    -0.790 N  
HETATM    2  C   UNL     1     -10.423   5.606  66.897  1.00  0.00    -0.288 C  
HETATM    3  H1  UNL     1     -12.112   5.510  65.648  1.00  0.00     0.000 HD 
HETATM    4  H2  UNL     1     -10.791   4.430  65.279  1.00  0.00     0.000 HD 
HETATM    5  O   UNL     1      -9.309   5.192  67.165  1.00  0.00    -0.118 OA 
ENDROOT
BRANCH   2   6
HETATM    6  O   UNL     1     -11.085   6.580  67.549  1.00  0.00    -0.341 OA 
BRANCH   6   7
HETATM    7  C   UNL     1     -10.320   7.646  68.174  1.00  0.00    -0.204 C  
BRANCH   7   8
HETATM    8  C   UNL     1     -10.596   7.593  69.684  1.00  0.00    -0.243 A  
HETATM    9  C   UNL     1     -11.141   7.374  72.463  1.00  0.00    -0.350 A  
HETATM   10  C   UNL     1     -11.448   6.591  70.204  1.00  0.00    -0.477 A  
HETATM   11  C   UNL     1      -9.998   8.464  70.616  1.00  0.00    -0.185 A  
HETATM   12  C   UNL     1     -11.712   6.478  71.571  1.00  0.00    -0.376 A  
HETATM   13  C   UNL     1     -10.288   8.365  71.986  1.00  0.00    -0.374 A  
HETATM   14 CL   UNL     1      -8.831   9.656  70.170  1.00  0.00    -0.256 Cl 
ENDBRANCH   7   8
BRANCH   7  15
HETATM   15  C   UNL     1     -10.604   8.992  67.487  1.00  0.00    -0.237 C  
BRANCH  15  16
HETATM   16  N   UNL     1      -9.928   9.144  66.218  1.00  0.00    -0.287 NA 
HETATM   17  N   UNL     1     -10.181  10.179  65.393  1.00  0.00    -0.272 NA 
HETATM   18  N   UNL     1      -8.390   8.942  64.779  1.00  0.00    -0.167 NA 
HETATM   19  C   UNL     1      -9.199  10.003  64.504  1.00  0.00    -0.262 A  
HETATM   20  N   UNL     1      -8.855   8.398  65.895  1.00  0.00    -0.167 NA 
ENDBRANCH  15  16
ENDBRANCH   7  15
ENDBRANCH   6   7
ENDBRANCH   2   6
TORSDOF 5
ENDMDL
MODEL      166
REMARK 921   NORMALIZED FREE ENERGY PREDICTED BY IDOCK:   -3.78 KCAL/MOL
REMARK 922        TOTAL FREE ENERGY PREDICTED BY IDOCK:   -5.69 KCAL/MOL
REMARK 923 INTER-LIGAND FREE ENERGY PREDICTED BY IDOCK:   -5.27 KCAL/MOL
REMARK 924 INTRA-LIGAND FREE ENERGY PREDICTED BY IDOCK:   -0.41 KCAL/MOL
REMARK 927      BINDING AFFINITY PREDICTED BY RF-SCORE:    0.00 PKD
ROOT
HETATM    1  N   UNL     1     -10.883   8.527  67.151  1.00  0.00    -0.405 N  
HETATM    2  C   UNL     1     -10.967   9.746  67.722  1.00  0.00    -0.180 C  
HETATM    3  H1  UNL     1     -10.873   8.358  66.146  1.00  0.00     0.000 HD 
HETATM    4  H2  UNL     1     -10.826   7.717  67.769  1.00  0.00     0.000 HD 
HETATM    5  O   UNL     1     -10.980   9.948  68.924  1.00  0.00    -0.220 OA 
ENDROOT
BRANCH   2   6
HETATM    6  O   UNL     1     -11.012  10.685  66.759  1.00  0.00    -0.215 OA 
BRANCH   6   7
HETATM    7  C   UNL     1     -10.159  10.529  65.593  1.00  0.00    -0.268 C  
BRANCH   7   8
HETATM    8  C   UNL     1      -8.725  10.888  66.014  1.00  0.00    -0.192 A  
HETATM    9  C   UNL     1      -6.123  11.613  66.892  1.00  0.00    -0.148 A  
HETATM   10  C   UNL     1      -8.504  11.988  66.874  1.00  0.00    -0.172 A  
HETATM   11  C   UNL     1      -7.593  10.141  65.635  1.00  0.00    -0.144 A  
HETATM   12  C   UNL     1      -7.226  12.343  67.312  1.00  0.00    -0.125 A  
HETATM   13  C   UNL     1      -6.307  10.516  66.055  1.00  0.00    -0.124 A  
HETATM   14 CL   UNL     1      -7.695   8.691  64.701  1.00  0.00    -0.114 Cl 
ENDBRANCH   7   8
BRANCH   7  15
HETATM   15  C   UNL     1     -10.724  11.316  64.399  1.00  0.00    -0.339 C  
BRANCH  15  16
HETATM   16  N   UNL     1     -11.449  12.505  64.785  1.00  0.00    -0.312 NA 
HETATM   17  N   UNL     1     -10.864  13.718  64.823  1.00  0.00    -0.380 NA 
HETATM   18  N   UNL     1     -13.112  13.783  65.066  1.00  0.00    -0.737 NA 
HETATM   19  C   UNL     1     -11.944  14.482  65.011  1.00  0.00    -0.399 A  
HETATM   20  N   UNL     1     -12.790  12.507  64.906  1.00  0.00    -0.800 NA 
ENDBRANCH  15  16
ENDBRANCH   7  15
ENDBRANCH   6   7
ENDBRANCH   2   6
TORSDOF 5
ENDMDL
MODEL      167
REMARK 921   NORMALIZED FREE ENERGY PREDICTED BY IDOCK:   -3.77 KCAL/MOL
REMARK 922        TOTAL FREE ENERGY PREDICTED BY IDOCK:   -5.68 KCAL/MOL
REMARK 923 INTER-LIGAND FREE ENERGY PREDICTED BY IDOCK:   -5.11 KCAL/MOL
REMARK 924 INTRA-LIGAND FREE ENERGY PREDICTED BY IDOCK:   -0.57 KCAL/MOL
REMARK 927      BINDING AFFINITY PREDICTED BY RF-SCORE:    0.00 PKD
ROOT
HETATM    1  N   UNL     1     -11.291   7.020  66.972  1.00  0.00    -0.618 N  
HETATM    2  C   UNL     1     -10.294   7.590  67.680  1.00  0.00    -0.229 C  
HETATM    3  H1  UNL     1     -12.224   7.418  66.863  1.00  0.00     0.000 HD 
HETATM    4  H2  UNL     1     -11.099   6.129  66.515  1.00  0.00     0.000 HD 
HETATM    5  O   UNL     1      -9.179   7.115  67.811  1.00  0.00    -0.127 OA 
ENDROOT
BRANCH   2   6
HETATM    6  O   UNL     1     -10.723   8.760  68.189  1.00  0.00    -0.177 OA 
BRANCH   6   7
HETATM    7  C   UNL     1     -10.723   9.935  67.333  1.00  0.00    -0.260 C  
BRANCH   7   8
HETATM    8  C   UNL     1      -9.258  10.319  67.072  1.00  0.00    -0.169 A  
HETATM    9  C   UNL     1      -6.524  10.998  66.707  1.00  0.00    -0.124 A  
HETATM   10  C   UNL     1      -8.408  10.613  68.161  1.00  0.00    -0.121 A  
HETATM   11  C   UNL     1      -8.678  10.345  65.788  1.00  0.00    -0.168 A  
HETATM   12  C   UNL     1      -7.061  10.941  67.985  1.00  0.00    -0.077 A  
HETATM   13  C   UNL     1      -7.332  10.702  65.612  1.00  0.00    -0.087 A  
HETATM   14 CL   UNL     1      -9.535   9.883  64.361  1.00  0.00    -0.341 Cl 
ENDBRANCH   7   8
BRANCH   7  15
HETATM   15  C   UNL     1     -11.611  11.040  67.928  1.00  0.00    -0.226 C  
BRANCH  15  16
HETATM   16  N   UNL     1     -11.825  12.152  67.030  1.00  0.00    -0.594 NA 
HETATM   17  N   UNL     1     -12.097  11.972  65.723  1.00  0.00    -0.489 NA 
HETATM   18  N   UNL     1     -12.358  14.108  66.422  1.00  0.00    -0.454 NA 
HETATM   19  C   UNL     1     -12.415  13.226  65.386  1.00  0.00    -0.489 A  
HETATM   20  N   UNL     1     -11.990  13.408  67.487  1.00  0.00    -0.359 NA 
ENDBRANCH  15  16
ENDBRANCH   7  15
ENDBRANCH   6   7
ENDBRANCH   2   6
TORSDOF 5
ENDMDL
MODEL      168
REMARK 921   NORMALIZED FREE ENERGY PREDICTED BY IDOCK:   -3.77 KCAL/MOL
REMARK 922        TOTAL FREE ENERGY PREDICTED BY IDOCK:   -5.68 KCAL/MOL
REMARK 923 INTER-LIGAND FREE ENERGY PREDICTED BY IDOCK:   -4.85 KCAL/MOL
REMARK 924 INTRA-LIGAND FREE ENERGY PREDICTED BY IDOCK:   -0.83 KCAL/MOL
REMARK 927      BINDING AFFINITY PREDICTED BY RF-SCORE:    0.00 PKD
ROOT
HETATM    1  N   UNL     1      -8.834  11.356  65.265  1.00  0.00    -0.393 N  
HETATM    2  C   UNL     1      -9.459  10.384  65.960  1.00  0.00    -0.185 C  
HETATM    3  H1  UNL     1      -8.882  12.350  65.488  1.00  0.00     0.000 HD 
HETATM    4  H2  UNL     1      -8.274  11.077  64.459  1.00  0.00     0.000 HD 
HETATM    5  O   UNL     1      -9.402   9.196  65.694  1.00  0.00    -0.224 OA 
ENDROOT
BRANCH   2   6
HETATM    6  O   UNL     1     -10.126  10.935  66.991  1.00  0.00    -0.192 OA 
BRANCH   6   7
HETATM    7  C   UNL     1      -9.443  11.079  68.266  1.00  0.00    -0.172 C  
BRANCH   7   8
HETATM    8  C   UNL     1     -10.397  10.579  69.363  1.00  0.00    -0.258 A  
HETATM    9  C   UNL     1     -12.255   9.676  71.312  1.00  0.00    -0.452 A  
HETATM   10  C   UNL     1     -11.759  10.953  69.329  1.00  0.00    -0.395 A  
HETATM   11  C   UNL     1     -10.004   9.704  70.395  1.00  0.00    -0.271 A  
HETATM   12  C   UNL     1     -12.676  10.505  70.283  1.00  0.00    -0.255 A  
HETATM   13  C   UNL     1     -10.922   9.279  71.368  1.00  0.00    -0.429 A  
HETATM   14 CL   UNL     1      -8.413   9.041  70.509  1.00  0.00    -0.198 Cl 
ENDBRANCH   7   8
BRANCH   7  15
HETATM   15  C   UNL     1      -8.915  12.513  68.440  1.00  0.00    -0.130 C  
BRANCH  15  16
HETATM   16  N   UNL     1      -9.653  13.494  67.677  1.00  0.00    -0.215 NA 
HETATM   17  N   UNL     1     -10.843  13.973  68.090  1.00  0.00    -0.243 NA 
HETATM   18  N   UNL     1      -9.975  15.089  66.324  1.00  0.00    -0.265 NA 
HETATM   19  C   UNL     1     -11.006  14.961  67.206  1.00  0.00    -0.323 A  
HETATM   20  N   UNL     1      -9.097  14.147  66.639  1.00  0.00    -0.245 NA 
ENDBRANCH  15  16
ENDBRANCH   7  15
ENDBRANCH   6   7
ENDBRANCH   2   6
TORSDOF 5
ENDMDL
MODEL      169
REMARK 921   NORMALIZED FREE ENERGY PREDICTED BY IDOCK:   -3.77 KCAL/MOL
REMARK 922        TOTAL FREE ENERGY PREDICTED BY IDOCK:   -5.67 KCAL/MOL
REMARK 923 INTER-LIGAND FREE ENERGY PREDICTED BY IDOCK:   -5.85 KCAL/MOL
REMARK 924 INTRA-LIGAND FREE ENERGY PREDICTED BY IDOCK:    0.18 KCAL/MOL
REMARK 927      BINDING AFFINITY PREDICTED BY RF-SCORE:    0.00 PKD
ROOT
HETATM    1  N   UNL     1     -11.034   9.346  67.091  1.00  0.00    -0.273 N  
HETATM    2  C   UNL     1     -10.683  10.643  66.982  1.00  0.00    -0.259 C  
HETATM    3  H1  UNL     1     -11.195   8.862  67.974  1.00  0.00     0.000 HD 
HETATM    4  H2  UNL     1     -11.146   8.810  66.230  1.00  0.00     0.000 HD 
HETATM    5  O   UNL     1     -10.490  11.221  65.926  1.00  0.00    -0.249 OA 
ENDROOT
BRANCH   2   6
HETATM    6  O   UNL     1     -10.604  11.188  68.210  1.00  0.00    -0.173 OA 
BRANCH   6   7
HETATM    7  C   UNL     1     -11.273  10.518  69.313  1.00  0.00    -0.262 C  
BRANCH   7   8
HETATM    8  C   UNL     1     -11.973  11.597  70.155  1.00  0.00    -0.441 A  
HETATM    9  C   UNL     1     -13.277  13.507  71.804  1.00  0.00    -0.490 A  
HETATM   10  C   UNL     1     -12.771  11.215  71.257  1.00  0.00    -0.531 A  
HETATM   11  C   UNL     1     -11.823  12.979  69.928  1.00  0.00    -0.307 A  
HETATM   12  C   UNL     1     -13.408  12.152  72.073  1.00  0.00    -0.470 A  
HETATM   13  C   UNL     1     -12.487  13.918  70.733  1.00  0.00    -0.445 A  
HETATM   14 CL   UNL     1     -10.779  13.623  68.712  1.00  0.00    -0.264 Cl 
ENDBRANCH   7   8
BRANCH   7  15
HETATM   15  C   UNL     1     -10.291   9.609  70.071  1.00  0.00    -0.257 C  
BRANCH  15  16
HETATM   16  N   UNL     1     -10.718   8.229  70.134  1.00  0.00    -0.238 NA 
HETATM   17  N   UNL     1     -11.684   7.818  70.978  1.00  0.00    -0.285 NA 
HETATM   18  N   UNL     1     -11.070   6.252  69.465  1.00  0.00    -0.377 NA 
HETATM   19  C   UNL     1     -11.862   6.573  70.526  1.00  0.00    -0.328 A  
HETATM   20  N   UNL     1     -10.341   7.329  69.205  1.00  0.00    -0.201 NA 
ENDBRANCH  15  16
ENDBRANCH   7  15
ENDBRANCH   6   7
ENDBRANCH   2   6
TORSDOF 5
ENDMDL
MODEL      170
REMARK 921   NORMALIZED FREE ENERGY PREDICTED BY IDOCK:   -3.77 KCAL/MOL
REMARK 922        TOTAL FREE ENERGY PREDICTED BY IDOCK:   -5.67 KCAL/MOL
REMARK 923 INTER-LIGAND FREE ENERGY PREDICTED BY IDOCK:   -4.95 KCAL/MOL
REMARK 924 INTRA-LIGAND FREE ENERGY PREDICTED BY IDOCK:   -0.72 KCAL/MOL
REMARK 927      BINDING AFFINITY PREDICTED BY RF-SCORE:    0.00 PKD
ROOT
HETATM    1  N   UNL     1      -7.077  11.458  66.182  1.00  0.00    -0.368 N  
HETATM    2  C   UNL     1      -8.078  10.634  66.553  1.00  0.00    -0.140 C  
HETATM    3  H1  UNL     1      -7.007  12.440  66.447  1.00  0.00     0.000 HD 
HETATM    4  H2  UNL     1      -6.338  11.071  65.595  1.00  0.00     0.000 HD 
HETATM    5  O   UNL     1      -8.162   9.460  66.236  1.00  0.00    -0.109 OA 
ENDROOT
BRANCH   2   6
HETATM    6  O   UNL     1      -8.941  11.308  67.335  1.00  0.00    -0.142 OA 
BRANCH   6   7
HETATM    7  C   UNL     1     -10.346  10.934  67.307  1.00  0.00    -0.216 C  
BRANCH   7   8
HETATM    8  C   UNL     1     -11.107  12.046  66.567  1.00  0.00    -0.362 A  
HETATM    9  C   UNL     1     -12.488  14.178  65.296  1.00  0.00    -0.474 A  
HETATM   10  C   UNL     1     -11.593  13.160  67.289  1.00  0.00    -0.404 A  
HETATM   11  C   UNL     1     -11.310  12.055  65.173  1.00  0.00    -0.304 A  
HETATM   12  C   UNL     1     -12.267  14.212  66.665  1.00  0.00    -0.450 A  
HETATM   13  C   UNL     1     -12.012  13.100  64.553  1.00  0.00    -0.442 A  
HETATM   14 CL   UNL     1     -10.667  10.843  64.123  1.00  0.00    -0.358 Cl 
ENDBRANCH   7   8
BRANCH   7  15
HETATM   15  C   UNL     1     -10.848  10.604  68.722  1.00  0.00    -0.229 C  
BRANCH  15  16
HETATM   16  N   UNL     1     -10.284   9.388  69.263  1.00  0.00    -0.194 NA 
HETATM   17  N   UNL     1     -10.213   8.251  68.544  1.00  0.00    -0.205 NA 
HETATM   18  N   UNL     1      -9.069   8.168  70.494  1.00  0.00    -0.148 NA 
HETATM   19  C   UNL     1      -9.452   7.517  69.360  1.00  0.00    -0.155 A  
HETATM   20  N   UNL     1      -9.597   9.382  70.421  1.00  0.00    -0.249 NA 
ENDBRANCH  15  16
ENDBRANCH   7  15
ENDBRANCH   6   7
ENDBRANCH   2   6
TORSDOF 5
ENDMDL
MODEL      171
REMARK 921   NORMALIZED FREE ENERGY PREDICTED BY IDOCK:   -3.76 KCAL/MOL
REMARK 922        TOTAL FREE ENERGY PREDICTED BY IDOCK:   -5.67 KCAL/MOL
REMARK 923 INTER-LIGAND FREE ENERGY PREDICTED BY IDOCK:   -5.42 KCAL/MOL
REMARK 924 INTRA-LIGAND FREE ENERGY PREDICTED BY IDOCK:   -0.25 KCAL/MOL
REMARK 927      BINDING AFFINITY PREDICTED BY RF-SCORE:    0.00 PKD
ROOT
HETATM    1  N   UNL     1      -9.664  10.272  70.023  1.00  0.00    -0.405 N  
HETATM    2  C   UNL     1     -10.470  10.502  68.965  1.00  0.00    -0.217 C  
HETATM    3  H1  UNL     1      -8.698  10.589  70.094  1.00  0.00     0.000 HD 
HETATM    4  H2  UNL     1     -10.049   9.743  70.806  1.00  0.00     0.000 HD 
HETATM    5  O   UNL     1     -11.625  10.123  68.880  1.00  0.00    -0.133 OA 
ENDROOT
BRANCH   2   6
HETATM    6  O   UNL     1      -9.803  11.225  68.048  1.00  0.00    -0.168 OA 
BRANCH   6   7
HETATM    7  C   UNL     1     -10.382  12.477  67.591  1.00  0.00    -0.218 C  
BRANCH   7   8
HETATM    8  C   UNL     1     -10.948  12.240  66.182  1.00  0.00    -0.328 A  
HETATM    9  C   UNL     1     -12.062  11.907  63.590  1.00  0.00    -0.580 A  
HETATM   10  C   UNL     1     -12.164  12.854  65.804  1.00  0.00    -0.498 A  
HETATM   11  C   UNL     1     -10.290  11.477  65.198  1.00  0.00    -0.278 A  
HETATM   12  C   UNL     1     -12.710  12.697  64.528  1.00  0.00    -0.439 A  
HETATM   13  C   UNL     1     -10.856  11.298  63.926  1.00  0.00    -0.427 A  
HETATM   14 CL   UNL     1      -8.734  10.769  65.444  1.00  0.00    -0.193 Cl 
ENDBRANCH   7   8
BRANCH   7  15
HETATM   15  C   UNL     1      -9.367  13.625  67.722  1.00  0.00    -0.218 C  
BRANCH  15  16
HETATM   16  N   UNL     1      -9.906  14.797  68.375  1.00  0.00    -0.214 NA 
HETATM   17  N   UNL     1      -9.786  16.030  67.844  1.00  0.00    -0.220 NA 
HETATM   18  N   UNL     1     -11.183  15.935  69.621  1.00  0.00    -0.305 NA 
HETATM   19  C   UNL     1     -10.595  16.706  68.664  1.00  0.00    -0.337 A  
HETATM   20  N   UNL     1     -10.746  14.699  69.422  1.00  0.00    -0.243 NA 
ENDBRANCH  15  16
ENDBRANCH   7  15
ENDBRANCH   6   7
ENDBRANCH   2   6
TORSDOF 5
ENDMDL
MODEL      172
REMARK 921   NORMALIZED FREE ENERGY PREDICTED BY IDOCK:   -3.74 KCAL/MOL
REMARK 922        TOTAL FREE ENERGY PREDICTED BY IDOCK:   -5.64 KCAL/MOL
REMARK 923 INTER-LIGAND FREE ENERGY PREDICTED BY IDOCK:   -5.27 KCAL/MOL
REMARK 924 INTRA-LIGAND FREE ENERGY PREDICTED BY IDOCK:   -0.37 KCAL/MOL
REMARK 927      BINDING AFFINITY PREDICTED BY RF-SCORE:    0.00 PKD
ROOT
HETATM    1  N   UNL     1     -12.339  13.676  65.798  1.00  0.00    -0.463 N  
HETATM    2  C   UNL     1     -11.965  14.582  64.872  1.00  0.00    -0.422 C  
HETATM    3  H1  UNL     1     -11.696  13.173  66.409  1.00  0.00     0.000 HD 
HETATM    4  H2  UNL     1     -13.335  13.478  65.893  1.00  0.00     0.000 HD 
HETATM    5  O   UNL     1     -12.733  15.182  64.140  1.00  0.00    -0.694 OA 
ENDROOT
BRANCH   2   6
HETATM    6  O   UNL     1     -10.627  14.726  64.906  1.00  0.00    -0.414 OA 
BRANCH   6   7
HETATM    7  C   UNL     1     -10.054  15.707  65.812  1.00  0.00    -0.366 C  
BRANCH   7   8
HETATM    8  C   UNL     1      -8.907  15.022  66.572  1.00  0.00    -0.286 A  
HETATM    9  C   UNL     1      -6.818  13.648  67.920  1.00  0.00    -0.155 A  
HETATM   10  C   UNL     1      -8.925  13.620  66.751  1.00  0.00    -0.196 A  
HETATM   11  C   UNL     1      -7.781  15.710  67.066  1.00  0.00    -0.222 A  
HETATM   12  C   UNL     1      -7.896  12.942  67.408  1.00  0.00    -0.170 A  
HETATM   13  C   UNL     1      -6.762  15.029  67.751  1.00  0.00    -0.188 A  
HETATM   14 CL   UNL     1      -7.531  17.401  66.817  1.00  0.00    -0.235 Cl 
ENDBRANCH   7   8
BRANCH   7  15
HETATM   15  C   UNL     1     -11.148  16.345  66.683  1.00  0.00     0.156 C  
BRANCH  15  16
HETATM   16  N   UNL     1     -11.147  15.870  68.048  1.00  0.00    -0.338 NA 
HETATM   17  N   UNL     1     -10.597  16.582  69.052  1.00  0.00    -0.302 NA 
HETATM   18  N   UNL     1     -11.797  14.796  69.752  1.00  0.00    -0.298 NA 
HETATM   19  C   UNL     1     -11.024  15.864  70.095  1.00  0.00    -0.364 A  
HETATM   20  N   UNL     1     -11.885  14.811  68.429  1.00  0.00    -0.309 NA 
ENDBRANCH  15  16
ENDBRANCH   7  15
ENDBRANCH   6   7
ENDBRANCH   2   6
TORSDOF 5
ENDMDL
MODEL      173
REMARK 921   NORMALIZED FREE ENERGY PREDICTED BY IDOCK:   -3.74 KCAL/MOL
REMARK 922        TOTAL FREE ENERGY PREDICTED BY IDOCK:   -5.63 KCAL/MOL
REMARK 923 INTER-LIGAND FREE ENERGY PREDICTED BY IDOCK:   -5.88 KCAL/MOL
REMARK 924 INTRA-LIGAND FREE ENERGY PREDICTED BY IDOCK:    0.25 KCAL/MOL
REMARK 927      BINDING AFFINITY PREDICTED BY RF-SCORE:    0.00 PKD
ROOT
HETATM    1  N   UNL     1     -11.188   9.255  68.202  1.00  0.00    -0.458 N  
HETATM    2  C   UNL     1     -11.305  10.467  68.783  1.00  0.00    -0.214 C  
HETATM    3  H1  UNL     1     -11.603   9.001  67.306  1.00  0.00     0.000 HD 
HETATM    4  H2  UNL     1     -10.648   8.543  68.694  1.00  0.00     0.000 HD 
HETATM    5  O   UNL     1     -10.809  10.771  69.854  1.00  0.00    -0.261 OA 
ENDROOT
BRANCH   2   6
HETATM    6  O   UNL     1     -12.027  11.274  67.985  1.00  0.00    -0.621 OA 
BRANCH   6   7
HETATM    7  C   UNL     1     -11.456  12.548  67.580  1.00  0.00    -0.334 C  
BRANCH   7   8
HETATM    8  C   UNL     1     -11.642  12.678  66.060  1.00  0.00    -0.443 A  
HETATM    9  C   UNL     1     -12.019  13.039  63.268  1.00  0.00    -0.493 A  
HETATM   10  C   UNL     1     -12.436  13.726  65.541  1.00  0.00    -0.548 A  
HETATM   11  C   UNL     1     -11.014  11.833  65.124  1.00  0.00    -0.294 A  
HETATM   12  C   UNL     1     -12.617  13.909  64.168  1.00  0.00    -0.142 A  
HETATM   13  C   UNL     1     -11.221  12.003  63.746  1.00  0.00    -0.516 A  
HETATM   14 CL   UNL     1      -9.905  10.589  65.579  1.00  0.00    -0.302 Cl 
ENDBRANCH   7   8
BRANCH   7  15
HETATM   15  C   UNL     1     -10.012  12.682  68.093  1.00  0.00    -0.225 C  
BRANCH  15  16
HETATM   16  N   UNL     1      -9.413  13.964  67.795  1.00  0.00    -0.208 NA 
HETATM   17  N   UNL     1      -8.416  14.096  66.899  1.00  0.00    -0.148 NA 
HETATM   18  N   UNL     1      -9.276  16.067  67.601  1.00  0.00    -0.204 NA 
HETATM   19  C   UNL     1      -8.361  15.428  66.819  1.00  0.00    -0.250 A  
HETATM   20  N   UNL     1      -9.964  15.117  68.220  1.00  0.00    -0.220 NA 
ENDBRANCH  15  16
ENDBRANCH   7  15
ENDBRANCH   6   7
ENDBRANCH   2   6
TORSDOF 5
ENDMDL
MODEL      174
REMARK 921   NORMALIZED FREE ENERGY PREDICTED BY IDOCK:   -3.73 KCAL/MOL
REMARK 922        TOTAL FREE ENERGY PREDICTED BY IDOCK:   -5.63 KCAL/MOL
REMARK 923 INTER-LIGAND FREE ENERGY PREDICTED BY IDOCK:   -4.96 KCAL/MOL
REMARK 924 INTRA-LIGAND FREE ENERGY PREDICTED BY IDOCK:   -0.67 KCAL/MOL
REMARK 927      BINDING AFFINITY PREDICTED BY RF-SCORE:    0.00 PKD
ROOT
HETATM    1  N   UNL     1     -11.453   7.128  69.132  1.00  0.00    -0.446 N  
HETATM    2  C   UNL     1     -10.728   7.874  68.273  1.00  0.00    -0.031 C  
HETATM    3  H1  UNL     1     -11.856   7.475  70.002  1.00  0.00     0.000 HD 
HETATM    4  H2  UNL     1     -11.609   6.149  68.895  1.00  0.00     0.000 HD 
HETATM    5  O   UNL     1     -10.246   7.459  67.233  1.00  0.00    -0.206 OA 
ENDROOT
BRANCH   2   6
HETATM    6  O   UNL     1     -10.647   9.134  68.738  1.00  0.00    -0.218 OA 
BRANCH   6   7
HETATM    7  C   UNL     1     -11.101   9.409  70.091  1.00  0.00    -0.242 C  
BRANCH   7   8
HETATM    8  C   UNL     1     -11.566  10.873  70.136  1.00  0.00    -0.425 A  
HETATM    9  C   UNL     1     -12.399  13.588  70.097  1.00  0.00    -0.345 A  
HETATM   10  C   UNL     1     -11.127  11.777  69.143  1.00  0.00    -0.294 A  
HETATM   11  C   UNL     1     -12.469  11.373  71.095  1.00  0.00    -0.360 A  
HETATM   12  C   UNL     1     -11.540  13.111  69.118  1.00  0.00    -0.368 A  
HETATM   13  C   UNL     1     -12.860  12.721  71.084  1.00  0.00    -0.315 A  
HETATM   14 CL   UNL     1     -13.208  10.377  72.297  1.00  0.00    -0.418 Cl 
ENDBRANCH   7   8
BRANCH   7  15
HETATM   15  C   UNL     1     -10.023   9.016  71.115  1.00  0.00    -0.295 C  
BRANCH  15  16
HETATM   16  N   UNL     1     -10.296   7.764  71.785  1.00  0.00    -0.196 NA 
HETATM   17  N   UNL     1      -9.359   6.805  71.916  1.00  0.00    -0.147 NA 
HETATM   18  N   UNL     1     -11.232   6.420  73.125  1.00  0.00    -0.157 NA 
HETATM   19  C   UNL     1      -9.996   5.983  72.755  1.00  0.00    -0.176 A  
HETATM   20  N   UNL     1     -11.417   7.578  72.507  1.00  0.00    -0.323 NA 
ENDBRANCH  15  16
ENDBRANCH   7  15
ENDBRANCH   6   7
ENDBRANCH   2   6
TORSDOF 5
ENDMDL
MODEL      175
REMARK 921   NORMALIZED FREE ENERGY PREDICTED BY IDOCK:   -3.72 KCAL/MOL
REMARK 922        TOTAL FREE ENERGY PREDICTED BY IDOCK:   -5.61 KCAL/MOL
REMARK 923 INTER-LIGAND FREE ENERGY PREDICTED BY IDOCK:   -4.41 KCAL/MOL
REMARK 924 INTRA-LIGAND FREE ENERGY PREDICTED BY IDOCK:   -1.20 KCAL/MOL
REMARK 927      BINDING AFFINITY PREDICTED BY RF-SCORE:    0.00 PKD
ROOT
HETATM    1  N   UNL     1      -9.403  11.411  65.075  1.00  0.00    -0.355 N  
HETATM    2  C   UNL     1     -10.278  12.390  65.382  1.00  0.00    -0.278 C  
HETATM    3  H1  UNL     1      -8.510  11.263  65.546  1.00  0.00     0.000 HD 
HETATM    4  H2  UNL     1      -9.650  10.774  64.318  1.00  0.00     0.000 HD 
HETATM    5  O   UNL     1     -11.344  12.567  64.818  1.00  0.00    -0.295 OA 
ENDROOT
BRANCH   2   6
HETATM    6  O   UNL     1      -9.795  13.112  66.410  1.00  0.00    -0.267 OA 
BRANCH   6   7
HETATM    7  C   UNL     1      -9.882  12.559  67.751  1.00  0.00    -0.204 C  
BRANCH   7   8
HETATM    8  C   UNL     1     -10.760  13.505  68.586  1.00  0.00    -0.271 A  
HETATM    9  C   UNL     1     -12.388  15.330  70.030  1.00  0.00    -0.366 A  
HETATM   10  C   UNL     1     -10.867  14.866  68.220  1.00  0.00    -0.257 A  
HETATM   11  C   UNL     1     -11.529  13.082  69.688  1.00  0.00    -0.183 A  
HETATM   12  C   UNL     1     -11.672  15.763  68.925  1.00  0.00    -0.404 A  
HETATM   13  C   UNL     1     -12.316  13.993  70.411  1.00  0.00    -0.429 A  
HETATM   14 CL   UNL     1     -11.623  11.431  70.189  1.00  0.00    -0.389 Cl 
ENDBRANCH   7   8
BRANCH   7  15
HETATM   15  C   UNL     1      -8.480  12.275  68.314  1.00  0.00    -0.173 C  
BRANCH  15  16
HETATM   16  N   UNL     1      -7.642  11.517  67.412  1.00  0.00    -0.127 NA 
HETATM   17  N   UNL     1      -6.543  12.048  66.841  1.00  0.00    -0.102 NA 
HETATM   18  N   UNL     1      -6.735   9.814  66.540  1.00  0.00    -0.078 NA 
HETATM   19  C   UNL     1      -6.016  10.946  66.301  1.00  0.00    -0.139 A  
HETATM   20  N   UNL     1      -7.778  10.185  67.271  1.00  0.00    -0.095 NA 
ENDBRANCH  15  16
ENDBRANCH   7  15
ENDBRANCH   6   7
ENDBRANCH   2   6
TORSDOF 5
ENDMDL
MODEL      176
REMARK 921   NORMALIZED FREE ENERGY PREDICTED BY IDOCK:   -3.72 KCAL/MOL
REMARK 922        TOTAL FREE ENERGY PREDICTED BY IDOCK:   -5.61 KCAL/MOL
REMARK 923 INTER-LIGAND FREE ENERGY PREDICTED BY IDOCK:   -4.88 KCAL/MOL
REMARK 924 INTRA-LIGAND FREE ENERGY PREDICTED BY IDOCK:   -0.74 KCAL/MOL
REMARK 927      BINDING AFFINITY PREDICTED BY RF-SCORE:    0.00 PKD
ROOT
HETATM    1  N   UNL     1      -9.667   9.703  65.457  1.00  0.00    -0.297 N  
HETATM    2  C   UNL     1      -9.976   8.918  66.509  1.00  0.00    -0.288 C  
HETATM    3  H1  UNL     1      -9.800  10.714  65.430  1.00  0.00     0.000 HD 
HETATM    4  H2  UNL     1      -9.272   9.255  64.630  1.00  0.00     0.000 HD 
HETATM    5  O   UNL     1      -9.817   7.710  66.542  1.00  0.00    -0.216 OA 
ENDROOT
BRANCH   2   6
HETATM    6  O   UNL     1     -10.460   9.682  67.506  1.00  0.00    -0.228 OA 
BRANCH   6   7
HETATM    7  C   UNL     1      -9.526  10.261  68.457  1.00  0.00    -0.158 C  
BRANCH   7   8
HETATM    8  C   UNL     1      -9.681   9.499  69.782  1.00  0.00    -0.234 A  
HETATM    9  C   UNL     1      -9.841   8.080  72.238  1.00  0.00    -0.301 A  
HETATM   10  C   UNL     1      -8.625   8.683  70.247  1.00  0.00    -0.144 A  
HETATM   11  C   UNL     1     -10.813   9.606  70.614  1.00  0.00    -0.320 A  
HETATM   12  C   UNL     1      -8.699   7.989  71.457  1.00  0.00    -0.168 A  
HETATM   13  C   UNL     1     -10.896   8.885  71.816  1.00  0.00    -0.436 A  
HETATM   14 CL   UNL     1     -12.136  10.661  70.267  1.00  0.00    -0.393 Cl 
ENDBRANCH   7   8
BRANCH   7  15
HETATM   15  C   UNL     1      -9.707  11.786  68.535  1.00  0.00    -0.178 C  
BRANCH  15  16
HETATM   16  N   UNL     1     -10.491  12.328  67.449  1.00  0.00    -0.209 NA 
HETATM   17  N   UNL     1     -11.787  12.666  67.601  1.00  0.00    -0.359 NA 
HETATM   18  N   UNL     1     -10.892  13.349  65.638  1.00  0.00    -0.280 NA 
HETATM   19  C   UNL     1     -11.993  13.292  66.439  1.00  0.00    -0.410 A  
HETATM   20  N   UNL     1      -9.920  12.737  66.300  1.00  0.00    -0.260 NA 
ENDBRANCH  15  16
ENDBRANCH   7  15
ENDBRANCH   6   7
ENDBRANCH   2   6
TORSDOF 5
ENDMDL
MODEL      177
REMARK 921   NORMALIZED FREE ENERGY PREDICTED BY IDOCK:   -3.72 KCAL/MOL
REMARK 922        TOTAL FREE ENERGY PREDICTED BY IDOCK:   -5.61 KCAL/MOL
REMARK 923 INTER-LIGAND FREE ENERGY PREDICTED BY IDOCK:   -4.55 KCAL/MOL
REMARK 924 INTRA-LIGAND FREE ENERGY PREDICTED BY IDOCK:   -1.06 KCAL/MOL
REMARK 927      BINDING AFFINITY PREDICTED BY RF-SCORE:    0.00 PKD
ROOT
HETATM    1  N   UNL     1     -10.463   6.706  73.714  1.00  0.00    -0.356 N  
HETATM    2  C   UNL     1     -11.090   6.217  72.625  1.00  0.00    -0.272 C  
HETATM    3  H1  UNL     1      -9.872   7.537  73.717  1.00  0.00     0.000 HD 
HETATM    4  H2  UNL     1     -10.587   6.209  74.596  1.00  0.00     0.000 HD 
HETATM    5  O   UNL     1     -11.796   5.223  72.621  1.00  0.00    -0.208 OA 
ENDROOT
BRANCH   2   6
HETATM    6  O   UNL     1     -10.829   7.008  71.568  1.00  0.00    -0.228 OA 
BRANCH   6   7
HETATM    7  C   UNL     1     -10.074   8.231  71.783  1.00  0.00    -0.224 C  
BRANCH   7   8
HETATM    8  C   UNL     1     -10.820   9.369  71.068  1.00  0.00    -0.406 A  
HETATM    9  C   UNL     1     -12.135  11.445  69.644  1.00  0.00    -0.373 A  
HETATM   10  C   UNL     1     -10.275   9.932  69.892  1.00  0.00    -0.298 A  
HETATM   11  C   UNL     1     -12.070   9.864  71.489  1.00  0.00    -0.410 A  
HETATM   12  C   UNL     1     -10.923  10.948  69.186  1.00  0.00    -0.290 A  
HETATM   13  C   UNL     1     -12.705  10.905  70.793  1.00  0.00    -0.431 A  
HETATM   14 CL   UNL     1     -12.940   9.200  72.825  1.00  0.00    -0.319 Cl 
ENDBRANCH   7   8
BRANCH   7  15
HETATM   15  C   UNL     1      -8.602   8.038  71.381  1.00  0.00    -0.132 C  
BRANCH  15  16
HETATM   16  N   UNL     1      -7.768   7.565  72.462  1.00  0.00    -0.090 NA 
HETATM   17  N   UNL     1      -7.587   8.280  73.590  1.00  0.00    -0.254 NA 
HETATM   18  N   UNL     1      -6.772   6.173  73.707  1.00  0.00    -0.078 NA 
HETATM   19  C   UNL     1      -6.951   7.369  74.333  1.00  0.00    -0.097 A  
HETATM   20  N   UNL     1      -7.313   6.298  72.503  1.00  0.00    -0.085 NA 
ENDBRANCH  15  16
ENDBRANCH   7  15
ENDBRANCH   6   7
ENDBRANCH   2   6
TORSDOF 5
ENDMDL
MODEL      178
REMARK 921   NORMALIZED FREE ENERGY PREDICTED BY IDOCK:   -3.71 KCAL/MOL
REMARK 922        TOTAL FREE ENERGY PREDICTED BY IDOCK:   -5.59 KCAL/MOL
REMARK 923 INTER-LIGAND FREE ENERGY PREDICTED BY IDOCK:   -5.08 KCAL/MOL
REMARK 924 INTRA-LIGAND FREE ENERGY PREDICTED BY IDOCK:   -0.51 KCAL/MOL
REMARK 927      BINDING AFFINITY PREDICTED BY RF-SCORE:    0.00 PKD
ROOT
HETATM    1  N   UNL     1      -7.380  11.742  66.372  1.00  0.00    -0.371 N  
HETATM    2  C   UNL     1      -7.958  11.030  67.361  1.00  0.00    -0.119 C  
HETATM    3  H1  UNL     1      -7.806  11.922  65.464  1.00  0.00     0.000 HD 
HETATM    4  H2  UNL     1      -6.451  12.126  66.546  1.00  0.00     0.000 HD 
HETATM    5  O   UNL     1      -7.449  10.813  68.447  1.00  0.00    -0.087 OA 
ENDROOT
BRANCH   2   6
HETATM    6  O   UNL     1      -9.178  10.625  66.962  1.00  0.00    -0.150 OA 
BRANCH   6   7
HETATM    7  C   UNL     1     -10.248  10.561  67.944  1.00  0.00    -0.183 C  
BRANCH   7   8
HETATM    8  C   UNL     1     -10.527   9.077  68.230  1.00  0.00    -0.247 A  
HETATM    9  C   UNL     1     -10.998   6.307  68.646  1.00  0.00    -0.423 A  
HETATM   10  C   UNL     1     -10.626   8.165  67.156  1.00  0.00    -0.355 A  
HETATM   11  C   UNL     1     -10.640   8.543  69.529  1.00  0.00    -0.211 A  
HETATM   12  C   UNL     1     -10.851   6.801  67.358  1.00  0.00    -0.417 A  
HETATM   13  C   UNL     1     -10.894   7.177  69.728  1.00  0.00    -0.261 A  
HETATM   14 CL   UNL     1     -10.411   9.490  70.956  1.00  0.00    -0.384 Cl 
ENDBRANCH   7   8
BRANCH   7  15
HETATM   15  C   UNL     1     -11.455  11.395  67.487  1.00  0.00    -0.260 C  
BRANCH  15  16
HETATM   16  N   UNL     1     -11.878  12.377  68.460  1.00  0.00    -0.323 NA 
HETATM   17  N   UNL     1     -12.087  12.058  69.752  1.00  0.00    -0.278 NA 
HETATM   18  N   UNL     1     -12.113  14.284  69.348  1.00  0.00    -0.326 NA 
HETATM   19  C   UNL     1     -12.239  13.283  70.264  1.00  0.00    -0.321 A  
HETATM   20  N   UNL     1     -11.867  13.695  68.185  1.00  0.00    -0.361 NA 
ENDBRANCH  15  16
ENDBRANCH   7  15
ENDBRANCH   6   7
ENDBRANCH   2   6
TORSDOF 5
ENDMDL
MODEL      179
REMARK 921   NORMALIZED FREE ENERGY PREDICTED BY IDOCK:   -3.69 KCAL/MOL
REMARK 922        TOTAL FREE ENERGY PREDICTED BY IDOCK:   -5.57 KCAL/MOL
REMARK 923 INTER-LIGAND FREE ENERGY PREDICTED BY IDOCK:   -4.86 KCAL/MOL
REMARK 924 INTRA-LIGAND FREE ENERGY PREDICTED BY IDOCK:   -0.72 KCAL/MOL
REMARK 927      BINDING AFFINITY PREDICTED BY RF-SCORE:    0.00 PKD
ROOT
HETATM    1  N   UNL     1      -7.199  11.427  66.170  1.00  0.00    -0.367 N  
HETATM    2  C   UNL     1      -7.629  10.608  67.152  1.00  0.00    -0.099 C  
HETATM    3  H1  UNL     1      -7.707  11.609  65.305  1.00  0.00     0.000 HD 
HETATM    4  H2  UNL     1      -6.303  11.896  66.301  1.00  0.00     0.000 HD 
HETATM    5  O   UNL     1      -7.021  10.390  68.186  1.00  0.00    -0.072 OA 
ENDROOT
BRANCH   2   6
HETATM    6  O   UNL     1      -8.828  10.101  66.815  1.00  0.00    -0.132 OA 
BRANCH   6   7
HETATM    7  C   UNL     1      -9.929  10.229  67.755  1.00  0.00    -0.173 C  
BRANCH   7   8
HETATM    8  C   UNL     1     -10.373   8.811  68.146  1.00  0.00    -0.266 A  
HETATM    9  C   UNL     1     -11.151   6.149  68.760  1.00  0.00    -0.398 A  
HETATM   10  C   UNL     1     -10.582   7.841  67.140  1.00  0.00    -0.401 A  
HETATM   11  C   UNL     1     -10.537   8.388  69.480  1.00  0.00    -0.213 A  
HETATM   12  C   UNL     1     -10.958   6.530  67.440  1.00  0.00    -0.458 A  
HETATM   13  C   UNL     1     -10.943   7.077  69.776  1.00  0.00    -0.283 A  
HETATM   14 CL   UNL     1     -10.194   9.402  70.835  1.00  0.00    -0.365 Cl 
ENDBRANCH   7   8
BRANCH   7  15
HETATM   15  C   UNL     1     -11.027  11.142  67.183  1.00  0.00    -0.291 C  
BRANCH  15  16
HETATM   16  N   UNL     1     -10.521  12.392  66.663  1.00  0.00    -0.228 NA 
HETATM   17  N   UNL     1     -10.593  12.703  65.354  1.00  0.00    -0.276 NA 
HETATM   18  N   UNL     1      -9.951  14.431  66.666  1.00  0.00    -0.264 NA 
HETATM   19  C   UNL     1     -10.218  13.984  65.406  1.00  0.00    -0.347 A  
HETATM   20  N   UNL     1     -10.162  13.403  67.477  1.00  0.00    -0.225 NA 
ENDBRANCH  15  16
ENDBRANCH   7  15
ENDBRANCH   6   7
ENDBRANCH   2   6
TORSDOF 5
ENDMDL
MODEL      180
REMARK 921   NORMALIZED FREE ENERGY PREDICTED BY IDOCK:   -3.69 KCAL/MOL
REMARK 922        TOTAL FREE ENERGY PREDICTED BY IDOCK:   -5.57 KCAL/MOL
REMARK 923 INTER-LIGAND FREE ENERGY PREDICTED BY IDOCK:   -4.59 KCAL/MOL
REMARK 924 INTRA-LIGAND FREE ENERGY PREDICTED BY IDOCK:   -0.98 KCAL/MOL
REMARK 927      BINDING AFFINITY PREDICTED BY RF-SCORE:    0.00 PKD
ROOT
HETATM    1  N   UNL     1     -11.317   9.590  68.677  1.00  0.00    -0.464 N  
HETATM    2  C   UNL     1     -10.374   8.627  68.709  1.00  0.00    -0.208 C  
HETATM    3  H1  UNL     1     -12.166   9.588  69.241  1.00  0.00     0.000 HD 
HETATM    4  H2  UNL     1     -11.170  10.376  68.044  1.00  0.00     0.000 HD 
HETATM    5  O   UNL     1      -9.358   8.629  68.035  1.00  0.00    -0.136 OA 
ENDROOT
BRANCH   2   6
HETATM    6  O   UNL     1     -10.725   7.691  69.610  1.00  0.00    -0.242 OA 
BRANCH   6   7
HETATM    7  C   UNL     1      -9.908   7.528  70.801  1.00  0.00    -0.178 C  
BRANCH   7   8
HETATM    8  C   UNL     1      -9.829   6.024  71.108  1.00  0.00    -0.214 A  
HETATM    9  C   UNL     1      -9.790   3.255  71.739  1.00  0.00    -0.229 A  
HETATM   10  C   UNL     1     -10.547   5.495  72.204  1.00  0.00    -0.280 A  
HETATM   11  C   UNL     1      -9.114   5.105  70.315  1.00  0.00    -0.126 A  
HETATM   12  C   UNL     1     -10.535   4.133  72.513  1.00  0.00    -0.205 A  
HETATM   13  C   UNL     1      -9.081   3.741  70.644  1.00  0.00    -0.181 A  
HETATM   14 CL   UNL     1      -8.293   5.557  68.864  1.00  0.00    -0.101 Cl 
ENDBRANCH   7   8
BRANCH   7  15
HETATM   15  C   UNL     1     -10.428   8.419  71.941  1.00  0.00    -0.296 C  
BRANCH  15  16
HETATM   16  N   UNL     1     -11.765   8.920  71.715  1.00  0.00    -0.337 NA 
HETATM   17  N   UNL     1     -12.860   8.181  71.981  1.00  0.00    -0.328 NA 
HETATM   18  N   UNL     1     -13.315  10.345  71.503  1.00  0.00    -0.343 NA 
HETATM   19  C   UNL     1     -13.803   9.115  71.825  1.00  0.00    -0.366 A  
HETATM   20  N   UNL     1     -11.996  10.219  71.446  1.00  0.00    -0.359 NA 
ENDBRANCH  15  16
ENDBRANCH   7  15
ENDBRANCH   6   7
ENDBRANCH   2   6
TORSDOF 5
ENDMDL
MODEL      181
REMARK 921   NORMALIZED FREE ENERGY PREDICTED BY IDOCK:   -3.69 KCAL/MOL
REMARK 922        TOTAL FREE ENERGY PREDICTED BY IDOCK:   -5.57 KCAL/MOL
REMARK 923 INTER-LIGAND FREE ENERGY PREDICTED BY IDOCK:   -5.55 KCAL/MOL
REMARK 924 INTRA-LIGAND FREE ENERGY PREDICTED BY IDOCK:   -0.02 KCAL/MOL
REMARK 927      BINDING AFFINITY PREDICTED BY RF-SCORE:    0.00 PKD
ROOT
HETATM    1  N   UNL     1      -7.281  14.979  67.536  1.00  0.00    -0.190 N  
HETATM    2  C   UNL     1      -7.461  16.079  66.778  1.00  0.00    -0.183 C  
HETATM    3  H1  UNL     1      -7.899  14.167  67.534  1.00  0.00     0.000 HD 
HETATM    4  H2  UNL     1      -6.471  14.956  68.156  1.00  0.00     0.000 HD 
HETATM    5  O   UNL     1      -6.723  17.050  66.781  1.00  0.00    -0.188 OA 
ENDROOT
BRANCH   2   6
HETATM    6  O   UNL     1      -8.558  15.920  66.016  1.00  0.00    -0.307 OA 
BRANCH   6   7
HETATM    7  C   UNL     1      -9.863  15.971  66.654  1.00  0.00    -0.260 C  
BRANCH   7   8
HETATM    8  C   UNL     1     -10.598  14.665  66.313  1.00  0.00    -0.306 A  
HETATM    9  C   UNL     1     -11.947  12.218  65.805  1.00  0.00    -0.362 A  
HETATM   10  C   UNL     1     -10.494  13.557  67.185  1.00  0.00    -0.256 A  
HETATM   11  C   UNL     1     -11.433  14.512  65.189  1.00  0.00    -0.368 A  
HETATM   12  C   UNL     1     -11.162  12.355  66.940  1.00  0.00    -0.359 A  
HETATM   13  C   UNL     1     -12.080  13.294  64.931  1.00  0.00    -0.440 A  
HETATM   14 CL   UNL     1     -11.779  15.803  64.095  1.00  0.00    -0.237 Cl 
ENDBRANCH   7   8
BRANCH   7  15
HETATM   15  C   UNL     1     -10.598  17.270  66.283  1.00  0.00    -0.184 C  
BRANCH  15  16
HETATM   16  N   UNL     1     -10.128  18.425  67.014  1.00  0.00    -0.344 NA 
HETATM   17  N   UNL     1     -10.158  19.665  66.488  1.00  0.00    -0.421 NA 
HETATM   18  N   UNL     1      -9.650  19.624  68.692  1.00  0.00    -0.383 NA 
HETATM   19  C   UNL     1      -9.843  20.377  67.573  1.00  0.00    -0.424 A  
HETATM   20  N   UNL     1      -9.848  18.363  68.330  1.00  0.00    -0.339 NA 
ENDBRANCH  15  16
ENDBRANCH   7  15
ENDBRANCH   6   7
ENDBRANCH   2   6
TORSDOF 5
ENDMDL
MODEL      182
REMARK 921   NORMALIZED FREE ENERGY PREDICTED BY IDOCK:   -3.68 KCAL/MOL
REMARK 922        TOTAL FREE ENERGY PREDICTED BY IDOCK:   -5.56 KCAL/MOL
REMARK 923 INTER-LIGAND FREE ENERGY PREDICTED BY IDOCK:   -5.10 KCAL/MOL
REMARK 924 INTRA-LIGAND FREE ENERGY PREDICTED BY IDOCK:   -0.46 KCAL/MOL
REMARK 927      BINDING AFFINITY PREDICTED BY RF-SCORE:    0.00 PKD
ROOT
HETATM    1  N   UNL     1     -13.113   8.444  72.760  1.00  0.00    -0.625 N  
HETATM    2  C   UNL     1     -13.288   8.001  71.498  1.00  0.00    -0.290 C  
HETATM    3  H1  UNL     1     -12.244   8.835  73.121  1.00  0.00     0.000 HD 
HETATM    4  H2  UNL     1     -13.906   8.383  73.398  1.00  0.00     0.000 HD 
HETATM    5  O   UNL     1     -14.328   7.533  71.066  1.00  0.00    -0.283 OA 
ENDROOT
BRANCH   2   6
HETATM    6  O   UNL     1     -12.150   8.180  70.802  1.00  0.00    -0.209 OA 
BRANCH   6   7
HETATM    7  C   UNL     1     -11.238   9.234  71.217  1.00  0.00    -0.355 C  
BRANCH   7   8
HETATM    8  C   UNL     1     -11.420  10.413  70.248  1.00  0.00    -0.406 A  
HETATM    9  C   UNL     1     -11.731  12.514  68.363  1.00  0.00    -0.375 A  
HETATM   10  C   UNL     1     -10.854  10.348  68.954  1.00  0.00    -0.273 A  
HETATM   11  C   UNL     1     -12.179  11.560  70.553  1.00  0.00    -0.377 A  
HETATM   12  C   UNL     1     -11.011  11.378  68.024  1.00  0.00    -0.290 A  
HETATM   13  C   UNL     1     -12.311  12.605  69.625  1.00  0.00    -0.045 A  
HETATM   14 CL   UNL     1     -13.049  11.743  72.034  1.00  0.00    -0.537 Cl 
ENDBRANCH   7   8
BRANCH   7  15
HETATM   15  C   UNL     1      -9.806   8.690  71.350  1.00  0.00    -0.256 C  
BRANCH  15  16
HETATM   16  N   UNL     1      -9.622   7.396  70.733  1.00  0.00    -0.171 NA 
HETATM   17  N   UNL     1      -8.895   7.236  69.610  1.00  0.00    -0.141 NA 
HETATM   18  N   UNL     1      -9.480   5.288  70.600  1.00  0.00    -0.161 NA 
HETATM   19  C   UNL     1      -8.842   5.902  69.565  1.00  0.00    -0.123 A  
HETATM   20  N   UNL     1      -9.971   6.257  71.361  1.00  0.00    -0.184 NA 
ENDBRANCH  15  16
ENDBRANCH   7  15
ENDBRANCH   6   7
ENDBRANCH   2   6
TORSDOF 5
ENDMDL
MODEL      183
REMARK 921   NORMALIZED FREE ENERGY PREDICTED BY IDOCK:   -3.68 KCAL/MOL
REMARK 922        TOTAL FREE ENERGY PREDICTED BY IDOCK:   -5.55 KCAL/MOL
REMARK 923 INTER-LIGAND FREE ENERGY PREDICTED BY IDOCK:   -4.82 KCAL/MOL
REMARK 924 INTRA-LIGAND FREE ENERGY PREDICTED BY IDOCK:   -0.74 KCAL/MOL
REMARK 927      BINDING AFFINITY PREDICTED BY RF-SCORE:    0.00 PKD
ROOT
HETATM    1  N   UNL     1     -11.147   6.803  68.527  1.00  0.00    -0.502 N  
HETATM    2  C   UNL     1     -10.529   7.848  67.938  1.00  0.00    -0.198 C  
HETATM    3  H1  UNL     1     -11.185   6.646  69.534  1.00  0.00     0.000 HD 
HETATM    4  H2  UNL     1     -11.607   6.122  67.923  1.00  0.00     0.000 HD 
HETATM    5  O   UNL     1     -10.483   8.036  66.735  1.00  0.00    -0.330 OA 
ENDROOT
BRANCH   2   6
HETATM    6  O   UNL     1     -10.002   8.644  68.886  1.00  0.00    -0.179 OA 
BRANCH   6   7
HETATM    7  C   UNL     1     -10.882   9.555  69.600  1.00  0.00    -0.235 C  
BRANCH   7   8
HETATM    8  C   UNL     1     -10.745  10.940  68.947  1.00  0.00    -0.252 A  
HETATM    9  C   UNL     1     -10.609  13.525  67.778  1.00  0.00    -0.252 A  
HETATM   10  C   UNL     1     -11.906  11.669  68.605  1.00  0.00    -0.370 A  
HETATM   11  C   UNL     1      -9.507  11.569  68.712  1.00  0.00    -0.089 A  
HETATM   12  C   UNL     1     -11.841  12.943  68.036  1.00  0.00    -0.390 A  
HETATM   13  C   UNL     1      -9.445  12.838  68.114  1.00  0.00    -0.219 A  
HETATM   14 CL   UNL     1      -7.997  10.881  69.192  1.00  0.00    -0.138 Cl 
ENDBRANCH   7   8
BRANCH   7  15
HETATM   15  C   UNL     1     -10.612   9.497  71.113  1.00  0.00    -0.318 C  
BRANCH  15  16
HETATM   16  N   UNL     1     -11.146   8.313  71.747  1.00  0.00    -0.261 NA 
HETATM   17  N   UNL     1     -12.327   7.777  71.380  1.00  0.00    -0.319 NA 
HETATM   18  N   UNL     1     -11.135   6.474  72.794  1.00  0.00    -0.253 NA 
HETATM   19  C   UNL     1     -12.277   6.633  72.069  1.00  0.00    -0.293 A  
HETATM   20  N   UNL     1     -10.400   7.555  72.573  1.00  0.00    -0.221 NA 
ENDBRANCH  15  16
ENDBRANCH   7  15
ENDBRANCH   6   7
ENDBRANCH   2   6
TORSDOF 5
ENDMDL
MODEL      184
REMARK 921   NORMALIZED FREE ENERGY PREDICTED BY IDOCK:   -3.67 KCAL/MOL
REMARK 922        TOTAL FREE ENERGY PREDICTED BY IDOCK:   -5.54 KCAL/MOL
REMARK 923 INTER-LIGAND FREE ENERGY PREDICTED BY IDOCK:   -4.24 KCAL/MOL
REMARK 924 INTRA-LIGAND FREE ENERGY PREDICTED BY IDOCK:   -1.30 KCAL/MOL
REMARK 927      BINDING AFFINITY PREDICTED BY RF-SCORE:    0.00 PKD
ROOT
HETATM    1  N   UNL     1     -10.753  10.585  69.047  1.00  0.00    -0.209 N  
HETATM    2  C   UNL     1     -11.022   9.912  70.185  1.00  0.00    -0.301 C  
HETATM    3  H1  UNL     1     -10.020  10.332  68.385  1.00  0.00     0.000 HD 
HETATM    4  H2  UNL     1     -11.323  11.403  68.834  1.00  0.00     0.000 HD 
HETATM    5  O   UNL     1     -11.898  10.214  70.977  1.00  0.00    -0.328 OA 
ENDROOT
BRANCH   2   6
HETATM    6  O   UNL     1     -10.190   8.860  70.286  1.00  0.00    -0.186 OA 
BRANCH   6   7
HETATM    7  C   UNL     1     -10.635   7.568  69.790  1.00  0.00    -0.241 C  
BRANCH   7   8
HETATM    8  C   UNL     1     -10.635   6.591  70.976  1.00  0.00    -0.275 A  
HETATM    9  C   UNL     1     -10.512   4.797  73.174  1.00  0.00    -0.257 A  
HETATM   10  C   UNL     1      -9.443   5.919  71.328  1.00  0.00    -0.181 A  
HETATM   11  C   UNL     1     -11.761   6.356  71.789  1.00  0.00    -0.324 A  
HETATM   12  C   UNL     1      -9.378   5.041  72.413  1.00  0.00    -0.157 A  
HETATM   13  C   UNL     1     -11.700   5.452  72.862  1.00  0.00    -0.232 A  
HETATM   14 CL   UNL     1     -13.258   7.193  71.585  1.00  0.00    -0.428 Cl 
ENDBRANCH   7   8
BRANCH   7  15
HETATM   15  C   UNL     1      -9.805   7.141  68.568  1.00  0.00    -0.153 C  
BRANCH  15  16
HETATM   16  N   UNL     1      -9.571   8.214  67.629  1.00  0.00    -0.148 NA 
HETATM   17  N   UNL     1      -8.352   8.764  67.461  1.00  0.00    -0.109 NA 
HETATM   18  N   UNL     1      -9.868   9.421  65.916  1.00  0.00    -0.297 NA 
HETATM   19  C   UNL     1      -8.592   9.518  66.384  1.00  0.00    -0.134 A  
HETATM   20  N   UNL     1     -10.494   8.567  66.714  1.00  0.00    -0.285 NA 
ENDBRANCH  15  16
ENDBRANCH   7  15
ENDBRANCH   6   7
ENDBRANCH   2   6
TORSDOF 5
ENDMDL
MODEL      185
REMARK 921   NORMALIZED FREE ENERGY PREDICTED BY IDOCK:   -3.66 KCAL/MOL
REMARK 922        TOTAL FREE ENERGY PREDICTED BY IDOCK:   -5.53 KCAL/MOL
REMARK 923 INTER-LIGAND FREE ENERGY PREDICTED BY IDOCK:   -5.39 KCAL/MOL
REMARK 924 INTRA-LIGAND FREE ENERGY PREDICTED BY IDOCK:   -0.15 KCAL/MOL
REMARK 927      BINDING AFFINITY PREDICTED BY RF-SCORE:    0.00 PKD
ROOT
HETATM    1  N   UNL     1      -7.304  15.870  67.009  1.00  0.00    -0.218 N  
HETATM    2  C   UNL     1      -7.668  14.574  66.934  1.00  0.00     0.258 C  
HETATM    3  H1  UNL     1      -7.814  16.641  66.580  1.00  0.00     0.000 HD 
HETATM    4  H2  UNL     1      -6.457  16.095  67.532  1.00  0.00     0.000 HD 
HETATM    5  O   UNL     1      -7.058  13.652  67.447  1.00  0.00    -0.168 OA 
ENDROOT
BRANCH   2   6
HETATM    6  O   UNL     1      -8.810  14.474  66.229  1.00  0.00    -0.129 OA 
BRANCH   6   7
HETATM    7  C   UNL     1      -9.831  15.494  66.405  1.00  0.00    -0.278 C  
BRANCH   7   8
HETATM    8  C   UNL     1     -10.730  15.053  67.571  1.00  0.00    -0.284 A  
HETATM    9  C   UNL     1     -12.358  14.121  69.703  1.00  0.00    -0.304 A  
HETATM   10  C   UNL     1     -11.174  13.714  67.644  1.00  0.00    -0.303 A  
HETATM   11  C   UNL     1     -11.105  15.905  68.628  1.00  0.00    -0.337 A  
HETATM   12  C   UNL     1     -11.970  13.251  68.694  1.00  0.00    -0.345 A  
HETATM   13  C   UNL     1     -11.928  15.444  69.669  1.00  0.00    -0.366 A  
HETATM   14 CL   UNL     1     -10.541  17.532  68.769  1.00  0.00    -0.301 Cl 
ENDBRANCH   7   8
BRANCH   7  15
HETATM   15  C   UNL     1     -10.547  15.780  65.076  1.00  0.00    -0.371 C  
BRANCH  15  16
HETATM   16  N   UNL     1     -11.048  14.591  64.425  1.00  0.00    -0.245 NA 
HETATM   17  N   UNL     1     -10.239  13.569  64.081  1.00  0.00    -0.226 NA 
HETATM   18  N   UNL     1     -12.441  13.097  63.870  1.00  0.00    -0.678 NA 
HETATM   19  C   UNL     1     -11.157  12.663  63.733  1.00  0.00    -0.453 A  
HETATM   20  N   UNL     1     -12.367  14.338  64.331  1.00  0.00    -0.638 NA 
ENDBRANCH  15  16
ENDBRANCH   7  15
ENDBRANCH   6   7
ENDBRANCH   2   6
TORSDOF 5
ENDMDL
MODEL      186
REMARK 921   NORMALIZED FREE ENERGY PREDICTED BY IDOCK:   -3.66 KCAL/MOL
REMARK 922        TOTAL FREE ENERGY PREDICTED BY IDOCK:   -5.53 KCAL/MOL
REMARK 923 INTER-LIGAND FREE ENERGY PREDICTED BY IDOCK:   -4.93 KCAL/MOL
REMARK 924 INTRA-LIGAND FREE ENERGY PREDICTED BY IDOCK:   -0.60 KCAL/MOL
REMARK 927      BINDING AFFINITY PREDICTED BY RF-SCORE:    0.00 PKD
ROOT
HETATM    1  N   UNL     1     -10.869  10.459  70.479  1.00  0.00    -0.429 N  
HETATM    2  C   UNL     1     -11.926  11.259  70.231  1.00  0.00    -0.379 C  
HETATM    3  H1  UNL     1     -10.119  10.269  69.815  1.00  0.00     0.000 HD 
HETATM    4  H2  UNL     1     -10.816  10.013  71.395  1.00  0.00     0.000 HD 
HETATM    5  O   UNL     1     -12.823  11.486  71.025  1.00  0.00    -0.336 OA 
ENDROOT
BRANCH   2   6
HETATM    6  O   UNL     1     -11.815  11.772  68.992  1.00  0.00    -0.295 OA 
BRANCH   6   7
HETATM    7  C   UNL     1     -10.625  11.467  68.216  1.00  0.00    -0.200 C  
BRANCH   7   8
HETATM    8  C   UNL     1     -10.108  12.787  67.622  1.00  0.00    -0.220 A  
HETATM    9  C   UNL     1      -9.036  15.196  66.565  1.00  0.00    -0.328 A  
HETATM   10  C   UNL     1      -8.882  13.326  68.077  1.00  0.00    -0.190 A  
HETATM   11  C   UNL     1     -10.763  13.485  66.589  1.00  0.00    -0.282 A  
HETATM   12  C   UNL     1      -8.351  14.506  67.554  1.00  0.00    -0.201 A  
HETATM   13  C   UNL     1     -10.240  14.687  66.085  1.00  0.00    -0.313 A  
HETATM   14 CL   UNL     1     -12.197  12.900  65.824  1.00  0.00    -0.513 Cl 
ENDBRANCH   7   8
BRANCH   7  15
HETATM   15  C   UNL     1     -10.909  10.343  67.206  1.00  0.00    -0.264 C  
BRANCH  15  16
HETATM   16  N   UNL     1     -10.191   9.121  67.489  1.00  0.00    -0.228 NA 
HETATM   17  N   UNL     1      -9.220   9.062  68.421  1.00  0.00    -0.136 NA 
HETATM   18  N   UNL     1      -9.843   7.038  67.626  1.00  0.00    -0.142 NA 
HETATM   19  C   UNL     1      -9.029   7.740  68.463  1.00  0.00    -0.133 A  
HETATM   20  N   UNL     1     -10.602   7.932  67.008  1.00  0.00    -0.345 NA 
ENDBRANCH  15  16
ENDBRANCH   7  15
ENDBRANCH   6   7
ENDBRANCH   2   6
TORSDOF 5
ENDMDL
MODEL      187
REMARK 921   NORMALIZED FREE ENERGY PREDICTED BY IDOCK:   -3.65 KCAL/MOL
REMARK 922        TOTAL FREE ENERGY PREDICTED BY IDOCK:   -5.52 KCAL/MOL
REMARK 923 INTER-LIGAND FREE ENERGY PREDICTED BY IDOCK:   -5.22 KCAL/MOL
REMARK 924 INTRA-LIGAND FREE ENERGY PREDICTED BY IDOCK:   -0.30 KCAL/MOL
REMARK 927      BINDING AFFINITY PREDICTED BY RF-SCORE:    0.00 PKD
ROOT
HETATM    1  N   UNL     1     -11.219   7.348  67.482  1.00  0.00    -0.509 N  
HETATM    2  C   UNL     1     -10.514   8.443  67.130  1.00  0.00    -0.310 C  
HETATM    3  H1  UNL     1     -11.851   7.299  68.281  1.00  0.00     0.000 HD 
HETATM    4  H2  UNL     1     -11.113   6.511  66.909  1.00  0.00     0.000 HD 
HETATM    5  O   UNL     1      -9.759   8.502  66.175  1.00  0.00    -0.241 OA 
ENDROOT
BRANCH   2   6
HETATM    6  O   UNL     1     -10.796   9.446  67.982  1.00  0.00    -0.220 OA 
BRANCH   6   7
HETATM    7  C   UNL     1     -10.686   9.200  69.410  1.00  0.00    -0.198 C  
BRANCH   7   8
HETATM    8  C   UNL     1     -11.530  10.263  70.131  1.00  0.00    -0.383 A  
HETATM    9  C   UNL     1     -13.095  12.152  71.563  1.00  0.00    -0.357 A  
HETATM   10  C   UNL     1     -12.334   9.889  71.231  1.00  0.00    -0.478 A  
HETATM   11  C   UNL     1     -11.512  11.631  69.793  1.00  0.00    -0.264 A  
HETATM   12  C   UNL     1     -13.100  10.817  71.940  1.00  0.00    -0.557 A  
HETATM   13  C   UNL     1     -12.304  12.556  70.491  1.00  0.00    -0.345 A  
HETATM   14 CL   UNL     1     -10.485  12.281  68.566  1.00  0.00    -0.241 Cl 
ENDBRANCH   7   8
BRANCH   7  15
HETATM   15  C   UNL     1      -9.210   9.116  69.833  1.00  0.00    -0.183 C  
BRANCH  15  16
HETATM   16  N   UNL     1      -8.989   8.265  70.981  1.00  0.00    -0.146 NA 
HETATM   17  N   UNL     1      -8.764   6.942  70.857  1.00  0.00    -0.140 NA 
HETATM   18  N   UNL     1      -8.412   7.734  72.947  1.00  0.00    -0.139 NA 
HETATM   19  C   UNL     1      -8.417   6.655  72.115  1.00  0.00    -0.112 A  
HETATM   20  N   UNL     1      -8.769   8.775  72.207  1.00  0.00    -0.400 NA 
ENDBRANCH  15  16
ENDBRANCH   7  15
ENDBRANCH   6   7
ENDBRANCH   2   6
TORSDOF 5
ENDMDL
MODEL      188
REMARK 921   NORMALIZED FREE ENERGY PREDICTED BY IDOCK:   -3.64 KCAL/MOL
REMARK 922        TOTAL FREE ENERGY PREDICTED BY IDOCK:   -5.51 KCAL/MOL
REMARK 923 INTER-LIGAND FREE ENERGY PREDICTED BY IDOCK:   -4.96 KCAL/MOL
REMARK 924 INTRA-LIGAND FREE ENERGY PREDICTED BY IDOCK:   -0.56 KCAL/MOL
REMARK 927      BINDING AFFINITY PREDICTED BY RF-SCORE:    0.00 PKD
ROOT
HETATM    1  N   UNL     1     -10.388  15.070  69.857  1.00  0.00    -0.450 N  
HETATM    2  C   UNL     1     -11.049  15.175  68.686  1.00  0.00    -0.271 C  
HETATM    3  H1  UNL     1      -9.603  14.443  70.024  1.00  0.00     0.000 HD 
HETATM    4  H2  UNL     1     -10.697  15.660  70.630  1.00  0.00     0.000 HD 
HETATM    5  O   UNL     1     -11.989  15.925  68.486  1.00  0.00    -0.306 OA 
ENDROOT
BRANCH   2   6
HETATM    6  O   UNL     1     -10.493  14.344  67.786  1.00  0.00    -0.243 OA 
BRANCH   6   7
HETATM    7  C   UNL     1     -10.190  14.855  66.460  1.00  0.00    -0.275 C  
BRANCH   7   8
HETATM    8  C   UNL     1     -10.792  13.879  65.437  1.00  0.00    -0.321 A  
HETATM    9  C   UNL     1     -11.924  12.171  63.469  1.00  0.00    -0.619 A  
HETATM   10  C   UNL     1     -11.629  14.371  64.410  1.00  0.00    -0.346 A  
HETATM   11  C   UNL     1     -10.514  12.498  65.423  1.00  0.00    -0.282 A  
HETATM   12  C   UNL     1     -12.182  13.534  63.438  1.00  0.00    -0.338 A  
HETATM   13  C   UNL     1     -11.094  11.655  64.461  1.00  0.00    -0.365 A  
HETATM   14 CL   UNL     1      -9.408  11.752  66.519  1.00  0.00    -0.209 Cl 
ENDBRANCH   7   8
BRANCH   7  15
HETATM   15  C   UNL     1      -8.684  15.132  66.316  1.00  0.00    -0.090 C  
BRANCH  15  16
HETATM   16  N   UNL     1      -8.025  15.394  67.575  1.00  0.00    -0.155 NA 
HETATM   17  N   UNL     1      -7.897  16.641  68.069  1.00  0.00    -0.166 NA 
HETATM   18  N   UNL     1      -7.316  15.018  69.534  1.00  0.00    -0.197 NA 
HETATM   19  C   UNL     1      -7.441  16.353  69.291  1.00  0.00    -0.202 A  
HETATM   20  N   UNL     1      -7.707  14.401  68.427  1.00  0.00    -0.123 NA 
ENDBRANCH  15  16
ENDBRANCH   7  15
ENDBRANCH   6   7
ENDBRANCH   2   6
TORSDOF 5
ENDMDL
MODEL      189
REMARK 921   NORMALIZED FREE ENERGY PREDICTED BY IDOCK:   -3.64 KCAL/MOL
REMARK 922        TOTAL FREE ENERGY PREDICTED BY IDOCK:   -5.51 KCAL/MOL
REMARK 923 INTER-LIGAND FREE ENERGY PREDICTED BY IDOCK:   -4.87 KCAL/MOL
REMARK 924 INTRA-LIGAND FREE ENERGY PREDICTED BY IDOCK:   -0.64 KCAL/MOL
REMARK 927      BINDING AFFINITY PREDICTED BY RF-SCORE:    0.00 PKD
ROOT
HETATM    1  N   UNL     1      -9.521  12.049  65.370  1.00  0.00    -0.419 N  
HETATM    2  C   UNL     1     -10.192  10.927  65.702  1.00  0.00    -0.263 C  
HETATM    3  H1  UNL     1      -9.512  12.903  65.927  1.00  0.00     0.000 HD 
HETATM    4  H2  UNL     1      -8.987  12.043  64.502  1.00  0.00     0.000 HD 
HETATM    5  O   UNL     1     -10.204   9.905  65.037  1.00  0.00    -0.221 OA 
ENDROOT
BRANCH   2   6
HETATM    6  O   UNL     1     -10.816  11.114  66.880  1.00  0.00    -0.262 OA 
BRANCH   6   7
HETATM    7  C   UNL     1     -10.107  11.806  67.943  1.00  0.00    -0.186 C  
BRANCH   7   8
HETATM    8  C   UNL     1      -9.858  10.794  69.071  1.00  0.00    -0.208 A  
HETATM    9  C   UNL     1      -9.276   8.952  71.154  1.00  0.00    -0.324 A  
HETATM   10  C   UNL     1      -8.558  10.278  69.274  1.00  0.00    -0.175 A  
HETATM   11  C   UNL     1     -10.854  10.377  69.976  1.00  0.00    -0.289 A  
HETATM   12  C   UNL     1      -8.268   9.377  70.301  1.00  0.00    -0.194 A  
HETATM   13  C   UNL     1     -10.566   9.450  70.990  1.00  0.00    -0.400 A  
HETATM   14 CL   UNL     1     -12.462  11.008  69.958  1.00  0.00    -0.346 Cl 
ENDBRANCH   7   8
BRANCH   7  15
HETATM   15  C   UNL     1     -10.851  13.090  68.345  1.00  0.00    -0.258 C  
BRANCH  15  16
HETATM   16  N   UNL     1     -10.498  14.236  67.538  1.00  0.00    -0.252 NA 
HETATM   17  N   UNL     1     -11.195  14.576  66.435  1.00  0.00    -0.335 NA 
HETATM   18  N   UNL     1      -9.689  16.137  67.078  1.00  0.00    -0.226 NA 
HETATM   19  C   UNL     1     -10.645  15.767  66.180  1.00  0.00    -0.313 A  
HETATM   20  N   UNL     1      -9.607  15.152  67.962  1.00  0.00    -0.202 NA 
ENDBRANCH  15  16
ENDBRANCH   7  15
ENDBRANCH   6   7
ENDBRANCH   2   6
TORSDOF 5
ENDMDL
MODEL      190
REMARK 921   NORMALIZED FREE ENERGY PREDICTED BY IDOCK:   -3.64 KCAL/MOL
REMARK 922        TOTAL FREE ENERGY PREDICTED BY IDOCK:   -5.50 KCAL/MOL
REMARK 923 INTER-LIGAND FREE ENERGY PREDICTED BY IDOCK:   -5.34 KCAL/MOL
REMARK 924 INTRA-LIGAND FREE ENERGY PREDICTED BY IDOCK:   -0.17 KCAL/MOL
REMARK 927      BINDING AFFINITY PREDICTED BY RF-SCORE:    0.00 PKD
ROOT
HETATM    1  N   UNL     1     -11.455  14.673  66.418  1.00  0.00    -0.354 N  
HETATM    2  C   UNL     1     -10.509  15.417  65.809  1.00  0.00    -0.355 C  
HETATM    3  H1  UNL     1     -11.358  14.260  67.345  1.00  0.00     0.000 HD 
HETATM    4  H2  UNL     1     -12.328  14.513  65.916  1.00  0.00     0.000 HD 
HETATM    5  O   UNL     1     -10.624  15.911  64.700  1.00  0.00    -0.525 OA 
ENDROOT
BRANCH   2   6
HETATM    6  O   UNL     1      -9.445  15.538  66.624  1.00  0.00    -0.229 OA 
BRANCH   6   7
HETATM    7  C   UNL     1      -9.610  16.241  67.886  1.00  0.00    -0.227 C  
BRANCH   7   8
HETATM    8  C   UNL     1      -9.600  17.747  67.583  1.00  0.00    -0.266 A  
HETATM    9  C   UNL     1      -9.640  20.552  67.134  1.00  0.00    -0.570 A  
HETATM   10  C   UNL     1     -10.513  18.599  68.245  1.00  0.00    -0.315 A  
HETATM   11  C   UNL     1      -8.680  18.359  66.709  1.00  0.00    -0.277 A  
HETATM   12  C   UNL     1     -10.531  19.979  68.030  1.00  0.00    -0.448 A  
HETATM   13  C   UNL     1      -8.719  19.743  66.474  1.00  0.00    -0.408 A  
HETATM   14 CL   UNL     1      -7.412  17.489  65.922  1.00  0.00    -0.260 Cl 
ENDBRANCH   7   8
BRANCH   7  15
HETATM   15  C   UNL     1      -8.576  15.756  68.915  1.00  0.00    -0.220 C  
BRANCH  15  16
HETATM   16  N   UNL     1      -7.752  14.670  68.435  1.00  0.00    -0.118 NA 
HETATM   17  N   UNL     1      -8.222  13.412  68.322  1.00  0.00    -0.156 NA 
HETATM   18  N   UNL     1      -6.190  13.713  67.375  1.00  0.00    -0.321 NA 
HETATM   19  C   UNL     1      -7.206  12.851  67.662  1.00  0.00    -0.147 A  
HETATM   20  N   UNL     1      -6.553  14.891  67.864  1.00  0.00    -0.144 NA 
ENDBRANCH  15  16
ENDBRANCH   7  15
ENDBRANCH   6   7
ENDBRANCH   2   6
TORSDOF 5
ENDMDL
MODEL      191
REMARK 921   NORMALIZED FREE ENERGY PREDICTED BY IDOCK:   -3.63 KCAL/MOL
REMARK 922        TOTAL FREE ENERGY PREDICTED BY IDOCK:   -5.49 KCAL/MOL
REMARK 923 INTER-LIGAND FREE ENERGY PREDICTED BY IDOCK:   -5.49 KCAL/MOL
REMARK 924 INTRA-LIGAND FREE ENERGY PREDICTED BY IDOCK:   -0.00 KCAL/MOL
REMARK 927      BINDING AFFINITY PREDICTED BY RF-SCORE:    0.00 PKD
ROOT
HETATM    1  N   UNL     1     -11.118   5.771  66.257  1.00  0.00    -0.755 N  
HETATM    2  C   UNL     1     -10.864   6.563  67.319  1.00  0.00    -0.390 C  
HETATM    3  H1  UNL     1     -10.798   5.958  65.307  1.00  0.00     0.000 HD 
HETATM    4  H2  UNL     1     -11.668   4.927  66.415  1.00  0.00     0.000 HD 
HETATM    5  O   UNL     1     -11.246   6.340  68.456  1.00  0.00    -0.352 OA 
ENDROOT
BRANCH   2   6
HETATM    6  O   UNL     1     -10.114   7.608  66.926  1.00  0.00    -0.232 OA 
BRANCH   6   7
HETATM    7  C   UNL     1     -10.457   8.935  67.411  1.00  0.00    -0.277 C  
BRANCH   7   8
HETATM    8  C   UNL     1     -10.394   9.897  66.214  1.00  0.00    -0.233 A  
HETATM    9  C   UNL     1     -10.317  11.768  64.079  1.00  0.00    -0.401 A  
HETATM   10  C   UNL     1     -11.141  11.096  66.242  1.00  0.00    -0.176 A  
HETATM   11  C   UNL     1      -9.576   9.684  65.087  1.00  0.00    -0.254 A  
HETATM   12  C   UNL     1     -11.100  12.020  65.195  1.00  0.00    -0.369 A  
HETATM   13  C   UNL     1      -9.558  10.602  64.025  1.00  0.00    -0.351 A  
HETATM   14 CL   UNL     1      -8.497   8.342  64.950  1.00  0.00    -0.165 Cl 
ENDBRANCH   7   8
BRANCH   7  15
HETATM   15  C   UNL     1      -9.587   9.311  68.622  1.00  0.00    -0.147 C  
BRANCH  15  16
HETATM   16  N   UNL     1     -10.286   9.216  69.883  1.00  0.00    -0.195 NA 
HETATM   17  N   UNL     1      -9.746   8.603  70.955  1.00  0.00    -0.192 NA 
HETATM   18  N   UNL     1     -11.642   9.746  71.419  1.00  0.00    -0.382 NA 
HETATM   19  C   UNL     1     -10.636   8.956  71.887  1.00  0.00    -0.349 A  
HETATM   20  N   UNL     1     -11.406   9.923  70.126  1.00  0.00    -0.266 NA 
ENDBRANCH  15  16
ENDBRANCH   7  15
ENDBRANCH   6   7
ENDBRANCH   2   6
TORSDOF 5
ENDMDL
MODEL      192
REMARK 921   NORMALIZED FREE ENERGY PREDICTED BY IDOCK:   -3.62 KCAL/MOL
REMARK 922        TOTAL FREE ENERGY PREDICTED BY IDOCK:   -5.48 KCAL/MOL
REMARK 923 INTER-LIGAND FREE ENERGY PREDICTED BY IDOCK:   -4.83 KCAL/MOL
REMARK 924 INTRA-LIGAND FREE ENERGY PREDICTED BY IDOCK:   -0.66 KCAL/MOL
REMARK 927      BINDING AFFINITY PREDICTED BY RF-SCORE:    0.00 PKD
ROOT
HETATM    1  N   UNL     1     -11.185   6.109  66.609  1.00  0.00    -0.758 N  
HETATM    2  C   UNL     1     -10.664   6.249  67.845  1.00  0.00    -0.305 C  
HETATM    3  H1  UNL     1     -11.542   6.877  66.040  1.00  0.00     0.000 HD 
HETATM    4  H2  UNL     1     -11.226   5.169  66.215  1.00  0.00     0.000 HD 
HETATM    5  O   UNL     1     -10.238   5.331  68.525  1.00  0.00    -0.174 OA 
ENDROOT
BRANCH   2   6
HETATM    6  O   UNL     1     -10.674   7.551  68.186  1.00  0.00    -0.174 OA 
BRANCH   6   7
HETATM    7  C   UNL     1     -10.001   7.956  69.409  1.00  0.00    -0.189 C  
BRANCH   7   8
HETATM    8  C   UNL     1     -10.999   8.781  70.237  1.00  0.00    -0.255 A  
HETATM    9  C   UNL     1     -12.844  10.391  71.676  1.00  0.00    -0.579 A  
HETATM   10  C   UNL     1     -11.135  10.166  69.992  1.00  0.00    -0.368 A  
HETATM   11  C   UNL     1     -11.850   8.222  71.211  1.00  0.00    -0.288 A  
HETATM   12  C   UNL     1     -12.045  10.959  70.694  1.00  0.00    -0.468 A  
HETATM   13  C   UNL     1     -12.745   9.027  71.934  1.00  0.00    -0.450 A  
HETATM   14 CL   UNL     1     -11.913   6.528  71.541  1.00  0.00    -0.387 Cl 
ENDBRANCH   7   8
BRANCH   7  15
HETATM   15  C   UNL     1      -8.664   8.645  69.090  1.00  0.00    -0.136 C  
BRANCH  15  16
HETATM   16  N   UNL     1      -7.552   8.122  69.851  1.00  0.00    -0.087 NA 
HETATM   17  N   UNL     1      -6.616   8.925  70.393  1.00  0.00    -0.041 NA 
HETATM   18  N   UNL     1      -6.475   6.773  71.077  1.00  0.00    -0.048 NA 
HETATM   19  C   UNL     1      -5.962   8.033  71.143  1.00  0.00    -0.034 A  
HETATM   20  N   UNL     1      -7.511   6.837  70.252  1.00  0.00    -0.088 NA 
ENDBRANCH  15  16
ENDBRANCH   7  15
ENDBRANCH   6   7
ENDBRANCH   2   6
TORSDOF 5
ENDMDL
MODEL      193
REMARK 921   NORMALIZED FREE ENERGY PREDICTED BY IDOCK:   -3.62 KCAL/MOL
REMARK 922        TOTAL FREE ENERGY PREDICTED BY IDOCK:   -5.48 KCAL/MOL
REMARK 923 INTER-LIGAND FREE ENERGY PREDICTED BY IDOCK:   -5.10 KCAL/MOL
REMARK 924 INTRA-LIGAND FREE ENERGY PREDICTED BY IDOCK:   -0.38 KCAL/MOL
REMARK 927      BINDING AFFINITY PREDICTED BY RF-SCORE:    0.00 PKD
ROOT
HETATM    1  N   UNL     1     -11.391  12.708  69.866  1.00  0.00    -0.505 N  
HETATM    2  C   UNL     1     -11.222  11.724  68.960  1.00  0.00    -0.265 C  
HETATM    3  H1  UNL     1     -10.647  13.320  70.202  1.00  0.00     0.000 HD 
HETATM    4  H2  UNL     1     -12.328  12.849  70.244  1.00  0.00     0.000 HD 
HETATM    5  O   UNL     1     -12.110  10.991  68.559  1.00  0.00    -0.573 OA 
ENDROOT
BRANCH   2   6
HETATM    6  O   UNL     1      -9.936  11.702  68.562  1.00  0.00    -0.193 OA 
BRANCH   6   7
HETATM    7  C   UNL     1      -9.646  11.726  67.138  1.00  0.00    -0.181 C  
BRANCH   7   8
HETATM    8  C   UNL     1      -8.119  11.651  66.975  1.00  0.00    -0.164 A  
HETATM    9  C   UNL     1      -5.316  11.440  66.572  1.00  0.00    -0.132 A  
HETATM   10  C   UNL     1      -7.546  10.592  66.236  1.00  0.00    -0.133 A  
HETATM   11  C   UNL     1      -7.235  12.625  67.479  1.00  0.00    -0.155 A  
HETATM   12  C   UNL     1      -6.169  10.489  66.031  1.00  0.00    -0.123 A  
HETATM   13  C   UNL     1      -5.848  12.503  67.295  1.00  0.00    -0.101 A  
HETATM   14 CL   UNL     1      -7.772  14.053  68.288  1.00  0.00    -0.130 Cl 
ENDBRANCH   7   8
BRANCH   7  15
HETATM   15  C   UNL     1     -10.335  12.924  66.464  1.00  0.00    -0.264 C  
BRANCH  15  16
HETATM   16  N   UNL     1     -11.075  12.566  65.275  1.00  0.00    -0.289 NA 
HETATM   17  N   UNL     1     -12.421  12.503  65.263  1.00  0.00    -0.647 NA 
HETATM   18  N   UNL     1     -11.484  12.352  63.210  1.00  0.00    -0.417 NA 
HETATM   19  C   UNL     1     -12.627  12.358  63.951  1.00  0.00    -0.427 A  
HETATM   20  N   UNL     1     -10.484  12.500  64.067  1.00  0.00    -0.399 NA 
ENDBRANCH  15  16
ENDBRANCH   7  15
ENDBRANCH   6   7
ENDBRANCH   2   6
TORSDOF 5
ENDMDL
MODEL      194
REMARK 921   NORMALIZED FREE ENERGY PREDICTED BY IDOCK:   -3.61 KCAL/MOL
REMARK 922        TOTAL FREE ENERGY PREDICTED BY IDOCK:   -5.47 KCAL/MOL
REMARK 923 INTER-LIGAND FREE ENERGY PREDICTED BY IDOCK:   -4.05 KCAL/MOL
REMARK 924 INTRA-LIGAND FREE ENERGY PREDICTED BY IDOCK:   -1.42 KCAL/MOL
REMARK 927      BINDING AFFINITY PREDICTED BY RF-SCORE:    0.00 PKD
ROOT
HETATM    1  N   UNL     1      -7.738   7.666  67.882  1.00  0.00    -0.113 N  
HETATM    2  C   UNL     1      -8.188   8.799  68.459  1.00  0.00    -0.117 C  
HETATM    3  H1  UNL     1      -8.038   6.726  68.140  1.00  0.00     0.000 HD 
HETATM    4  H2  UNL     1      -7.048   7.756  67.136  1.00  0.00     0.000 HD 
HETATM    5  O   UNL     1      -7.829   9.923  68.151  1.00  0.00    -0.085 OA 
ENDROOT
BRANCH   2   6
HETATM    6  O   UNL     1      -9.100   8.487  69.399  1.00  0.00    -0.148 OA 
BRANCH   6   7
HETATM    7  C   UNL     1     -10.493   8.362  69.004  1.00  0.00    -0.201 C  
BRANCH   7   8
HETATM    8  C   UNL     1     -11.280   9.471  69.720  1.00  0.00    -0.173 A  
HETATM    9  C   UNL     1     -12.705  11.466  71.154  1.00  0.00    -0.479 A  
HETATM   10  C   UNL     1     -11.743   9.259  71.039  1.00  0.00    -0.378 A  
HETATM   11  C   UNL     1     -11.529  10.737  69.155  1.00  0.00    -0.298 A  
HETATM   12  C   UNL     1     -12.439  10.241  71.748  1.00  0.00    -0.431 A  
HETATM   13  C   UNL     1     -12.252  11.712  69.860  1.00  0.00    -0.310 A  
HETATM   14 CL   UNL     1     -10.919  11.212  67.610  1.00  0.00    -0.297 Cl 
ENDBRANCH   7   8
BRANCH   7  15
HETATM   15  C   UNL     1     -10.995   6.927  69.234  1.00  0.00    -0.221 C  
BRANCH  15  16
HETATM   16  N   UNL     1     -10.324   5.944  68.414  1.00  0.00    -0.189 NA 
HETATM   17  N   UNL     1     -10.465   5.915  67.074  1.00  0.00    -0.246 NA 
HETATM   18  N   UNL     1      -8.841   4.544  67.849  1.00  0.00    -0.104 NA 
HETATM   19  C   UNL     1      -9.523   5.018  66.769  1.00  0.00    -0.144 A  
HETATM   20  N   UNL     1      -9.351   5.155  68.909  1.00  0.00    -0.118 NA 
ENDBRANCH  15  16
ENDBRANCH   7  15
ENDBRANCH   6   7
ENDBRANCH   2   6
TORSDOF 5
ENDMDL
MODEL      195
REMARK 921   NORMALIZED FREE ENERGY PREDICTED BY IDOCK:   -3.60 KCAL/MOL
REMARK 922        TOTAL FREE ENERGY PREDICTED BY IDOCK:   -5.46 KCAL/MOL
REMARK 923 INTER-LIGAND FREE ENERGY PREDICTED BY IDOCK:   -5.03 KCAL/MOL
REMARK 924 INTRA-LIGAND FREE ENERGY PREDICTED BY IDOCK:   -0.43 KCAL/MOL
REMARK 927      BINDING AFFINITY PREDICTED BY RF-SCORE:    0.00 PKD
ROOT
HETATM    1  N   UNL     1      -8.240  10.525  66.972  1.00  0.00    -0.123 N  
HETATM    2  C   UNL     1      -9.482  10.997  66.744  1.00  0.00    -0.182 C  
HETATM    3  H1  UNL     1      -7.537  10.996  67.541  1.00  0.00     0.000 HD 
HETATM    4  H2  UNL     1      -7.986   9.634  66.546  1.00  0.00     0.000 HD 
HETATM    5  O   UNL     1     -10.323  10.434  66.065  1.00  0.00    -0.241 OA 
ENDROOT
BRANCH   2   6
HETATM    6  O   UNL     1      -9.642  12.162  67.399  1.00  0.00    -0.174 OA 
BRANCH   6   7
HETATM    7  C   UNL     1     -10.332  13.250  66.727  1.00  0.00    -0.257 C  
BRANCH   7   8
HETATM    8  C   UNL     1      -9.411  14.479  66.768  1.00  0.00    -0.278 A  
HETATM    9  C   UNL     1      -7.611  16.675  66.873  1.00  0.00    -0.262 A  
HETATM   10  C   UNL     1      -8.195  14.418  67.487  1.00  0.00    -0.201 A  
HETATM   11  C   UNL     1      -9.677  15.675  66.072  1.00  0.00    -0.346 A  
HETATM   12  C   UNL     1      -7.306  15.495  67.535  1.00  0.00    -0.216 A  
HETATM   13  C   UNL     1      -8.795  16.764  66.145  1.00  0.00    -0.298 A  
HETATM   14 CL   UNL     1     -11.046  15.873  65.037  1.00  0.00    -0.393 Cl 
ENDBRANCH   7   8
BRANCH   7  15
HETATM   15  C   UNL     1     -11.739  13.447  67.317  1.00  0.00    -0.380 C  
BRANCH  15  16
HETATM   16  N   UNL     1     -11.739  14.136  68.587  1.00  0.00    -0.329 NA 
HETATM   17  N   UNL     1     -11.910  15.469  68.678  1.00  0.00    -0.347 NA 
HETATM   18  N   UNL     1     -11.982  14.405  70.673  1.00  0.00    -0.309 NA 
HETATM   19  C   UNL     1     -12.047  15.588  70.001  1.00  0.00    -0.368 A  
HETATM   20  N   UNL     1     -11.797  13.466  69.754  1.00  0.00    -0.320 NA 
ENDBRANCH  15  16
ENDBRANCH   7  15
ENDBRANCH   6   7
ENDBRANCH   2   6
TORSDOF 5
ENDMDL
MODEL      196
REMARK 921   NORMALIZED FREE ENERGY PREDICTED BY IDOCK:   -3.59 KCAL/MOL
REMARK 922        TOTAL FREE ENERGY PREDICTED BY IDOCK:   -5.45 KCAL/MOL
REMARK 923 INTER-LIGAND FREE ENERGY PREDICTED BY IDOCK:   -5.29 KCAL/MOL
REMARK 924 INTRA-LIGAND FREE ENERGY PREDICTED BY IDOCK:   -0.16 KCAL/MOL
REMARK 927      BINDING AFFINITY PREDICTED BY RF-SCORE:    0.00 PKD
ROOT
HETATM    1  N   UNL     1      -7.843  10.635  64.936  1.00  0.00    -0.340 N  
HETATM    2  C   UNL     1      -8.950   9.967  65.322  1.00  0.00    -0.191 C  
HETATM    3  H1  UNL     1      -7.842  11.576  64.545  1.00  0.00     0.000 HD 
HETATM    4  H2  UNL     1      -6.945  10.164  65.043  1.00  0.00     0.000 HD 
HETATM    5  O   UNL     1      -8.951   8.841  65.790  1.00  0.00    -0.184 OA 
ENDROOT
BRANCH   2   6
HETATM    6  O   UNL     1     -10.029  10.746  65.128  1.00  0.00    -0.250 OA 
BRANCH   6   7
HETATM    7  C   UNL     1     -10.508  11.562  66.232  1.00  0.00    -0.251 C  
BRANCH   7   8
HETATM    8  C   UNL     1     -10.696  12.993  65.705  1.00  0.00    -0.293 A  
HETATM    9  C   UNL     1     -10.921  15.659  64.750  1.00  0.00    -0.418 A  
HETATM   10  C   UNL     1      -9.754  13.991  66.041  1.00  0.00    -0.280 A  
HETATM   11  C   UNL     1     -11.742  13.372  64.841  1.00  0.00    -0.351 A  
HETATM   12  C   UNL     1      -9.859  15.301  65.567  1.00  0.00    -0.362 A  
HETATM   13  C   UNL     1     -11.861  14.696  64.389  1.00  0.00    -0.405 A  
HETATM   14 CL   UNL     1     -12.902  12.251  64.222  1.00  0.00    -0.442 Cl 
ENDBRANCH   7   8
BRANCH   7  15
HETATM   15  C   UNL     1      -9.589  11.413  67.456  1.00  0.00    -0.167 C  
BRANCH  15  16
HETATM   16  N   UNL     1     -10.305  11.162  68.686  1.00  0.00    -0.195 NA 
HETATM   17  N   UNL     1     -11.459  11.791  68.982  1.00  0.00    -0.270 NA 
HETATM   18  N   UNL     1     -10.960  10.094  70.392  1.00  0.00    -0.307 NA 
HETATM   19  C   UNL     1     -11.825  11.094  70.061  1.00  0.00    -0.361 A  
HETATM   20  N   UNL     1      -9.986  10.132  69.492  1.00  0.00    -0.225 NA 
ENDBRANCH  15  16
ENDBRANCH   7  15
ENDBRANCH   6   7
ENDBRANCH   2   6
TORSDOF 5
ENDMDL
MODEL      197
REMARK 921   NORMALIZED FREE ENERGY PREDICTED BY IDOCK:   -3.59 KCAL/MOL
REMARK 922        TOTAL FREE ENERGY PREDICTED BY IDOCK:   -5.44 KCAL/MOL
REMARK 923 INTER-LIGAND FREE ENERGY PREDICTED BY IDOCK:   -4.80 KCAL/MOL
REMARK 924 INTRA-LIGAND FREE ENERGY PREDICTED BY IDOCK:   -0.64 KCAL/MOL
REMARK 927      BINDING AFFINITY PREDICTED BY RF-SCORE:    0.00 PKD
ROOT
HETATM    1  N   UNL     1     -11.494  11.870  69.917  1.00  0.00    -0.495 N  
HETATM    2  C   UNL     1     -11.745  11.289  68.726  1.00  0.00    -0.338 C  
HETATM    3  H1  UNL     1     -11.184  11.370  70.750  1.00  0.00     0.000 HD 
HETATM    4  H2  UNL     1     -11.625  12.879  69.990  1.00  0.00     0.000 HD 
HETATM    5  O   UNL     1     -12.116  11.886  67.729  1.00  0.00    -0.564 OA 
ENDROOT
BRANCH   2   6
HETATM    6  O   UNL     1     -11.499   9.969  68.814  1.00  0.00    -0.122 OA 
BRANCH   6   7
HETATM    7  C   UNL     1     -10.125   9.524  68.971  1.00  0.00    -0.193 C  
BRANCH   7   8
HETATM    8  C   UNL     1      -9.435   9.656  67.604  1.00  0.00    -0.155 A  
HETATM    9  C   UNL     1      -8.249   9.825  65.028  1.00  0.00    -0.142 A  
HETATM   10  C   UNL     1      -9.670   8.684  66.605  1.00  0.00    -0.315 A  
HETATM   11  C   UNL     1      -8.606  10.740  67.252  1.00  0.00    -0.130 A  
HETATM   12  C   UNL     1      -9.093   8.768  65.336  1.00  0.00    -0.194 A  
HETATM   13  C   UNL     1      -8.006  10.807  65.985  1.00  0.00    -0.154 A  
HETATM   14 CL   UNL     1      -8.321  12.082  68.301  1.00  0.00    -0.159 Cl 
ENDBRANCH   7   8
BRANCH   7  15
HETATM   15  C   UNL     1     -10.076   8.129  69.615  1.00  0.00    -0.199 C  
BRANCH  15  16
HETATM   16  N   UNL     1     -11.033   7.956  70.684  1.00  0.00    -0.242 NA 
HETATM   17  N   UNL     1     -11.195   8.877  71.654  1.00  0.00    -0.319 NA 
HETATM   18  N   UNL     1     -12.772   7.255  71.666  1.00  0.00    -0.363 NA 
HETATM   19  C   UNL     1     -12.289   8.389  72.246  1.00  0.00    -0.376 A  
HETATM   20  N   UNL     1     -11.966   6.986  70.648  1.00  0.00    -0.338 NA 
ENDBRANCH  15  16
ENDBRANCH   7  15
ENDBRANCH   6   7
ENDBRANCH   2   6
TORSDOF 5
ENDMDL
MODEL      198
REMARK 921   NORMALIZED FREE ENERGY PREDICTED BY IDOCK:   -3.58 KCAL/MOL
REMARK 922        TOTAL FREE ENERGY PREDICTED BY IDOCK:   -5.43 KCAL/MOL
REMARK 923 INTER-LIGAND FREE ENERGY PREDICTED BY IDOCK:   -5.04 KCAL/MOL
REMARK 924 INTRA-LIGAND FREE ENERGY PREDICTED BY IDOCK:   -0.39 KCAL/MOL
REMARK 927      BINDING AFFINITY PREDICTED BY RF-SCORE:    0.00 PKD
ROOT
HETATM    1  N   UNL     1      -6.862   8.057  67.417  1.00  0.00    -0.069 N  
HETATM    2  C   UNL     1      -7.673   8.905  68.081  1.00  0.00    -0.100 C  
HETATM    3  H1  UNL     1      -7.073   7.076  67.235  1.00  0.00     0.000 HD 
HETATM    4  H2  UNL     1      -5.974   8.422  67.073  1.00  0.00     0.000 HD 
HETATM    5  O   UNL     1      -7.420  10.077  68.299  1.00  0.00    -0.078 OA 
ENDROOT
BRANCH   2   6
HETATM    6  O   UNL     1      -8.798   8.257  68.437  1.00  0.00    -0.136 OA 
BRANCH   6   7
HETATM    7  C   UNL     1      -9.984   9.037  68.747  1.00  0.00    -0.182 C  
BRANCH   7   8
HETATM    8  C   UNL     1     -10.675   8.375  69.949  1.00  0.00    -0.227 A  
HETATM    9  C   UNL     1     -11.986   7.265  72.211  1.00  0.00    -0.259 A  
HETATM   10  C   UNL     1     -10.957   9.141  71.103  1.00  0.00    -0.390 A  
HETATM   11  C   UNL     1     -11.106   7.034  69.957  1.00  0.00    -0.278 A  
HETATM   12  C   UNL     1     -11.607   8.599  72.214  1.00  0.00    -0.424 A  
HETATM   13  C   UNL     1     -11.735   6.485  71.086  1.00  0.00    -0.392 A  
HETATM   14 CL   UNL     1     -10.965   5.995  68.584  1.00  0.00    -0.377 Cl 
ENDBRANCH   7   8
BRANCH   7  15
HETATM   15  C   UNL     1     -10.854   9.223  67.492  1.00  0.00    -0.112 C  
BRANCH  15  16
HETATM   16  N   UNL     1     -11.029  10.607  67.115  1.00  0.00    -0.276 NA 
HETATM   17  N   UNL     1     -10.486  11.116  65.991  1.00  0.00    -0.257 NA 
HETATM   18  N   UNL     1     -11.952  12.509  67.005  1.00  0.00    -0.531 NA 
HETATM   19  C   UNL     1     -11.087  12.309  65.972  1.00  0.00    -0.309 A  
HETATM   20  N   UNL     1     -11.923  11.401  67.734  1.00  0.00    -0.646 NA 
ENDBRANCH  15  16
ENDBRANCH   7  15
ENDBRANCH   6   7
ENDBRANCH   2   6
TORSDOF 5
ENDMDL
MODEL      199
REMARK 921   NORMALIZED FREE ENERGY PREDICTED BY IDOCK:   -3.58 KCAL/MOL
REMARK 922        TOTAL FREE ENERGY PREDICTED BY IDOCK:   -5.43 KCAL/MOL
REMARK 923 INTER-LIGAND FREE ENERGY PREDICTED BY IDOCK:   -5.37 KCAL/MOL
REMARK 924 INTRA-LIGAND FREE ENERGY PREDICTED BY IDOCK:   -0.06 KCAL/MOL
REMARK 927      BINDING AFFINITY PREDICTED BY RF-SCORE:    0.00 PKD
ROOT
HETATM    1  N   UNL     1     -13.364  14.101  65.462  1.00  0.00    -0.592 N  
HETATM    2  C   UNL     1     -12.467  13.258  64.911  1.00  0.00    -0.409 C  
HETATM    3  H1  UNL     1     -13.615  14.114  66.450  1.00  0.00     0.000 HD 
HETATM    4  H2  UNL     1     -13.825  14.771  64.847  1.00  0.00     0.000 HD 
HETATM    5  O   UNL     1     -12.167  13.242  63.730  1.00  0.00    -0.561 OA 
ENDROOT
BRANCH   2   6
HETATM    6  O   UNL     1     -11.951  12.468  65.871  1.00  0.00    -0.457 OA 
BRANCH   6   7
HETATM    7  C   UNL     1     -10.607  12.741  66.351  1.00  0.00    -0.255 C  
BRANCH   7   8
HETATM    8  C   UNL     1     -10.268  11.680  67.410  1.00  0.00    -0.226 A  
HETATM    9  C   UNL     1      -9.737   9.649  69.324  1.00  0.00    -0.191 A  
HETATM   10  C   UNL     1     -11.248  10.737  67.794  1.00  0.00    -0.385 A  
HETATM   11  C   UNL     1      -8.994  11.547  67.998  1.00  0.00    -0.170 A  
HETATM   12  C   UNL     1     -10.988   9.735  68.730  1.00  0.00    -0.185 A  
HETATM   13  C   UNL     1      -8.744  10.555  68.959  1.00  0.00    -0.160 A  
HETATM   14 CL   UNL     1      -7.645  12.525  67.545  1.00  0.00    -0.145 Cl 
ENDBRANCH   7   8
BRANCH   7  15
HETATM   15  C   UNL     1     -10.478  14.205  66.803  1.00  0.00    -0.277 C  
BRANCH  15  16
HETATM   16  N   UNL     1     -10.975  14.440  68.140  1.00  0.00    -0.247 NA 
HETATM   17  N   UNL     1     -12.106  13.865  68.593  1.00  0.00    -0.352 NA 
HETATM   18  N   UNL     1     -10.910  14.913  70.202  1.00  0.00    -0.181 NA 
HETATM   19  C   UNL     1     -12.025  14.198  69.884  1.00  0.00    -0.338 A  
HETATM   20  N   UNL     1     -10.227  15.056  69.074  1.00  0.00    -0.235 NA 
ENDBRANCH  15  16
ENDBRANCH   7  15
ENDBRANCH   6   7
ENDBRANCH   2   6
TORSDOF 5
ENDMDL
MODEL      200
REMARK 921   NORMALIZED FREE ENERGY PREDICTED BY IDOCK:   -3.56 KCAL/MOL
REMARK 922        TOTAL FREE ENERGY PREDICTED BY IDOCK:   -5.41 KCAL/MOL
REMARK 923 INTER-LIGAND FREE ENERGY PREDICTED BY IDOCK:   -5.08 KCAL/MOL
REMARK 924 INTRA-LIGAND FREE ENERGY PREDICTED BY IDOCK:   -0.33 KCAL/MOL
REMARK 927      BINDING AFFINITY PREDICTED BY RF-SCORE:    0.00 PKD
ROOT
HETATM    1  N   UNL     1      -8.234   9.843  67.441  1.00  0.00    -0.117 N  
HETATM    2  C   UNL     1      -9.578   9.866  67.329  1.00  0.00    -0.160 C  
HETATM    3  H1  UNL     1      -7.683  10.537  67.945  1.00  0.00     0.000 HD 
HETATM    4  H2  UNL     1      -7.734   9.078  66.989  1.00  0.00     0.000 HD 
HETATM    5  O   UNL     1     -10.237   9.037  66.725  1.00  0.00    -0.256 OA 
ENDROOT
BRANCH   2   6
HETATM    6  O   UNL     1     -10.062  10.927  68.001  1.00  0.00    -0.170 OA 
BRANCH   6   7
HETATM    7  C   UNL     1     -10.463  12.105  67.250  1.00  0.00    -0.218 C  
BRANCH   7   8
HETATM    8  C   UNL     1     -10.164  13.335  68.121  1.00  0.00    -0.243 A  
HETATM    9  C   UNL     1      -9.710  15.577  69.805  1.00  0.00    -0.247 A  
HETATM   10  C   UNL     1     -11.178  13.869  68.948  1.00  0.00    -0.304 A  
HETATM   11  C   UNL     1      -8.898  13.948  68.194  1.00  0.00    -0.184 A  
HETATM   12  C   UNL     1     -10.955  14.968  69.781  1.00  0.00    -0.291 A  
HETATM   13  C   UNL     1      -8.684  15.069  69.012  1.00  0.00    -0.203 A  
HETATM   14 CL   UNL     1      -7.514  13.343  67.356  1.00  0.00    -0.162 Cl 
ENDBRANCH   7   8
BRANCH   7  15
HETATM   15  C   UNL     1     -11.914  11.967  66.759  1.00  0.00    -0.006 C  
BRANCH  15  16
HETATM   16  N   UNL     1     -12.209  12.784  65.603  1.00  0.00    -0.539 NA 
HETATM   17  N   UNL     1     -11.517  13.906  65.325  1.00  0.00    -0.307 NA 
HETATM   18  N   UNL     1     -12.903  13.255  63.660  1.00  0.00    -0.476 NA 
HETATM   19  C   UNL     1     -11.994  14.167  64.104  1.00  0.00    -0.393 A  
HETATM   20  N   UNL     1     -13.030  12.355  64.625  1.00  0.00    -0.802 NA 
ENDBRANCH  15  16
ENDBRANCH   7  15
ENDBRANCH   6   7
ENDBRANCH   2   6
TORSDOF 5
ENDMDL
MODEL      201
REMARK 921   NORMALIZED FREE ENERGY PREDICTED BY IDOCK:   -3.55 KCAL/MOL
REMARK 922        TOTAL FREE ENERGY PREDICTED BY IDOCK:   -5.39 KCAL/MOL
REMARK 923 INTER-LIGAND FREE ENERGY PREDICTED BY IDOCK:   -4.52 KCAL/MOL
REMARK 924 INTRA-LIGAND FREE ENERGY PREDICTED BY IDOCK:   -0.87 KCAL/MOL
REMARK 927      BINDING AFFINITY PREDICTED BY RF-SCORE:    0.00 PKD
ROOT
HETATM    1  N   UNL     1     -10.094   8.779  66.183  1.00  0.00    -0.424 N  
HETATM    2  C   UNL     1      -9.649   9.929  66.728  1.00  0.00    -0.183 C  
HETATM    3  H1  UNL     1     -10.811   8.182  66.594  1.00  0.00     0.000 HD 
HETATM    4  H2  UNL     1      -9.683   8.484  65.297  1.00  0.00     0.000 HD 
HETATM    5  O   UNL     1      -8.791  10.642  66.236  1.00  0.00    -0.151 OA 
ENDROOT
BRANCH   2   6
HETATM    6  O   UNL     1     -10.315  10.165  67.873  1.00  0.00    -0.170 OA 
BRANCH   6   7
HETATM    7  C   UNL     1     -10.217   9.192  68.949  1.00  0.00    -0.207 C  
BRANCH   7   8
HETATM    8  C   UNL     1     -11.238   9.589  70.027  1.00  0.00    -0.243 A  
HETATM    9  C   UNL     1     -13.151  10.425  71.953  1.00  0.00    -0.563 A  
HETATM   10  C   UNL     1     -11.651  10.936  70.138  1.00  0.00    -0.425 A  
HETATM   11  C   UNL     1     -11.847   8.665  70.899  1.00  0.00    -0.225 A  
HETATM   12  C   UNL     1     -12.596  11.349  71.080  1.00  0.00    -0.487 A  
HETATM   13  C   UNL     1     -12.776   9.087  71.863  1.00  0.00    -0.450 A  
HETATM   14 CL   UNL     1     -11.562   6.964  70.812  1.00  0.00    -0.374 Cl 
ENDBRANCH   7   8
BRANCH   7  15
HETATM   15  C   UNL     1      -8.761   9.052  69.423  1.00  0.00    -0.142 C  
BRANCH  15  16
HETATM   16  N   UNL     1      -8.262   7.697  69.354  1.00  0.00    -0.128 NA 
HETATM   17  N   UNL     1      -8.759   6.796  68.485  1.00  0.00    -0.125 NA 
HETATM   18  N   UNL     1      -6.883   6.102  69.541  1.00  0.00    -0.063 NA 
HETATM   19  C   UNL     1      -7.868   5.813  68.646  1.00  0.00    -0.097 A  
HETATM   20  N   UNL     1      -7.133   7.326  69.987  1.00  0.00    -0.064 NA 
ENDBRANCH  15  16
ENDBRANCH   7  15
ENDBRANCH   6   7
ENDBRANCH   2   6
TORSDOF 5
ENDMDL
MODEL      202
REMARK 921   NORMALIZED FREE ENERGY PREDICTED BY IDOCK:   -3.55 KCAL/MOL
REMARK 922        TOTAL FREE ENERGY PREDICTED BY IDOCK:   -5.39 KCAL/MOL
REMARK 923 INTER-LIGAND FREE ENERGY PREDICTED BY IDOCK:   -4.50 KCAL/MOL
REMARK 924 INTRA-LIGAND FREE ENERGY PREDICTED BY IDOCK:   -0.89 KCAL/MOL
REMARK 927      BINDING AFFINITY PREDICTED BY RF-SCORE:    0.00 PKD
ROOT
HETATM    1  N   UNL     1      -8.577   7.743  72.998  1.00  0.00    -0.147 N  
HETATM    2  C   UNL     1      -9.878   7.598  73.321  1.00  0.00    -0.301 C  
HETATM    3  H1  UNL     1      -8.233   8.305  72.220  1.00  0.00     0.000 HD 
HETATM    4  H2  UNL     1      -7.889   7.254  73.571  1.00  0.00     0.000 HD 
HETATM    5  O   UNL     1     -10.290   6.925  74.251  1.00  0.00    -0.346 OA 
ENDROOT
BRANCH   2   6
HETATM    6  O   UNL     1     -10.630   8.326  72.475  1.00  0.00    -0.315 OA 
BRANCH   6   7
HETATM    7  C   UNL     1     -10.450   8.138  71.045  1.00  0.00    -0.201 C  
BRANCH   7   8
HETATM    8  C   UNL     1     -11.032   9.372  70.338  1.00  0.00    -0.317 A  
HETATM    9  C   UNL     1     -12.110  11.713  69.143  1.00  0.00    -0.315 A  
HETATM   10  C   UNL     1     -11.740  10.339  71.088  1.00  0.00    -0.430 A  
HETATM   11  C   UNL     1     -10.853   9.639  68.966  1.00  0.00    -0.183 A  
HETATM   12  C   UNL     1     -12.266  11.493  70.503  1.00  0.00    -0.469 A  
HETATM   13  C   UNL     1     -11.407  10.787  68.377  1.00  0.00    -0.367 A  
HETATM   14 CL   UNL     1      -9.901   8.636  67.931  1.00  0.00    -0.196 Cl 
ENDBRANCH   7   8
BRANCH   7  15
HETATM   15  C   UNL     1     -11.019   6.780  70.600  1.00  0.00    -0.267 C  
BRANCH  15  16
HETATM   16  N   UNL     1     -10.065   5.699  70.695  1.00  0.00    -0.198 NA 
HETATM   17  N   UNL     1      -8.776   5.849  70.332  1.00  0.00    -0.137 NA 
HETATM   18  N   UNL     1      -9.198   3.904  71.408  1.00  0.00    -0.115 NA 
HETATM   19  C   UNL     1      -8.278   4.697  70.791  1.00  0.00    -0.088 A  
HETATM   20  N   UNL     1     -10.349   4.561  71.356  1.00  0.00    -0.108 NA 
ENDBRANCH  15  16
ENDBRANCH   7  15
ENDBRANCH   6   7
ENDBRANCH   2   6
TORSDOF 5
ENDMDL
MODEL      203
REMARK 921   NORMALIZED FREE ENERGY PREDICTED BY IDOCK:   -3.53 KCAL/MOL
REMARK 922        TOTAL FREE ENERGY PREDICTED BY IDOCK:   -5.37 KCAL/MOL
REMARK 923 INTER-LIGAND FREE ENERGY PREDICTED BY IDOCK:   -4.40 KCAL/MOL
REMARK 924 INTRA-LIGAND FREE ENERGY PREDICTED BY IDOCK:   -0.97 KCAL/MOL
REMARK 927      BINDING AFFINITY PREDICTED BY RF-SCORE:    0.00 PKD
ROOT
HETATM    1  N   UNL     1     -11.998  13.313  70.869  1.00  0.00    -0.474 N  
HETATM    2  C   UNL     1     -12.316  14.267  69.971  1.00  0.00    -0.346 C  
HETATM    3  H1  UNL     1     -11.484  12.460  70.650  1.00  0.00     0.000 HD 
HETATM    4  H2  UNL     1     -12.291  13.454  71.835  1.00  0.00     0.000 HD 
HETATM    5  O   UNL     1     -12.931  15.287  70.233  1.00  0.00    -0.303 OA 
ENDROOT
BRANCH   2   6
HETATM    6  O   UNL     1     -11.832  13.921  68.764  1.00  0.00    -0.323 OA 
BRANCH   6   7
HETATM    7  C   UNL     1     -10.458  14.265  68.439  1.00  0.00    -0.249 C  
BRANCH   7   8
HETATM    8  C   UNL     1     -10.488  15.193  67.214  1.00  0.00    -0.271 A  
HETATM    9  C   UNL     1     -10.606  16.817  64.887  1.00  0.00     0.073 A  
HETATM   10  C   UNL     1     -10.684  14.644  65.927  1.00  0.00    -0.312 A  
HETATM   11  C   UNL     1     -10.386  16.595  67.298  1.00  0.00    -0.298 A  
HETATM   12  C   UNL     1     -10.749  15.441  64.782  1.00  0.00    -0.339 A  
HETATM   13  C   UNL     1     -10.424  17.392  66.142  1.00  0.00    -0.284 A  
HETATM   14 CL   UNL     1     -10.280  17.441  68.800  1.00  0.00    -0.346 Cl 
ENDBRANCH   7   8
BRANCH   7  15
HETATM   15  C   UNL     1      -9.599  12.997  68.300  1.00  0.00    -0.213 C  
BRANCH  15  16
HETATM   16  N   UNL     1     -10.328  11.778  68.565  1.00  0.00    -0.213 NA 
HETATM   17  N   UNL     1     -11.080  11.175  67.624  1.00  0.00    -0.267 NA 
HETATM   18  N   UNL     1     -10.792   9.932  69.492  1.00  0.00    -0.236 NA 
HETATM   19  C   UNL     1     -11.354  10.029  68.255  1.00  0.00    -0.049 A  
HETATM   20  N   UNL     1     -10.118  11.058  69.684  1.00  0.00     0.048 NA 
ENDBRANCH  15  16
ENDBRANCH   7  15
ENDBRANCH   6   7
ENDBRANCH   2   6
TORSDOF 5
ENDMDL
MODEL      204
REMARK 921   NORMALIZED FREE ENERGY PREDICTED BY IDOCK:   -3.52 KCAL/MOL
REMARK 922        TOTAL FREE ENERGY PREDICTED BY IDOCK:   -5.36 KCAL/MOL
REMARK 923 INTER-LIGAND FREE ENERGY PREDICTED BY IDOCK:   -4.25 KCAL/MOL
REMARK 924 INTRA-LIGAND FREE ENERGY PREDICTED BY IDOCK:   -1.11 KCAL/MOL
REMARK 927      BINDING AFFINITY PREDICTED BY RF-SCORE:    0.00 PKD
ROOT
HETATM    1  N   UNL     1      -7.935   9.139  69.007  1.00  0.00    -0.099 N  
HETATM    2  C   UNL     1      -8.105  10.476  69.071  1.00  0.00    -0.143 C  
HETATM    3  H1  UNL     1      -8.694   8.462  68.941  1.00  0.00     0.000 HD 
HETATM    4  H2  UNL     1      -6.980   8.782  69.026  1.00  0.00     0.000 HD 
HETATM    5  O   UNL     1      -7.198  11.286  69.151  1.00  0.00    -0.112 OA 
ENDROOT
BRANCH   2   6
HETATM    6  O   UNL     1      -9.419  10.760  69.012  1.00  0.00    -0.191 OA 
BRANCH   6   7
HETATM    7  C   UNL     1      -9.963  11.287  67.771  1.00  0.00    -0.176 C  
BRANCH   7   8
HETATM    8  C   UNL     1     -10.572  12.664  68.079  1.00  0.00    -0.233 A  
HETATM    9  C   UNL     1     -11.674  15.243  68.530  1.00  0.00    -0.352 A  
HETATM   10  C   UNL     1     -10.266  13.765  67.248  1.00  0.00    -0.253 A  
HETATM   11  C   UNL     1     -11.481  12.895  69.130  1.00  0.00    -0.306 A  
HETATM   12  C   UNL     1     -10.811  15.033  67.464  1.00  0.00    -0.297 A  
HETATM   13  C   UNL     1     -12.006  14.177  69.361  1.00  0.00    -0.382 A  
HETATM   14 CL   UNL     1     -12.068  11.637  70.157  1.00  0.00    -0.413 Cl 
ENDBRANCH   7   8
BRANCH   7  15
HETATM   15  C   UNL     1     -10.910  10.267  67.117  1.00  0.00    -0.212 C  
BRANCH  15  16
HETATM   16  N   UNL     1     -10.256   9.032  66.745  1.00  0.00    -0.271 NA 
HETATM   17  N   UNL     1      -9.243   8.999  65.858  1.00  0.00    -0.214 NA 
HETATM   18  N   UNL     1      -9.567   7.041  66.943  1.00  0.00    -0.161 NA 
HETATM   19  C   UNL     1      -8.852   7.731  66.011  1.00  0.00    -0.157 A  
HETATM   20  N   UNL     1     -10.464   7.889  67.426  1.00  0.00    -0.279 NA 
ENDBRANCH  15  16
ENDBRANCH   7  15
ENDBRANCH   6   7
ENDBRANCH   2   6
TORSDOF 5
ENDMDL
MODEL      205
REMARK 921   NORMALIZED FREE ENERGY PREDICTED BY IDOCK:   -3.46 KCAL/MOL
REMARK 922        TOTAL FREE ENERGY PREDICTED BY IDOCK:   -5.27 KCAL/MOL
REMARK 923 INTER-LIGAND FREE ENERGY PREDICTED BY IDOCK:   -4.71 KCAL/MOL
REMARK 924 INTRA-LIGAND FREE ENERGY PREDICTED BY IDOCK:   -0.56 KCAL/MOL
REMARK 927      BINDING AFFINITY PREDICTED BY RF-SCORE:    0.00 PKD
ROOT
HETATM    1  N   UNL     1      -7.596  12.218  68.924  1.00  0.00    -0.298 N  
HETATM    2  C   UNL     1      -7.611  11.658  67.697  1.00  0.00    -0.128 C  
HETATM    3  H1  UNL     1      -8.283  12.891  69.262  1.00  0.00     0.000 HD 
HETATM    4  H2  UNL     1      -6.842  11.951  69.557  1.00  0.00     0.000 HD 
HETATM    5  O   UNL     1      -6.789  10.855  67.292  1.00  0.00    -0.076 OA 
ENDROOT
BRANCH   2   6
HETATM    6  O   UNL     1      -8.680  12.110  67.016  1.00  0.00    -0.179 OA 
BRANCH   6   7
HETATM    7  C   UNL     1      -9.487  11.157  66.272  1.00  0.00    -0.196 C  
BRANCH   7   8
HETATM    8  C   UNL     1     -10.540  11.953  65.486  1.00  0.00    -0.313 A  
HETATM    9  C   UNL     1     -12.489  13.510  64.127  1.00  0.00    -0.301 A  
HETATM   10  C   UNL     1     -11.370  12.874  66.165  1.00  0.00    -0.356 A  
HETATM   11  C   UNL     1     -10.699  11.865  64.089  1.00  0.00    -0.351 A  
HETATM   12  C   UNL     1     -12.325  13.645  65.498  1.00  0.00    -0.519 A  
HETATM   13  C   UNL     1     -11.679  12.621  63.425  1.00  0.00    -0.571 A  
HETATM   14 CL   UNL     1      -9.681  10.894  63.088  1.00  0.00    -0.360 Cl 
ENDBRANCH   7   8
BRANCH   7  15
HETATM   15  C   UNL     1     -10.031  10.062  67.204  1.00  0.00    -0.201 C  
BRANCH  15  16
HETATM   16  N   UNL     1      -9.902   8.728  66.661  1.00  0.00    -0.241 NA 
HETATM   17  N   UNL     1      -8.824   8.347  65.949  1.00  0.00    -0.167 NA 
HETATM   18  N   UNL     1     -10.200   6.639  66.500  1.00  0.00    -0.114 NA 
HETATM   19  C   UNL     1      -9.062   7.035  65.866  1.00  0.00    -0.009 A  
HETATM   20  N   UNL     1     -10.734   7.734  67.025  1.00  0.00    -0.326 NA 
ENDBRANCH  15  16
ENDBRANCH   7  15
ENDBRANCH   6   7
ENDBRANCH   2   6
TORSDOF 5
ENDMDL
MODEL      206
REMARK 921   NORMALIZED FREE ENERGY PREDICTED BY IDOCK:   -3.43 KCAL/MOL
REMARK 922        TOTAL FREE ENERGY PREDICTED BY IDOCK:   -5.24 KCAL/MOL
REMARK 923 INTER-LIGAND FREE ENERGY PREDICTED BY IDOCK:   -4.98 KCAL/MOL
REMARK 924 INTRA-LIGAND FREE ENERGY PREDICTED BY IDOCK:   -0.26 KCAL/MOL
REMARK 927      BINDING AFFINITY PREDICTED BY RF-SCORE:    0.00 PKD
ROOT
HETATM    1  N   UNL     1     -11.261   8.789  69.217  1.00  0.00    -0.419 N  
HETATM    2  C   UNL     1     -10.642   7.598  69.084  1.00  0.00    -0.186 C  
HETATM    3  H1  UNL     1     -12.034   8.971  69.857  1.00  0.00     0.000 HD 
HETATM    4  H2  UNL     1     -10.934   9.561  68.637  1.00  0.00     0.000 HD 
HETATM    5  O   UNL     1      -9.718   7.380  68.319  1.00  0.00    -0.148 OA 
ENDROOT
BRANCH   2   6
HETATM    6  O   UNL     1     -11.190   6.714  69.938  1.00  0.00    -0.311 OA 
BRANCH   6   7
HETATM    7  C   UNL     1     -10.534   6.476  71.213  1.00  0.00    -0.215 C  
BRANCH   7   8
HETATM    8  C   UNL     1     -10.212   4.976  71.297  1.00  0.00    -0.273 A  
HETATM    9  C   UNL     1      -9.551   2.214  71.346  1.00  0.00    -0.217 A  
HETATM   10  C   UNL     1      -9.810   4.281  70.134  1.00  0.00    -0.271 A  
HETATM   11  C   UNL     1     -10.239   4.241  72.498  1.00  0.00    -0.174 A  
HETATM   12  C   UNL     1      -9.479   2.924  70.157  1.00  0.00    -0.198 A  
HETATM   13  C   UNL     1      -9.932   2.871  72.513  1.00  0.00    -0.229 A  
HETATM   14 CL   UNL     1     -10.575   4.961  74.032  1.00  0.00    -0.325 Cl 
ENDBRANCH   7   8
BRANCH   7  15
HETATM   15  C   UNL     1     -11.371   7.049  72.369  1.00  0.00    -0.269 C  
BRANCH  15  16
HETATM   16  N   UNL     1     -12.483   7.859  71.927  1.00  0.00    -0.313 NA 
HETATM   17  N   UNL     1     -13.714   7.343  71.739  1.00  0.00    -0.349 NA 
HETATM   18  N   UNL     1     -13.650   9.603  71.645  1.00  0.00    -0.354 NA 
HETATM   19  C   UNL     1     -14.405   8.472  71.556  1.00  0.00    -0.364 A  
HETATM   20  N   UNL     1     -12.411   9.204  71.898  1.00  0.00    -0.362 NA 
ENDBRANCH  15  16
ENDBRANCH   7  15
ENDBRANCH   6   7
ENDBRANCH   2   6
TORSDOF 5
ENDMDL
MODEL      207
REMARK 921   NORMALIZED FREE ENERGY PREDICTED BY IDOCK:   -3.43 KCAL/MOL
REMARK 922        TOTAL FREE ENERGY PREDICTED BY IDOCK:   -5.23 KCAL/MOL
REMARK 923 INTER-LIGAND FREE ENERGY PREDICTED BY IDOCK:   -4.83 KCAL/MOL
REMARK 924 INTRA-LIGAND FREE ENERGY PREDICTED BY IDOCK:   -0.41 KCAL/MOL
REMARK 927      BINDING AFFINITY PREDICTED BY RF-SCORE:    0.00 PKD
ROOT
HETATM    1  N   UNL     1     -11.938  12.776  62.720  1.00  0.00    -0.448 N  
HETATM    2  C   UNL     1     -12.385  12.689  63.990  1.00  0.00    -0.443 C  
HETATM    3  H1  UNL     1     -11.116  13.304  62.431  1.00  0.00     0.000 HD 
HETATM    4  H2  UNL     1     -12.461  12.279  61.999  1.00  0.00     0.000 HD 
HETATM    5  O   UNL     1     -13.369  12.058  64.336  1.00  0.00    -0.657 OA 
ENDROOT
BRANCH   2   6
HETATM    6  O   UNL     1     -11.564  13.384  64.799  1.00  0.00    -0.318 OA 
BRANCH   6   7
HETATM    7  C   UNL     1     -10.609  12.655  65.617  1.00  0.00    -0.273 C  
BRANCH   7   8
HETATM    8  C   UNL     1      -9.828  13.686  66.448  1.00  0.00    -0.302 A  
HETATM    9  C   UNL     1      -8.438  15.681  67.915  1.00  0.00    -0.153 A  
HETATM   10  C   UNL     1      -9.625  14.987  65.936  1.00  0.00    -0.356 A  
HETATM   11  C   UNL     1      -9.336  13.429  67.742  1.00  0.00    -0.211 A  
HETATM   12  C   UNL     1      -8.947  15.972  66.658  1.00  0.00    -0.293 A  
HETATM   13  C   UNL     1      -8.631  14.412  68.454  1.00  0.00    -0.174 A  
HETATM   14 CL   UNL     1      -9.612  11.940  68.573  1.00  0.00    -0.188 Cl 
ENDBRANCH   7   8
BRANCH   7  15
HETATM   15  C   UNL     1      -9.761  11.711  64.749  1.00  0.00    -0.191 C  
BRANCH  15  16
HETATM   16  N   UNL     1      -9.315  10.530  65.453  1.00  0.00    -0.195 NA 
HETATM   17  N   UNL     1     -10.108   9.453  65.618  1.00  0.00    -0.159 NA 
HETATM   18  N   UNL     1      -7.956   9.098  66.218  1.00  0.00    -0.102 NA 
HETATM   19  C   UNL     1      -9.215   8.589  66.107  1.00  0.00    -0.211 A  
HETATM   20  N   UNL     1      -8.021  10.349  65.781  1.00  0.00    -0.148 NA 
ENDBRANCH  15  16
ENDBRANCH   7  15
ENDBRANCH   6   7
ENDBRANCH   2   6
TORSDOF 5
ENDMDL
MODEL      208
REMARK 921   NORMALIZED FREE ENERGY PREDICTED BY IDOCK:   -3.40 KCAL/MOL
REMARK 922        TOTAL FREE ENERGY PREDICTED BY IDOCK:   -5.20 KCAL/MOL
REMARK 923 INTER-LIGAND FREE ENERGY PREDICTED BY IDOCK:   -4.97 KCAL/MOL
REMARK 924 INTRA-LIGAND FREE ENERGY PREDICTED BY IDOCK:   -0.23 KCAL/MOL
REMARK 927      BINDING AFFINITY PREDICTED BY RF-SCORE:    0.00 PKD
ROOT
HETATM    1  N   UNL     1     -11.826  13.598  68.986  1.00  0.00    -0.333 N  
HETATM    2  C   UNL     1     -11.993  12.875  67.860  1.00  0.00    -0.282 C  
HETATM    3  H1  UNL     1     -11.895  13.221  69.931  1.00  0.00     0.000 HD 
HETATM    4  H2  UNL     1     -11.617  14.591  68.886  1.00  0.00     0.000 HD 
HETATM    5  O   UNL     1     -11.911  13.325  66.730  1.00  0.00    -0.382 OA 
ENDROOT
BRANCH   2   6
HETATM    6  O   UNL     1     -12.238  11.593  68.186  1.00  0.00    -0.537 OA 
BRANCH   6   7
HETATM    7  C   UNL     1     -11.112  10.702  68.409  1.00  0.00    -0.272 C  
BRANCH   7   8
HETATM    8  C   UNL     1     -11.367   9.951  69.725  1.00  0.00    -0.241 A  
HETATM    9  C   UNL     1     -11.948   8.622  72.167  1.00  0.00    -0.449 A  
HETATM   10  C   UNL     1     -12.312  10.457  70.647  1.00  0.00    -0.438 A  
HETATM   11  C   UNL     1     -10.745   8.732  70.058  1.00  0.00    -0.228 A  
HETATM   12  C   UNL     1     -12.604   9.802  71.845  1.00  0.00    -0.479 A  
HETATM   13  C   UNL     1     -11.020   8.090  71.276  1.00  0.00    -0.269 A  
HETATM   14 CL   UNL     1      -9.668   7.905  68.990  1.00  0.00    -0.159 Cl 
ENDBRANCH   7   8
BRANCH   7  15
HETATM   15  C   UNL     1      -9.784  11.473  68.323  1.00  0.00    -0.198 C  
BRANCH  15  16
HETATM   16  N   UNL     1      -8.946  11.054  67.222  1.00  0.00    -0.138 NA 
HETATM   17  N   UNL     1      -7.746  10.474  67.419  1.00  0.00    -0.101 NA 
HETATM   18  N   UNL     1      -8.453  10.399  65.271  1.00  0.00    -0.165 NA 
HETATM   19  C   UNL     1      -7.475  10.090  66.168  1.00  0.00    -0.109 A  
HETATM   20  N   UNL     1      -9.408  11.010  65.958  1.00  0.00    -0.194 NA 
ENDBRANCH  15  16
ENDBRANCH   7  15
ENDBRANCH   6   7
ENDBRANCH   2   6
TORSDOF 5
ENDMDL
MODEL      209
REMARK 921   NORMALIZED FREE ENERGY PREDICTED BY IDOCK:   -3.39 KCAL/MOL
REMARK 922        TOTAL FREE ENERGY PREDICTED BY IDOCK:   -5.18 KCAL/MOL
REMARK 923 INTER-LIGAND FREE ENERGY PREDICTED BY IDOCK:   -4.95 KCAL/MOL
REMARK 924 INTRA-LIGAND FREE ENERGY PREDICTED BY IDOCK:   -0.23 KCAL/MOL
REMARK 927      BINDING AFFINITY PREDICTED BY RF-SCORE:    0.00 PKD
ROOT
HETATM    1  N   UNL     1      -7.727   9.148  66.697  1.00  0.00    -0.096 N  
HETATM    2  C   UNL     1      -9.060   8.996  66.833  1.00  0.00    -0.132 C  
HETATM    3  H1  UNL     1      -7.278   9.951  66.258  1.00  0.00     0.000 HD 
HETATM    4  H2  UNL     1      -7.126   8.407  67.059  1.00  0.00     0.000 HD 
HETATM    5  O   UNL     1      -9.598   8.036  67.358  1.00  0.00    -0.141 OA 
ENDROOT
BRANCH   2   6
HETATM    6  O   UNL     1      -9.685  10.073  66.321  1.00  0.00    -0.188 OA 
BRANCH   6   7
HETATM    7  C   UNL     1     -10.579  10.833  67.178  1.00  0.00    -0.256 C  
BRANCH   7   8
HETATM    8  C   UNL     1     -10.847  12.181  66.490  1.00  0.00    -0.307 A  
HETATM    9  C   UNL     1     -11.465  14.658  65.245  1.00  0.00    -0.361 A  
HETATM   10  C   UNL     1     -12.153  12.493  66.048  1.00  0.00    -0.390 A  
HETATM   11  C   UNL     1      -9.864  13.174  66.315  1.00  0.00    -0.283 A  
HETATM   12  C   UNL     1     -12.460  13.712  65.441  1.00  0.00    -0.537 A  
HETATM   13  C   UNL     1     -10.170  14.388  65.680  1.00  0.00    -0.371 A  
HETATM   14 CL   UNL     1      -8.252  13.016  66.915  1.00  0.00    -0.062 Cl 
ENDBRANCH   7   8
BRANCH   7  15
HETATM   15  C   UNL     1     -10.023  10.910  68.610  1.00  0.00    -0.189 C  
BRANCH  15  16
HETATM   16  N   UNL     1     -10.997  10.574  69.624  1.00  0.00    -0.264 NA 
HETATM   17  N   UNL     1     -10.869   9.485  70.406  1.00  0.00    -0.258 NA 
HETATM   18  N   UNL     1     -12.519  10.886  71.061  1.00  0.00    -0.382 NA 
HETATM   19  C   UNL     1     -11.848   9.721  71.282  1.00  0.00    -0.399 A  
HETATM   20  N   UNL     1     -11.957  11.442  69.996  1.00  0.00    -0.338 NA 
ENDBRANCH  15  16
ENDBRANCH   7  15
ENDBRANCH   6   7
ENDBRANCH   2   6
TORSDOF 5
ENDMDL
MODEL      210
REMARK 921   NORMALIZED FREE ENERGY PREDICTED BY IDOCK:   -3.38 KCAL/MOL
REMARK 922        TOTAL FREE ENERGY PREDICTED BY IDOCK:   -5.17 KCAL/MOL
REMARK 923 INTER-LIGAND FREE ENERGY PREDICTED BY IDOCK:   -4.80 KCAL/MOL
REMARK 924 INTRA-LIGAND FREE ENERGY PREDICTED BY IDOCK:   -0.37 KCAL/MOL
REMARK 927      BINDING AFFINITY PREDICTED BY RF-SCORE:    0.00 PKD
ROOT
HETATM    1  N   UNL     1     -13.551   9.227  72.949  1.00  0.00    -0.787 N  
HETATM    2  C   UNL     1     -12.391   8.806  72.403  1.00  0.00    -0.344 C  
HETATM    3  H1  UNL     1     -14.212   9.853  72.490  1.00  0.00     0.000 HD 
HETATM    4  H2  UNL     1     -13.781   8.898  73.886  1.00  0.00     0.000 HD 
HETATM    5  O   UNL     1     -11.600   8.057  72.952  1.00  0.00    -0.397 OA 
ENDROOT
BRANCH   2   6
HETATM    6  O   UNL     1     -12.268   9.322  71.167  1.00  0.00    -0.297 OA 
BRANCH   6   7
HETATM    7  C   UNL     1     -11.044   9.069  70.424  1.00  0.00    -0.244 C  
BRANCH   7   8
HETATM    8  C   UNL     1     -10.818  10.262  69.482  1.00  0.00    -0.292 A  
HETATM    9  C   UNL     1     -10.519  12.502  67.762  1.00  0.00    -0.230 A  
HETATM   10  C   UNL     1     -11.929  10.911  68.897  1.00  0.00    -0.277 A  
HETATM   11  C   UNL     1      -9.547  10.799  69.199  1.00  0.00    -0.151 A  
HETATM   12  C   UNL     1     -11.785  12.017  68.056  1.00  0.00    -0.398 A  
HETATM   13  C   UNL     1      -9.404  11.893  68.331  1.00  0.00    -0.184 A  
HETATM   14 CL   UNL     1      -8.097  10.215  69.933  1.00  0.00    -0.175 Cl 
ENDBRANCH   7   8
BRANCH   7  15
HETATM   15  C   UNL     1     -11.092   7.685  69.756  1.00  0.00    -0.106 C  
BRANCH  15  16
HETATM   16  N   UNL     1     -10.221   7.571  68.607  1.00  0.00    -0.193 NA 
HETATM   17  N   UNL     1      -8.923   7.230  68.725  1.00  0.00    -0.130 NA 
HETATM   18  N   UNL     1      -9.668   7.254  66.589  1.00  0.00    -0.195 NA 
HETATM   19  C   UNL     1      -8.620   7.051  67.436  1.00  0.00    -0.121 A  
HETATM   20  N   UNL     1     -10.705   7.576  67.351  1.00  0.00    -0.279 NA 
ENDBRANCH  15  16
ENDBRANCH   7  15
ENDBRANCH   6   7
ENDBRANCH   2   6
TORSDOF 5
ENDMDL
MODEL      211
REMARK 921   NORMALIZED FREE ENERGY PREDICTED BY IDOCK:   -3.38 KCAL/MOL
REMARK 922        TOTAL FREE ENERGY PREDICTED BY IDOCK:   -5.17 KCAL/MOL
REMARK 923 INTER-LIGAND FREE ENERGY PREDICTED BY IDOCK:   -5.08 KCAL/MOL
REMARK 924 INTRA-LIGAND FREE ENERGY PREDICTED BY IDOCK:   -0.09 KCAL/MOL
REMARK 927      BINDING AFFINITY PREDICTED BY RF-SCORE:    0.00 PKD
ROOT
HETATM    1  N   UNL     1     -12.276  14.184  67.056  1.00  0.00    -0.555 N  
HETATM    2  C   UNL     1     -11.788  13.095  66.427  1.00  0.00    -0.400 C  
HETATM    3  H1  UNL     1     -11.776  14.712  67.771  1.00  0.00     0.000 HD 
HETATM    4  H2  UNL     1     -13.211  14.500  66.800  1.00  0.00     0.000 HD 
HETATM    5  O   UNL     1     -12.386  12.463  65.573  1.00  0.00    -0.621 OA 
ENDROOT
BRANCH   2   6
HETATM    6  O   UNL     1     -10.545  12.842  66.876  1.00  0.00    -0.250 OA 
BRANCH   6   7
HETATM    7  C   UNL     1     -10.373  12.436  68.261  1.00  0.00    -0.227 C  
BRANCH   7   8
HETATM    8  C   UNL     1      -9.188  11.459  68.315  1.00  0.00    -0.183 A  
HETATM    9  C   UNL     1      -6.944   9.727  68.500  1.00  0.00    -0.064 A  
HETATM   10  C   UNL     1      -7.941  11.899  68.815  1.00  0.00    -0.040 A  
HETATM   11  C   UNL     1      -9.279  10.104  67.940  1.00  0.00    -0.138 A  
HETATM   12  C   UNL     1      -6.838  11.047  68.912  1.00  0.00    -0.079 A  
HETATM   13  C   UNL     1      -8.161   9.258  68.013  1.00  0.00    -0.115 A  
HETATM   14 CL   UNL     1     -10.758   9.368  67.436  1.00  0.00    -0.329 Cl 
ENDBRANCH   7   8
BRANCH   7  15
HETATM   15  C   UNL     1     -11.697  11.917  68.843  1.00  0.00    -0.323 C  
BRANCH  15  16
HETATM   16  N   UNL     1     -12.114  12.615  70.038  1.00  0.00    -0.304 NA 
HETATM   17  N   UNL     1     -12.199  13.959  70.087  1.00  0.00    -0.345 NA 
HETATM   18  N   UNL     1     -13.090  12.923  71.891  1.00  0.00    -0.395 NA 
HETATM   19  C   UNL     1     -12.807  14.102  71.268  1.00  0.00    -0.359 A  
HETATM   20  N   UNL     1     -12.653  11.964  71.086  1.00  0.00    -0.348 NA 
ENDBRANCH  15  16
ENDBRANCH   7  15
ENDBRANCH   6   7
ENDBRANCH   2   6
TORSDOF 5
ENDMDL
MODEL      212
REMARK 921   NORMALIZED FREE ENERGY PREDICTED BY IDOCK:   -3.37 KCAL/MOL
REMARK 922        TOTAL FREE ENERGY PREDICTED BY IDOCK:   -5.16 KCAL/MOL
REMARK 923 INTER-LIGAND FREE ENERGY PREDICTED BY IDOCK:   -5.11 KCAL/MOL
REMARK 924 INTRA-LIGAND FREE ENERGY PREDICTED BY IDOCK:   -0.05 KCAL/MOL
REMARK 927      BINDING AFFINITY PREDICTED BY RF-SCORE:    0.00 PKD
ROOT
HETATM    1  N   UNL     1     -10.160  19.538  67.860  1.00  0.00    -0.391 N  
HETATM    2  C   UNL     1      -9.703  18.550  67.063  1.00  0.00    -0.310 C  
HETATM    3  H1  UNL     1     -10.233  19.476  68.875  1.00  0.00     0.000 HD 
HETATM    4  H2  UNL     1     -10.453  20.408  67.415  1.00  0.00     0.000 HD 
HETATM    5  O   UNL     1      -9.617  18.624  65.849  1.00  0.00    -0.479 OA 
ENDROOT
BRANCH   2   6
HETATM    6  O   UNL     1      -9.346  17.498  67.821  1.00  0.00    -0.251 OA 
BRANCH   6   7
HETATM    7  C   UNL     1      -9.703  16.162  67.373  1.00  0.00    -0.233 C  
BRANCH   7   8
HETATM    8  C   UNL     1     -10.490  15.487  68.507  1.00  0.00    -0.238 A  
HETATM    9  C   UNL     1     -11.922  14.339  70.676  1.00  0.00    -0.392 A  
HETATM   10  C   UNL     1     -10.294  15.909  69.842  1.00  0.00    -0.282 A  
HETATM   11  C   UNL     1     -11.458  14.486  68.294  1.00  0.00    -0.311 A  
HETATM   12  C   UNL     1     -11.002  15.351  70.909  1.00  0.00    -0.330 A  
HETATM   13  C   UNL     1     -12.147  13.907  69.371  1.00  0.00    -0.384 A  
HETATM   14 CL   UNL     1     -11.920  13.947  66.719  1.00  0.00    -0.448 Cl 
ENDBRANCH   7   8
BRANCH   7  15
HETATM   15  C   UNL     1      -8.460  15.406  66.875  1.00  0.00    -0.252 C  
BRANCH  15  16
HETATM   16  N   UNL     1      -8.457  14.006  67.234  1.00  0.00    -0.204 NA 
HETATM   17  N   UNL     1      -9.048  13.069  66.465  1.00  0.00    -0.179 NA 
HETATM   18  N   UNL     1      -7.782  12.212  68.133  1.00  0.00    -0.120 NA 
HETATM   19  C   UNL     1      -8.603  11.966  67.074  1.00  0.00    -0.176 A  
HETATM   20  N   UNL     1      -7.679  13.531  68.225  1.00  0.00    -0.128 NA 
ENDBRANCH  15  16
ENDBRANCH   7  15
ENDBRANCH   6   7
ENDBRANCH   2   6
TORSDOF 5
ENDMDL
MODEL      213
REMARK 921   NORMALIZED FREE ENERGY PREDICTED BY IDOCK:   -3.37 KCAL/MOL
REMARK 922        TOTAL FREE ENERGY PREDICTED BY IDOCK:   -5.15 KCAL/MOL
REMARK 923 INTER-LIGAND FREE ENERGY PREDICTED BY IDOCK:   -5.23 KCAL/MOL
REMARK 924 INTRA-LIGAND FREE ENERGY PREDICTED BY IDOCK:    0.08 KCAL/MOL
REMARK 927      BINDING AFFINITY PREDICTED BY RF-SCORE:    0.00 PKD
ROOT
HETATM    1  N   UNL     1     -10.277  11.142  69.520  1.00  0.00    -0.438 N  
HETATM    2  C   UNL     1     -11.073  11.565  68.517  1.00  0.00    -0.236 C  
HETATM    3  H1  UNL     1      -9.481  11.664  69.886  1.00  0.00     0.000 HD 
HETATM    4  H2  UNL     1     -10.484  10.236  69.940  1.00  0.00     0.000 HD 
HETATM    5  O   UNL     1     -12.024  10.941  68.078  1.00  0.00    -0.586 OA 
ENDROOT
BRANCH   2   6
HETATM    6  O   UNL     1     -10.663  12.778  68.105  1.00  0.00    -0.213 OA 
BRANCH   6   7
HETATM    7  C   UNL     1      -9.814  12.865  66.928  1.00  0.00    -0.235 C  
BRANCH   7   8
HETATM    8  C   UNL     1     -10.731  12.886  65.695  1.00  0.00    -0.295 A  
HETATM    9  C   UNL     1     -12.410  13.049  63.410  1.00  0.00    -0.478 A  
HETATM   10  C   UNL     1     -11.368  14.090  65.318  1.00  0.00    -0.321 A  
HETATM   11  C   UNL     1     -10.940  11.769  64.862  1.00  0.00    -0.300 A  
HETATM   12  C   UNL     1     -12.190  14.174  64.191  1.00  0.00    -0.423 A  
HETATM   13  C   UNL     1     -11.788  11.850  63.746  1.00  0.00    -0.558 A  
HETATM   14 CL   UNL     1     -10.135  10.259  65.097  1.00  0.00    -0.384 Cl 
ENDBRANCH   7   8
BRANCH   7  15
HETATM   15  C   UNL     1      -8.743  11.763  66.949  1.00  0.00    -0.189 C  
BRANCH  15  16
HETATM   16  N   UNL     1      -7.619  12.070  67.804  1.00  0.00    -0.120 NA 
HETATM   17  N   UNL     1      -6.910  13.208  67.672  1.00  0.00    -0.147 NA 
HETATM   18  N   UNL     1      -6.406  12.033  69.539  1.00  0.00    -0.117 NA 
HETATM   19  C   UNL     1      -6.159  13.134  68.775  1.00  0.00    -0.079 A  
HETATM   20  N   UNL     1      -7.360  11.355  68.916  1.00  0.00    -0.110 NA 
ENDBRANCH  15  16
ENDBRANCH   7  15
ENDBRANCH   6   7
ENDBRANCH   2   6
TORSDOF 5
ENDMDL
MODEL      214
REMARK 921   NORMALIZED FREE ENERGY PREDICTED BY IDOCK:   -3.36 KCAL/MOL
REMARK 922        TOTAL FREE ENERGY PREDICTED BY IDOCK:   -5.14 KCAL/MOL
REMARK 923 INTER-LIGAND FREE ENERGY PREDICTED BY IDOCK:   -4.24 KCAL/MOL
REMARK 924 INTRA-LIGAND FREE ENERGY PREDICTED BY IDOCK:   -0.91 KCAL/MOL
REMARK 927      BINDING AFFINITY PREDICTED BY RF-SCORE:    0.00 PKD
ROOT
HETATM    1  N   UNL     1     -11.319   6.537  66.957  1.00  0.00    -0.780 N  
HETATM    2  C   UNL     1     -10.748   5.911  68.006  1.00  0.00    -0.252 C  
HETATM    3  H1  UNL     1     -11.898   7.374  67.028  1.00  0.00     0.000 HD 
HETATM    4  H2  UNL     1     -11.163   6.146  66.028  1.00  0.00     0.000 HD 
HETATM    5  O   UNL     1     -10.057   4.910  67.922  1.00  0.00    -0.144 OA 
ENDROOT
BRANCH   2   6
HETATM    6  O   UNL     1     -11.045   6.577  69.137  1.00  0.00    -0.305 OA 
BRANCH   6   7
HETATM    7  C   UNL     1     -10.015   7.394  69.756  1.00  0.00    -0.188 C  
BRANCH   7   8
HETATM    8  C   UNL     1      -9.883   6.946  71.219  1.00  0.00    -0.182 A  
HETATM    9  C   UNL     1      -9.517   6.148  73.921  1.00  0.00    -0.154 A  
HETATM   10  C   UNL     1      -8.608   6.627  71.741  1.00  0.00    -0.126 A  
HETATM   11  C   UNL     1     -10.969   6.883  72.115  1.00  0.00    -0.236 A  
HETATM   12  C   UNL     1      -8.425   6.240  73.070  1.00  0.00    -0.117 A  
HETATM   13  C   UNL     1     -10.785   6.467  73.443  1.00  0.00    -0.295 A  
HETATM   14 CL   UNL     1     -12.570   7.367  71.684  1.00  0.00    -0.373 Cl 
ENDBRANCH   7   8
BRANCH   7  15
HETATM   15  C   UNL     1     -10.303   8.889  69.535  1.00  0.00    -0.213 C  
BRANCH  15  16
HETATM   16  N   UNL     1      -9.958   9.351  68.210  1.00  0.00    -0.167 NA 
HETATM   17  N   UNL     1      -8.681   9.417  67.786  1.00  0.00    -0.117 NA 
HETATM   18  N   UNL     1     -10.204   9.750  66.146  1.00  0.00    -0.242 NA 
HETATM   19  C   UNL     1      -8.888   9.678  66.492  1.00  0.00    -0.142 A  
HETATM   20  N   UNL     1     -10.893   9.524  67.256  1.00  0.00    -0.202 NA 
ENDBRANCH  15  16
ENDBRANCH   7  15
ENDBRANCH   6   7
ENDBRANCH   2   6
TORSDOF 5
ENDMDL
MODEL      215
REMARK 921   NORMALIZED FREE ENERGY PREDICTED BY IDOCK:   -3.36 KCAL/MOL
REMARK 922        TOTAL FREE ENERGY PREDICTED BY IDOCK:   -5.14 KCAL/MOL
REMARK 923 INTER-LIGAND FREE ENERGY PREDICTED BY IDOCK:   -5.20 KCAL/MOL
REMARK 924 INTRA-LIGAND FREE ENERGY PREDICTED BY IDOCK:    0.06 KCAL/MOL
REMARK 927      BINDING AFFINITY PREDICTED BY RF-SCORE:    0.00 PKD
ROOT
HETATM    1  N   UNL     1     -10.126  11.477  69.250  1.00  0.00    -0.423 N  
HETATM    2  C   UNL     1     -11.167  11.820  68.463  1.00  0.00    -0.252 C  
HETATM    3  H1  UNL     1      -9.271  12.023  69.349  1.00  0.00     0.000 HD 
HETATM    4  H2  UNL     1     -10.200  10.610  69.782  1.00  0.00     0.000 HD 
HETATM    5  O   UNL     1     -12.189  11.167  68.344  1.00  0.00    -0.610 OA 
ENDROOT
BRANCH   2   6
HETATM    6  O   UNL     1     -10.901  12.993  67.861  1.00  0.00    -0.231 OA 
BRANCH   6   7
HETATM    7  C   UNL     1     -10.029  12.998  66.698  1.00  0.00    -0.250 C  
BRANCH   7   8
HETATM    8  C   UNL     1      -9.256  14.326  66.703  1.00  0.00    -0.276 A  
HETATM    9  C   UNL     1      -7.725  16.718  66.752  1.00  0.00    -0.285 A  
HETATM   10  C   UNL     1      -8.086  14.451  67.486  1.00  0.00    -0.204 A  
HETATM   11  C   UNL     1      -9.614  15.438  65.915  1.00  0.00    -0.351 A  
HETATM   12  C   UNL     1      -7.328  15.624  67.507  1.00  0.00    -0.213 A  
HETATM   13  C   UNL     1      -8.866  16.625  65.960  1.00  0.00    -0.242 A  
HETATM   14 CL   UNL     1     -10.933  15.412  64.800  1.00  0.00    -0.434 Cl 
ENDBRANCH   7   8
BRANCH   7  15
HETATM   15  C   UNL     1     -10.827  12.691  65.420  1.00  0.00    -0.287 C  
BRANCH  15  16
HETATM   16  N   UNL     1     -10.101  11.880  64.469  1.00  0.00    -0.270 NA 
HETATM   17  N   UNL     1     -10.224  10.539  64.432  1.00  0.00    -0.330 NA 
HETATM   18  N   UNL     1      -9.081  11.397  62.678  1.00  0.00    -0.306 NA 
HETATM   19  C   UNL     1      -9.562  10.284  63.300  1.00  0.00    -0.256 A  
HETATM   20  N   UNL     1      -9.443  12.428  63.429  1.00  0.00     0.025 NA 
ENDBRANCH  15  16
ENDBRANCH   7  15
ENDBRANCH   6   7
ENDBRANCH   2   6
TORSDOF 5
ENDMDL
MODEL      216
REMARK 921   NORMALIZED FREE ENERGY PREDICTED BY IDOCK:   -3.35 KCAL/MOL
REMARK 922        TOTAL FREE ENERGY PREDICTED BY IDOCK:   -5.13 KCAL/MOL
REMARK 923 INTER-LIGAND FREE ENERGY PREDICTED BY IDOCK:   -4.78 KCAL/MOL
REMARK 924 INTRA-LIGAND FREE ENERGY PREDICTED BY IDOCK:   -0.35 KCAL/MOL
REMARK 927      BINDING AFFINITY PREDICTED BY RF-SCORE:    0.00 PKD
ROOT
HETATM    1  N   UNL     1     -11.668  11.985  69.837  1.00  0.00    -0.438 N  
HETATM    2  C   UNL     1     -11.696  13.294  69.510  1.00  0.00    -0.322 C  
HETATM    3  H1  UNL     1     -11.372  11.238  69.209  1.00  0.00     0.000 HD 
HETATM    4  H2  UNL     1     -11.963  11.725  70.778  1.00  0.00     0.000 HD 
HETATM    5  O   UNL     1     -12.050  14.187  70.261  1.00  0.00    -0.300 OA 
ENDROOT
BRANCH   2   6
HETATM    6  O   UNL     1     -11.255  13.446  68.248  1.00  0.00    -0.251 OA 
BRANCH   6   7
HETATM    7  C   UNL     1     -10.492  12.369  67.641  1.00  0.00    -0.216 C  
BRANCH   7   8
HETATM    8  C   UNL     1      -9.017  12.802  67.615  1.00  0.00    -0.191 A  
HETATM    9  C   UNL     1      -6.323  13.702  67.636  1.00  0.00    -0.149 A  
HETATM   10  C   UNL     1      -8.680  14.151  67.868  1.00  0.00    -0.182 A  
HETATM   11  C   UNL     1      -7.948  11.909  67.405  1.00  0.00    -0.162 A  
HETATM   12  C   UNL     1      -7.356  14.594  67.885  1.00  0.00    -0.164 A  
HETATM   13  C   UNL     1      -6.620  12.363  67.395  1.00  0.00    -0.157 A  
HETATM   14 CL   UNL     1      -8.171  10.206  67.215  1.00  0.00    -0.117 Cl 
ENDBRANCH   7   8
BRANCH   7  15
HETATM   15  C   UNL     1     -11.098  11.971  66.285  1.00  0.00    -0.317 C  
BRANCH  15  16
HETATM   16  N   UNL     1     -11.489  13.104  65.476  1.00  0.00    -0.308 NA 
HETATM   17  N   UNL     1     -12.770  13.513  65.391  1.00  0.00    -0.615 NA 
HETATM   18  N   UNL     1     -11.292  14.949  64.459  1.00  0.00    -0.339 NA 
HETATM   19  C   UNL     1     -12.595  14.665  64.738  1.00  0.00    -0.155 A  
HETATM   20  N   UNL     1     -10.579  13.944  64.949  1.00  0.00    -0.398 NA 
ENDBRANCH  15  16
ENDBRANCH   7  15
ENDBRANCH   6   7
ENDBRANCH   2   6
TORSDOF 5
ENDMDL
MODEL      217
REMARK 921   NORMALIZED FREE ENERGY PREDICTED BY IDOCK:   -3.34 KCAL/MOL
REMARK 922        TOTAL FREE ENERGY PREDICTED BY IDOCK:   -5.12 KCAL/MOL
REMARK 923 INTER-LIGAND FREE ENERGY PREDICTED BY IDOCK:   -4.26 KCAL/MOL
REMARK 924 INTRA-LIGAND FREE ENERGY PREDICTED BY IDOCK:   -0.86 KCAL/MOL
REMARK 927      BINDING AFFINITY PREDICTED BY RF-SCORE:    0.00 PKD
ROOT
HETATM    1  N   UNL     1      -9.633  12.013  65.311  1.00  0.00    -0.405 N  
HETATM    2  C   UNL     1      -9.869  10.710  65.053  1.00  0.00    -0.293 C  
HETATM    3  H1  UNL     1      -9.701  12.441  66.234  1.00  0.00     0.000 HD 
HETATM    4  H2  UNL     1      -9.368  12.611  64.529  1.00  0.00     0.000 HD 
HETATM    5  O   UNL     1      -9.789  10.198  63.950  1.00  0.00    -0.274 OA 
ENDROOT
BRANCH   2   6
HETATM    6  O   UNL     1     -10.182  10.079  66.199  1.00  0.00    -0.247 OA 
BRANCH   6   7
HETATM    7  C   UNL     1      -9.104   9.612  67.055  1.00  0.00    -0.135 C  
BRANCH   7   8
HETATM    8  C   UNL     1      -9.325   8.112  67.303  1.00  0.00    -0.174 A  
HETATM    9  C   UNL     1      -9.828   5.342  67.679  1.00  0.00    -0.187 A  
HETATM   10  C   UNL     1     -10.575   7.529  66.995  1.00  0.00    -0.409 A  
HETATM   11  C   UNL     1      -8.320   7.246  67.777  1.00  0.00    -0.118 A  
HETATM   12  C   UNL     1     -10.823   6.166  67.173  1.00  0.00    -0.442 A  
HETATM   13  C   UNL     1      -8.581   5.882  67.982  1.00  0.00    -0.113 A  
HETATM   14 CL   UNL     1      -6.699   7.763  68.075  1.00  0.00    -0.062 Cl 
ENDBRANCH   7   8
BRANCH   7  15
HETATM   15  C   UNL     1      -8.990  10.490  68.312  1.00  0.00    -0.139 C  
BRANCH  15  16
HETATM   16  N   UNL     1     -10.206  11.207  68.625  1.00  0.00    -0.198 NA 
HETATM   17  N   UNL     1     -11.144  10.697  69.447  1.00  0.00    -0.241 NA 
HETATM   18  N   UNL     1     -11.485  12.868  68.912  1.00  0.00    -0.284 NA 
HETATM   19  C   UNL     1     -11.926  11.771  69.588  1.00  0.00    -0.312 A  
HETATM   20  N   UNL     1     -10.365  12.504  68.302  1.00  0.00    -0.231 NA 
ENDBRANCH  15  16
ENDBRANCH   7  15
ENDBRANCH   6   7
ENDBRANCH   2   6
TORSDOF 5
ENDMDL
MODEL      218
REMARK 921   NORMALIZED FREE ENERGY PREDICTED BY IDOCK:   -3.33 KCAL/MOL
REMARK 922        TOTAL FREE ENERGY PREDICTED BY IDOCK:   -5.11 KCAL/MOL
REMARK 923 INTER-LIGAND FREE ENERGY PREDICTED BY IDOCK:   -4.95 KCAL/MOL
REMARK 924 INTRA-LIGAND FREE ENERGY PREDICTED BY IDOCK:   -0.17 KCAL/MOL
REMARK 927      BINDING AFFINITY PREDICTED BY RF-SCORE:    0.00 PKD
ROOT
HETATM    1  N   UNL     1     -10.811  17.692  66.975  1.00  0.00    -0.154 N  
HETATM    2  C   UNL     1     -10.172  16.547  66.659  1.00  0.00    -0.300 C  
HETATM    3  H1  UNL     1     -11.218  17.895  67.887  1.00  0.00     0.000 HD 
HETATM    4  H2  UNL     1     -10.892  18.405  66.250  1.00  0.00     0.000 HD 
HETATM    5  O   UNL     1      -9.685  16.304  65.568  1.00  0.00    -0.485 OA 
ENDROOT
BRANCH   2   6
HETATM    6  O   UNL     1     -10.145  15.742  67.736  1.00  0.00    -0.233 OA 
BRANCH   6   7
HETATM    7  C   UNL     1     -11.328  14.958  68.052  1.00  0.00    -0.324 C  
BRANCH   7   8
HETATM    8  C   UNL     1     -11.698  15.245  69.516  1.00  0.00    -0.359 A  
HETATM    9  C   UNL     1     -12.492  15.718  72.201  1.00  0.00    -0.533 A  
HETATM   10  C   UNL     1     -13.056  15.242  69.907  1.00  0.00     0.209 A  
HETATM   11  C   UNL     1     -10.745  15.461  70.531  1.00  0.00    -0.261 A  
HETATM   12  C   UNL     1     -13.449  15.468  71.228  1.00  0.00    -0.560 A  
HETATM   13  C   UNL     1     -11.144  15.716  71.852  1.00  0.00    -0.128 A  
HETATM   14 CL   UNL     1      -9.043  15.364  70.256  1.00  0.00     0.428 Cl 
ENDBRANCH   7   8
BRANCH   7  15
HETATM   15  C   UNL     1     -11.111  13.479  67.692  1.00  0.00    -0.269 C  
BRANCH  15  16
HETATM   16  N   UNL     1     -11.575  13.136  66.367  1.00  0.00    -0.332 NA 
HETATM   17  N   UNL     1     -10.751  12.622  65.432  1.00  0.00    -0.274 NA 
HETATM   18  N   UNL     1     -12.938  12.557  64.854  1.00  0.00    -0.805 NA 
HETATM   19  C   UNL     1     -11.650  12.284  64.503  1.00  0.00    -0.353 A  
HETATM   20  N   UNL     1     -12.886  13.095  66.065  1.00  0.00    -0.213 NA 
ENDBRANCH  15  16
ENDBRANCH   7  15
ENDBRANCH   6   7
ENDBRANCH   2   6
TORSDOF 5
ENDMDL
MODEL      219
REMARK 921   NORMALIZED FREE ENERGY PREDICTED BY IDOCK:   -3.32 KCAL/MOL
REMARK 922        TOTAL FREE ENERGY PREDICTED BY IDOCK:   -5.10 KCAL/MOL
REMARK 923 INTER-LIGAND FREE ENERGY PREDICTED BY IDOCK:   -4.46 KCAL/MOL
REMARK 924 INTRA-LIGAND FREE ENERGY PREDICTED BY IDOCK:   -0.64 KCAL/MOL
REMARK 927      BINDING AFFINITY PREDICTED BY RF-SCORE:    0.00 PKD
ROOT
HETATM    1  N   UNL     1     -11.761   8.069  72.785  1.00  0.00    -0.569 N  
HETATM    2  C   UNL     1     -12.494   8.359  71.691  1.00  0.00    -0.328 C  
HETATM    3  H1  UNL     1     -10.745   8.144  72.838  1.00  0.00     0.000 HD 
HETATM    4  H2  UNL     1     -12.257   7.752  73.618  1.00  0.00     0.000 HD 
HETATM    5  O   UNL     1     -13.708   8.270  71.627  1.00  0.00    -0.358 OA 
ENDROOT
BRANCH   2   6
HETATM    6  O   UNL     1     -11.677   8.778  70.707  1.00  0.00    -0.279 OA 
BRANCH   6   7
HETATM    7  C   UNL     1     -10.748   7.827  70.119  1.00  0.00    -0.240 C  
BRANCH   7   8
HETATM    8  C   UNL     1     -10.264   8.415  68.785  1.00  0.00    -0.223 A  
HETATM    9  C   UNL     1      -9.438   9.603  66.341  1.00  0.00    -0.244 A  
HETATM   10  C   UNL     1     -11.007   9.443  68.163  1.00  0.00    -0.102 A  
HETATM   11  C   UNL     1      -9.067   8.024  68.151  1.00  0.00    -0.134 A  
HETATM   12  C   UNL     1     -10.600  10.033  66.964  1.00  0.00    -0.279 A  
HETATM   13  C   UNL     1      -8.675   8.600  66.933  1.00  0.00    -0.133 A  
HETATM   14 CL   UNL     1      -7.971   6.880  68.839  1.00  0.00    -0.115 Cl 
ENDBRANCH   7   8
BRANCH   7  15
HETATM   15  C   UNL     1     -11.379   6.426  70.046  1.00  0.00    -0.430 C  
BRANCH  15  16
HETATM   16  N   UNL     1     -10.647   5.426  70.789  1.00  0.00    -0.248 NA 
HETATM   17  N   UNL     1     -10.810   5.259  72.116  1.00  0.00    -0.214 NA 
HETATM   18  N   UNL     1      -9.583   3.630  71.137  1.00  0.00    -0.168 NA 
HETATM   19  C   UNL     1     -10.118   4.129  72.287  1.00  0.00    -0.178 A  
HETATM   20  N   UNL     1      -9.938   4.463  70.169  1.00  0.00    -0.218 NA 
ENDBRANCH  15  16
ENDBRANCH   7  15
ENDBRANCH   6   7
ENDBRANCH   2   6
TORSDOF 5
ENDMDL
MODEL      220
REMARK 921   NORMALIZED FREE ENERGY PREDICTED BY IDOCK:   -3.31 KCAL/MOL
REMARK 922        TOTAL FREE ENERGY PREDICTED BY IDOCK:   -5.08 KCAL/MOL
REMARK 923 INTER-LIGAND FREE ENERGY PREDICTED BY IDOCK:   -4.72 KCAL/MOL
REMARK 924 INTRA-LIGAND FREE ENERGY PREDICTED BY IDOCK:   -0.36 KCAL/MOL
REMARK 927      BINDING AFFINITY PREDICTED BY RF-SCORE:    0.00 PKD
ROOT
HETATM    1  N   UNL     1     -11.321  12.613  69.817  1.00  0.00    -0.496 N  
HETATM    2  C   UNL     1     -11.550  11.462  69.153  1.00  0.00    -0.314 C  
HETATM    3  H1  UNL     1     -10.521  13.225  69.656  1.00  0.00     0.000 HD 
HETATM    4  H2  UNL     1     -11.995  12.892  70.530  1.00  0.00     0.000 HD 
HETATM    5  O   UNL     1     -12.506  10.730  69.346  1.00  0.00    -0.333 OA 
ENDROOT
BRANCH   2   6
HETATM    6  O   UNL     1     -10.575  11.271  68.245  1.00  0.00    -0.180 OA 
BRANCH   6   7
HETATM    7  C   UNL     1     -10.890  10.545  67.026  1.00  0.00    -0.225 C  
BRANCH   7   8
HETATM    8  C   UNL     1      -9.958   9.325  66.958  1.00  0.00    -0.286 A  
HETATM    9  C   UNL     1      -8.329   7.005  66.783  1.00  0.00    -0.116 A  
HETATM   10  C   UNL     1     -10.510   8.027  66.872  1.00  0.00    -0.387 A  
HETATM   11  C   UNL     1      -8.553   9.421  66.920  1.00  0.00    -0.127 A  
HETATM   12  C   UNL     1      -9.711   6.885  66.779  1.00  0.00    -0.232 A  
HETATM   13  C   UNL     1      -7.752   8.270  66.855  1.00  0.00    -0.095 A  
HETATM   14 CL   UNL     1      -7.717  10.932  66.880  1.00  0.00    -0.128 Cl 
ENDBRANCH   7   8
BRANCH   7  15
HETATM   15  C   UNL     1     -10.855  11.485  65.810  1.00  0.00    -0.262 C  
BRANCH  15  16
HETATM   16  N   UNL     1     -11.050  12.875  66.153  1.00  0.00    -0.280 NA 
HETATM   17  N   UNL     1     -12.262  13.462  66.097  1.00  0.00    -0.423 NA 
HETATM   18  N   UNL     1     -10.679  14.734  67.094  1.00  0.00    -0.293 NA 
HETATM   19  C   UNL     1     -11.975  14.625  66.689  1.00  0.00    -0.275 A  
HETATM   20  N   UNL     1     -10.087  13.596  66.758  1.00  0.00    -0.263 NA 
ENDBRANCH  15  16
ENDBRANCH   7  15
ENDBRANCH   6   7
ENDBRANCH   2   6
TORSDOF 5
ENDMDL
MODEL      221
REMARK 921   NORMALIZED FREE ENERGY PREDICTED BY IDOCK:   -3.29 KCAL/MOL
REMARK 922        TOTAL FREE ENERGY PREDICTED BY IDOCK:   -5.06 KCAL/MOL
REMARK 923 INTER-LIGAND FREE ENERGY PREDICTED BY IDOCK:   -5.10 KCAL/MOL
REMARK 924 INTRA-LIGAND FREE ENERGY PREDICTED BY IDOCK:    0.04 KCAL/MOL
REMARK 927      BINDING AFFINITY PREDICTED BY RF-SCORE:    0.00 PKD
ROOT
HETATM    1  N   UNL     1     -14.254   9.106  72.966  1.00  0.00    -0.714 N  
HETATM    2  C   UNL     1     -13.726   8.299  72.023  1.00  0.00    -0.337 C  
HETATM    3  H1  UNL     1     -13.713   9.592  73.681  1.00  0.00     0.000 HD 
HETATM    4  H2  UNL     1     -15.265   9.238  72.965  1.00  0.00     0.000 HD 
HETATM    5  O   UNL     1     -14.373   7.718  71.168  1.00  0.00    -0.332 OA 
ENDROOT
BRANCH   2   6
HETATM    6  O   UNL     1     -12.389   8.263  72.167  1.00  0.00    -0.328 OA 
BRANCH   6   7
HETATM    7  C   UNL     1     -11.567   8.015  70.993  1.00  0.00    -0.283 C  
BRANCH   7   8
HETATM    8  C   UNL     1     -10.976   6.603  71.131  1.00  0.00    -0.302 A  
HETATM    9  C   UNL     1      -9.946   3.981  71.494  1.00  0.00    -0.220 A  
HETATM   10  C   UNL     1     -10.920   5.989  72.403  1.00  0.00    -0.303 A  
HETATM   11  C   UNL     1     -10.527   5.838  70.037  1.00  0.00    -0.283 A  
HETATM   12  C   UNL     1     -10.419   4.698  72.583  1.00  0.00    -0.258 A  
HETATM   13  C   UNL     1      -9.999   4.551  70.225  1.00  0.00    -0.288 A  
HETATM   14 CL   UNL     1     -10.649   6.378  68.401  1.00  0.00    -0.268 Cl 
ENDBRANCH   7   8
BRANCH   7  15
HETATM   15  C   UNL     1     -10.551   9.151  70.792  1.00  0.00    -0.260 C  
BRANCH  15  16
HETATM   16  N   UNL     1      -9.320   8.957  71.524  1.00  0.00    -0.266 NA 
HETATM   17  N   UNL     1      -9.309   8.590  72.821  1.00  0.00    -0.257 NA 
HETATM   18  N   UNL     1      -7.272   8.523  71.839  1.00  0.00    -0.109 NA 
HETATM   19  C   UNL     1      -8.006   8.339  72.972  1.00  0.00    -0.140 A  
HETATM   20  N   UNL     1      -8.127   8.909  70.901  1.00  0.00    -0.151 NA 
ENDBRANCH  15  16
ENDBRANCH   7  15
ENDBRANCH   6   7
ENDBRANCH   2   6
TORSDOF 5
ENDMDL
MODEL      222
REMARK 921   NORMALIZED FREE ENERGY PREDICTED BY IDOCK:   -3.28 KCAL/MOL
REMARK 922        TOTAL FREE ENERGY PREDICTED BY IDOCK:   -5.05 KCAL/MOL
REMARK 923 INTER-LIGAND FREE ENERGY PREDICTED BY IDOCK:   -4.42 KCAL/MOL
REMARK 924 INTRA-LIGAND FREE ENERGY PREDICTED BY IDOCK:   -0.63 KCAL/MOL
REMARK 927      BINDING AFFINITY PREDICTED BY RF-SCORE:    0.00 PKD
ROOT
HETATM    1  N   UNL     1      -9.949  14.167  69.333  1.00  0.00    -0.409 N  
HETATM    2  C   UNL     1     -10.501  13.827  68.150  1.00  0.00    -0.249 C  
HETATM    3  H1  UNL     1      -9.285  13.591  69.849  1.00  0.00     0.000 HD 
HETATM    4  H2  UNL     1     -10.215  15.064  69.740  1.00  0.00     0.000 HD 
HETATM    5  O   UNL     1     -11.296  14.516  67.533  1.00  0.00    -0.309 OA 
ENDROOT
BRANCH   2   6
HETATM    6  O   UNL     1     -10.020  12.632  67.763  1.00  0.00    -0.207 OA 
BRANCH   6   7
HETATM    7  C   UNL     1     -10.344  11.458  68.557  1.00  0.00    -0.205 C  
BRANCH   7   8
HETATM    8  C   UNL     1      -9.611  10.259  67.934  1.00  0.00    -0.161 A  
HETATM    9  C   UNL     1      -8.244   8.110  66.677  1.00  0.00    -0.103 A  
HETATM   10  C   UNL     1      -9.525  10.146  66.528  1.00  0.00    -0.214 A  
HETATM   11  C   UNL     1      -8.955   9.270  68.692  1.00  0.00    -0.132 A  
HETATM   12  C   UNL     1      -8.848   9.094  65.908  1.00  0.00    -0.209 A  
HETATM   13  C   UNL     1      -8.300   8.198  68.066  1.00  0.00    -0.129 A  
HETATM   14 CL   UNL     1      -8.845   9.326  70.415  1.00  0.00    -0.245 Cl 
ENDBRANCH   7   8
BRANCH   7  15
HETATM   15  C   UNL     1     -11.867  11.309  68.708  1.00  0.00    -0.329 C  
BRANCH  15  16
HETATM   16  N   UNL     1     -12.303  11.234  70.084  1.00  0.00    -0.291 NA 
HETATM   17  N   UNL     1     -12.867  12.283  70.714  1.00  0.00    -0.097 NA 
HETATM   18  N   UNL     1     -12.997  10.346  71.876  1.00  0.00    -0.456 NA 
HETATM   19  C   UNL     1     -13.277  11.679  71.833  1.00  0.00    -0.369 A  
HETATM   20  N   UNL     1     -12.380  10.059  70.738  1.00  0.00    -0.306 NA 
ENDBRANCH  15  16
ENDBRANCH   7  15
ENDBRANCH   6   7
ENDBRANCH   2   6
TORSDOF 5
ENDMDL
MODEL      223
REMARK 921   NORMALIZED FREE ENERGY PREDICTED BY IDOCK:   -3.28 KCAL/MOL
REMARK 922        TOTAL FREE ENERGY PREDICTED BY IDOCK:   -5.05 KCAL/MOL
REMARK 923 INTER-LIGAND FREE ENERGY PREDICTED BY IDOCK:   -4.53 KCAL/MOL
REMARK 924 INTRA-LIGAND FREE ENERGY PREDICTED BY IDOCK:   -0.51 KCAL/MOL
REMARK 927      BINDING AFFINITY PREDICTED BY RF-SCORE:    0.00 PKD
ROOT
HETATM    1  N   UNL     1      -8.239  11.962  68.940  1.00  0.00    -0.359 N  
HETATM    2  C   UNL     1      -7.859  12.854  68.002  1.00  0.00    -0.149 C  
HETATM    3  H1  UNL     1      -9.035  12.083  69.566  1.00  0.00     0.000 HD 
HETATM    4  H2  UNL     1      -7.690  11.107  69.031  1.00  0.00     0.000 HD 
HETATM    5  O   UNL     1      -6.907  12.710  67.255  1.00  0.00    -0.153 OA 
ENDROOT
BRANCH   2   6
HETATM    6  O   UNL     1      -8.706  13.900  68.015  1.00  0.00    -0.164 OA 
BRANCH   6   7
HETATM    7  C   UNL     1      -8.561  14.926  66.996  1.00  0.00    -0.238 C  
BRANCH   7   8
HETATM    8  C   UNL     1      -9.075  16.247  67.592  1.00  0.00    -0.194 A  
HETATM    9  C   UNL     1     -10.048  18.627  68.799  1.00  0.00    -0.398 A  
HETATM   10  C   UNL     1      -9.942  16.220  68.708  1.00  0.00    -0.237 A  
HETATM   11  C   UNL     1      -8.684  17.516  67.121  1.00  0.00    -0.237 A  
HETATM   12  C   UNL     1     -10.416  17.389  69.307  1.00  0.00    -0.171 A  
HETATM   13  C   UNL     1      -9.185  18.689  67.708  1.00  0.00    -0.306 A  
HETATM   14 CL   UNL     1      -7.528  17.733  65.856  1.00  0.00    -0.268 Cl 
ENDBRANCH   7   8
BRANCH   7  15
HETATM   15  C   UNL     1      -9.222  14.482  65.681  1.00  0.00     0.318 C  
BRANCH  15  16
HETATM   16  N   UNL     1     -10.570  13.991  65.852  1.00  0.00    -0.293 NA 
HETATM   17  N   UNL     1     -11.642  14.805  65.786  1.00  0.00    -0.327 NA 
HETATM   18  N   UNL     1     -12.171  12.606  65.829  1.00  0.00    -0.598 NA 
HETATM   19  C   UNL     1     -12.618  13.892  65.785  1.00  0.00    -0.494 A  
HETATM   20  N   UNL     1     -10.847  12.673  65.858  1.00  0.00    -0.265 NA 
ENDBRANCH  15  16
ENDBRANCH   7  15
ENDBRANCH   6   7
ENDBRANCH   2   6
TORSDOF 5
ENDMDL
MODEL      224
REMARK 921   NORMALIZED FREE ENERGY PREDICTED BY IDOCK:   -3.27 KCAL/MOL
REMARK 922        TOTAL FREE ENERGY PREDICTED BY IDOCK:   -5.02 KCAL/MOL
REMARK 923 INTER-LIGAND FREE ENERGY PREDICTED BY IDOCK:   -4.38 KCAL/MOL
REMARK 924 INTRA-LIGAND FREE ENERGY PREDICTED BY IDOCK:   -0.64 KCAL/MOL
REMARK 927      BINDING AFFINITY PREDICTED BY RF-SCORE:    0.00 PKD
ROOT
HETATM    1  N   UNL     1      -8.256   4.942  69.899  1.00  0.00    -0.072 N  
HETATM    2  C   UNL     1      -9.528   4.771  70.311  1.00  0.00    -0.174 C  
HETATM    3  H1  UNL     1      -7.987   5.349  69.004  1.00  0.00     0.000 HD 
HETATM    4  H2  UNL     1      -7.510   4.641  70.526  1.00  0.00     0.000 HD 
HETATM    5  O   UNL     1      -9.850   4.284  71.381  1.00  0.00    -0.177 OA 
ENDROOT
BRANCH   2   6
HETATM    6  O   UNL     1     -10.367   5.242  69.370  1.00  0.00    -0.247 OA 
BRANCH   6   7
HETATM    7  C   UNL     1     -10.327   6.658  69.045  1.00  0.00    -0.192 C  
BRANCH   7   8
HETATM    8  C   UNL     1     -11.144   7.404  70.112  1.00  0.00    -0.265 A  
HETATM    9  C   UNL     1     -12.699   8.671  72.123  1.00  0.00    -0.447 A  
HETATM   10  C   UNL     1     -12.271   6.779  70.691  1.00  0.00    -0.312 A  
HETATM   11  C   UNL     1     -10.801   8.679  70.603  1.00  0.00    -0.229 A  
HETATM   12  C   UNL     1     -13.034   7.398  71.685  1.00  0.00    -0.409 A  
HETATM   13  C   UNL     1     -11.586   9.309  71.582  1.00  0.00    -0.463 A  
HETATM   14 CL   UNL     1      -9.381   9.526  70.105  1.00  0.00    -0.264 Cl 
ENDBRANCH   7   8
BRANCH   7  15
HETATM   15  C   UNL     1     -10.755   6.892  67.587  1.00  0.00    -0.274 C  
BRANCH  15  16
HETATM   16  N   UNL     1      -9.978   7.910  66.916  1.00  0.00    -0.236 NA 
HETATM   17  N   UNL     1     -10.513   9.091  66.548  1.00  0.00    -0.190 NA 
HETATM   18  N   UNL     1      -8.262   9.007  66.340  1.00  0.00    -0.110 NA 
HETATM   19  C   UNL     1      -9.401   9.738  66.187  1.00  0.00    -0.191 A  
HETATM   20  N   UNL     1      -8.637   7.831  66.825  1.00  0.00    -0.128 NA 
ENDBRANCH  15  16
ENDBRANCH   7  15
ENDBRANCH   6   7
ENDBRANCH   2   6
TORSDOF 5
ENDMDL
MODEL      225
REMARK 921   NORMALIZED FREE ENERGY PREDICTED BY IDOCK:   -3.26 KCAL/MOL
REMARK 922        TOTAL FREE ENERGY PREDICTED BY IDOCK:   -5.02 KCAL/MOL
REMARK 923 INTER-LIGAND FREE ENERGY PREDICTED BY IDOCK:   -4.49 KCAL/MOL
REMARK 924 INTRA-LIGAND FREE ENERGY PREDICTED BY IDOCK:   -0.54 KCAL/MOL
REMARK 927      BINDING AFFINITY PREDICTED BY RF-SCORE:    0.00 PKD
ROOT
HETATM    1  N   UNL     1     -11.462   6.410  68.959  1.00  0.00    -0.591 N  
HETATM    2  C   UNL     1     -10.888   6.616  67.756  1.00  0.00    -0.294 C  
HETATM    3  H1  UNL     1     -11.252   6.947  69.800  1.00  0.00     0.000 HD 
HETATM    4  H2  UNL     1     -12.152   5.663  69.034  1.00  0.00     0.000 HD 
HETATM    5  O   UNL     1     -11.138   5.973  66.751  1.00  0.00    -0.291 OA 
ENDROOT
BRANCH   2   6
HETATM    6  O   UNL     1     -10.027   7.646  67.845  1.00  0.00    -0.155 OA 
BRANCH   6   7
HETATM    7  C   UNL     1     -10.174   8.585  68.945  1.00  0.00    -0.207 C  
BRANCH   7   8
HETATM    8  C   UNL     1     -10.662   9.918  68.355  1.00  0.00    -0.271 A  
HETATM    9  C   UNL     1     -11.559  12.329  67.151  1.00  0.00    -0.423 A  
HETATM   10  C   UNL     1     -10.440  10.201  66.988  1.00  0.00    -0.302 A  
HETATM   11  C   UNL     1     -11.383  10.877  69.093  1.00  0.00    -0.283 A  
HETATM   12  C   UNL     1     -10.886  11.383  66.393  1.00  0.00    -0.323 A  
HETATM   13  C   UNL     1     -11.806  12.076  68.498  1.00  0.00    -0.369 A  
HETATM   14 CL   UNL     1     -11.859  10.634  70.735  1.00  0.00    -0.442 Cl 
ENDBRANCH   7   8
BRANCH   7  15
HETATM   15  C   UNL     1      -8.883   8.653  69.777  1.00  0.00    -0.137 C  
BRANCH  15  16
HETATM   16  N   UNL     1      -7.846   9.453  69.166  1.00  0.00    -0.078 NA 
HETATM   17  N   UNL     1      -7.448  10.629  69.689  1.00  0.00    -0.143 NA 
HETATM   18  N   UNL     1      -6.122   9.884  68.015  1.00  0.00    -0.053 NA 
HETATM   19  C   UNL     1      -6.374  10.861  68.930  1.00  0.00    -0.046 A  
HETATM   20  N   UNL     1      -7.067   8.968  68.180  1.00  0.00    -0.077 NA 
ENDBRANCH  15  16
ENDBRANCH   7  15
ENDBRANCH   6   7
ENDBRANCH   2   6
TORSDOF 5
ENDMDL
MODEL      226
REMARK 921   NORMALIZED FREE ENERGY PREDICTED BY IDOCK:   -3.24 KCAL/MOL
REMARK 922        TOTAL FREE ENERGY PREDICTED BY IDOCK:   -4.99 KCAL/MOL
REMARK 923 INTER-LIGAND FREE ENERGY PREDICTED BY IDOCK:   -4.41 KCAL/MOL
REMARK 924 INTRA-LIGAND FREE ENERGY PREDICTED BY IDOCK:   -0.58 KCAL/MOL
REMARK 927      BINDING AFFINITY PREDICTED BY RF-SCORE:    0.00 PKD
ROOT
HETATM    1  N   UNL     1      -9.098   4.806  68.057  1.00  0.00    -0.112 N  
HETATM    2  C   UNL     1      -9.859   5.800  68.559  1.00  0.00    -0.141 C  
HETATM    3  H1  UNL     1      -8.970   3.896  68.498  1.00  0.00     0.000 HD 
HETATM    4  H2  UNL     1      -8.617   4.977  67.174  1.00  0.00     0.000 HD 
HETATM    5  O   UNL     1     -10.012   6.888  68.031  1.00  0.00    -0.145 OA 
ENDROOT
BRANCH   2   6
HETATM    6  O   UNL     1     -10.427   5.388  69.706  1.00  0.00    -0.284 OA 
BRANCH   6   7
HETATM    7  C   UNL     1     -10.673   6.366  70.753  1.00  0.00    -0.250 C  
BRANCH   7   8
HETATM    8  C   UNL     1     -10.159   5.772  72.074  1.00  0.00    -0.225 A  
HETATM    9  C   UNL     1      -9.307   4.595  74.515  1.00  0.00    -0.132 A  
HETATM   10  C   UNL     1     -11.051   5.078  72.923  1.00  0.00    -0.348 A  
HETATM   11  C   UNL     1      -8.810   5.826  72.478  1.00  0.00    -0.130 A  
HETATM   12  C   UNL     1     -10.633   4.494  74.121  1.00  0.00    -0.335 A  
HETATM   13  C   UNL     1      -8.399   5.261  73.696  1.00  0.00    -0.112 A  
HETATM   14 CL   UNL     1      -7.564   6.514  71.500  1.00  0.00    -0.093 Cl 
ENDBRANCH   7   8
BRANCH   7  15
HETATM   15  C   UNL     1     -12.145   6.811  70.746  1.00  0.00    -0.347 C  
BRANCH  15  16
HETATM   16  N   UNL     1     -12.351   8.127  71.307  1.00  0.00    -0.293 NA 
HETATM   17  N   UNL     1     -11.653   9.200  70.886  1.00  0.00    -0.281 NA 
HETATM   18  N   UNL     1     -13.376   9.715  72.259  1.00  0.00    -0.439 NA 
HETATM   19  C   UNL     1     -12.326  10.167  71.517  1.00  0.00    -0.408 A  
HETATM   20  N   UNL     1     -13.397   8.398  72.110  1.00  0.00    -0.331 NA 
ENDBRANCH  15  16
ENDBRANCH   7  15
ENDBRANCH   6   7
ENDBRANCH   2   6
TORSDOF 5
ENDMDL
MODEL      227
REMARK 921   NORMALIZED FREE ENERGY PREDICTED BY IDOCK:   -3.23 KCAL/MOL
REMARK 922        TOTAL FREE ENERGY PREDICTED BY IDOCK:   -4.98 KCAL/MOL
REMARK 923 INTER-LIGAND FREE ENERGY PREDICTED BY IDOCK:   -4.52 KCAL/MOL
REMARK 924 INTRA-LIGAND FREE ENERGY PREDICTED BY IDOCK:   -0.47 KCAL/MOL
REMARK 927      BINDING AFFINITY PREDICTED BY RF-SCORE:    0.00 PKD
ROOT
HETATM    1  N   UNL     1     -11.525  11.113  70.474  1.00  0.00    -0.448 N  
HETATM    2  C   UNL     1     -11.977  10.195  71.353  1.00  0.00    -0.358 C  
HETATM    3  H1  UNL     1     -10.547  11.227  70.209  1.00  0.00     0.000 HD 
HETATM    4  H2  UNL     1     -12.209  11.737  70.046  1.00  0.00     0.000 HD 
HETATM    5  O   UNL     1     -13.146  10.058  71.672  1.00  0.00    -0.381 OA 
ENDROOT
BRANCH   2   6
HETATM    6  O   UNL     1     -10.943   9.455  71.795  1.00  0.00    -0.363 OA 
BRANCH   6   7
HETATM    7  C   UNL     1     -10.662   8.189  71.139  1.00  0.00    -0.221 C  
BRANCH   7   8
HETATM    8  C   UNL     1     -10.639   7.100  72.224  1.00  0.00    -0.244 A  
HETATM    9  C   UNL     1     -10.652   5.010  74.148  1.00  0.00    -0.338 A  
HETATM   10  C   UNL     1     -11.525   6.003  72.133  1.00  0.00    -0.356 A  
HETATM   11  C   UNL     1      -9.732   7.095  73.302  1.00  0.00    -0.210 A  
HETATM   12  C   UNL     1     -11.529   4.971  73.074  1.00  0.00    -0.344 A  
HETATM   13  C   UNL     1      -9.757   6.071  74.261  1.00  0.00    -0.221 A  
HETATM   14 CL   UNL     1      -8.494   8.285  73.492  1.00  0.00    -0.295 Cl 
ENDBRANCH   7   8
BRANCH   7  15
HETATM   15  C   UNL     1      -9.399   8.296  70.269  1.00  0.00    -0.159 C  
BRANCH  15  16
HETATM   16  N   UNL     1      -8.980   7.033  69.706  1.00  0.00    -0.142 NA 
HETATM   17  N   UNL     1      -7.859   6.405  70.112  1.00  0.00    -0.105 NA 
HETATM   18  N   UNL     1      -9.167   5.148  68.760  1.00  0.00    -0.114 NA 
HETATM   19  C   UNL     1      -8.018   5.235  69.486  1.00  0.00    -0.088 A  
HETATM   20  N   UNL     1      -9.793   6.307  68.915  1.00  0.00    -0.132 NA 
ENDBRANCH  15  16
ENDBRANCH   7  15
ENDBRANCH   6   7
ENDBRANCH   2   6
TORSDOF 5
ENDMDL
MODEL      228
REMARK 921   NORMALIZED FREE ENERGY PREDICTED BY IDOCK:   -3.23 KCAL/MOL
REMARK 922        TOTAL FREE ENERGY PREDICTED BY IDOCK:   -4.98 KCAL/MOL
REMARK 923 INTER-LIGAND FREE ENERGY PREDICTED BY IDOCK:   -5.60 KCAL/MOL
REMARK 924 INTRA-LIGAND FREE ENERGY PREDICTED BY IDOCK:    0.62 KCAL/MOL
REMARK 927      BINDING AFFINITY PREDICTED BY RF-SCORE:    0.00 PKD
ROOT
HETATM    1  N   UNL     1      -8.886  11.615  68.972  1.00  0.00    -0.373 N  
HETATM    2  C   UNL     1      -9.070  12.183  67.763  1.00  0.00    -0.189 C  
HETATM    3  H1  UNL     1      -9.632  11.228  69.549  1.00  0.00     0.000 HD 
HETATM    4  H2  UNL     1      -7.934  11.569  69.335  1.00  0.00     0.000 HD 
HETATM    5  O   UNL     1      -8.178  12.647  67.073  1.00  0.00    -0.171 OA 
ENDROOT
BRANCH   2   6
HETATM    6  O   UNL     1     -10.376  12.134  67.442  1.00  0.00    -0.203 OA 
BRANCH   6   7
HETATM    7  C   UNL     1     -10.778  11.380  66.266  1.00  0.00    -0.270 C  
BRANCH   7   8
HETATM    8  C   UNL     1     -10.206   9.961  66.407  1.00  0.00    -0.292 A  
HETATM    9  C   UNL     1      -9.255   7.303  66.722  1.00  0.00    -0.187 A  
HETATM   10  C   UNL     1     -10.751   9.079  67.368  1.00  0.00    -0.231 A  
HETATM   11  C   UNL     1      -9.184   9.449  65.583  1.00  0.00    -0.226 A  
HETATM   12  C   UNL     1     -10.289   7.770  67.520  1.00  0.00    -0.333 A  
HETATM   13  C   UNL     1      -8.704   8.142  65.757  1.00  0.00    -0.183 A  
HETATM   14 CL   UNL     1      -8.500  10.342  64.272  1.00  0.00    -0.174 Cl 
ENDBRANCH   7   8
BRANCH   7  15
HETATM   15  C   UNL     1     -10.395  12.134  64.982  1.00  0.00    -0.287 C  
BRANCH  15  16
HETATM   16  N   UNL     1     -11.127  13.367  64.798  1.00  0.00    -0.333 NA 
HETATM   17  N   UNL     1     -10.581  14.569  65.066  1.00  0.00    -0.413 NA 
HETATM   18  N   UNL     1     -12.569  14.691  63.994  1.00  0.00    -0.805 NA 
HETATM   19  C   UNL     1     -11.525  15.363  64.553  1.00  0.00    -0.311 A  
HETATM   20  N   UNL     1     -12.302  13.400  64.142  1.00  0.00    -0.621 NA 
ENDBRANCH  15  16
ENDBRANCH   7  15
ENDBRANCH   6   7
ENDBRANCH   2   6
TORSDOF 5
ENDMDL
MODEL      229
REMARK 921   NORMALIZED FREE ENERGY PREDICTED BY IDOCK:   -3.23 KCAL/MOL
REMARK 922        TOTAL FREE ENERGY PREDICTED BY IDOCK:   -4.97 KCAL/MOL
REMARK 923 INTER-LIGAND FREE ENERGY PREDICTED BY IDOCK:   -4.51 KCAL/MOL
REMARK 924 INTRA-LIGAND FREE ENERGY PREDICTED BY IDOCK:   -0.47 KCAL/MOL
REMARK 927      BINDING AFFINITY PREDICTED BY RF-SCORE:    0.00 PKD
ROOT
HETATM    1  N   UNL     1      -7.095   7.947  68.432  1.00  0.00    -0.078 N  
HETATM    2  C   UNL     1      -7.816   8.039  69.568  1.00  0.00    -0.105 C  
HETATM    3  H1  UNL     1      -7.481   7.704  67.520  1.00  0.00     0.000 HD 
HETATM    4  H2  UNL     1      -6.094   8.132  68.490  1.00  0.00     0.000 HD 
HETATM    5  O   UNL     1      -7.356   8.329  70.659  1.00  0.00    -0.053 OA 
ENDROOT
BRANCH   2   6
HETATM    6  O   UNL     1      -9.109   7.784  69.296  1.00  0.00    -0.145 OA 
BRANCH   6   7
HETATM    7  C   UNL     1      -9.999   8.902  69.029  1.00  0.00    -0.190 C  
BRANCH   7   8
HETATM    8  C   UNL     1     -11.030   8.956  70.167  1.00  0.00    -0.245 A  
HETATM    9  C   UNL     1     -12.964   9.174  72.237  1.00  0.00    -0.492 A  
HETATM   10  C   UNL     1     -11.460  10.208  70.662  1.00  0.00    -0.432 A  
HETATM   11  C   UNL     1     -11.633   7.812  70.726  1.00  0.00    -0.255 A  
HETATM   12  C   UNL     1     -12.415  10.318  71.676  1.00  0.00    -0.491 A  
HETATM   13  C   UNL     1     -12.572   7.925  71.764  1.00  0.00    -0.353 A  
HETATM   14 CL   UNL     1     -11.327   6.213  70.149  1.00  0.00    -0.463 Cl 
ENDBRANCH   7   8
BRANCH   7  15
HETATM   15  C   UNL     1     -10.575   8.809  67.606  1.00  0.00    -0.213 C  
BRANCH  15  16
HETATM   16  N   UNL     1      -9.817   9.558  66.630  1.00  0.00    -0.213 NA 
HETATM   17  N   UNL     1      -8.830   8.995  65.905  1.00  0.00    -0.164 NA 
HETATM   18  N   UNL     1      -9.404  11.069  65.205  1.00  0.00    -0.211 NA 
HETATM   19  C   UNL     1      -8.600   9.982  65.034  1.00  0.00    -0.162 A  
HETATM   20  N   UNL     1     -10.199  10.786  66.228  1.00  0.00    -0.238 NA 
ENDBRANCH  15  16
ENDBRANCH   7  15
ENDBRANCH   6   7
ENDBRANCH   2   6
TORSDOF 5
ENDMDL
MODEL      230
REMARK 921   NORMALIZED FREE ENERGY PREDICTED BY IDOCK:   -3.15 KCAL/MOL
REMARK 922        TOTAL FREE ENERGY PREDICTED BY IDOCK:   -4.88 KCAL/MOL
REMARK 923 INTER-LIGAND FREE ENERGY PREDICTED BY IDOCK:   -4.72 KCAL/MOL
REMARK 924 INTRA-LIGAND FREE ENERGY PREDICTED BY IDOCK:   -0.16 KCAL/MOL
REMARK 927      BINDING AFFINITY PREDICTED BY RF-SCORE:    0.00 PKD
ROOT
HETATM    1  N   UNL     1      -6.445  13.922  67.432  1.00  0.00    -0.147 N  
HETATM    2  C   UNL     1      -6.320  14.957  68.288  1.00  0.00    -0.121 C  
HETATM    3  H1  UNL     1      -7.174  13.211  67.486  1.00  0.00     0.000 HD 
HETATM    4  H2  UNL     1      -5.761  13.844  66.679  1.00  0.00     0.000 HD 
HETATM    5  O   UNL     1      -5.448  15.807  68.224  1.00  0.00    -0.098 OA 
ENDROOT
BRANCH   2   6
HETATM    6  O   UNL     1      -7.314  14.908  69.193  1.00  0.00    -0.135 OA 
BRANCH   6   7
HETATM    7  C   UNL     1      -8.510  15.699  68.959  1.00  0.00    -0.231 C  
BRANCH   7   8
HETATM    8  C   UNL     1      -9.709  14.737  68.956  1.00  0.00    -0.190 A  
HETATM    9  C   UNL     1     -11.845  12.865  68.930  1.00  0.00    -0.352 A  
HETATM   10  C   UNL     1      -9.587  13.470  68.343  1.00  0.00    -0.196 A  
HETATM   11  C   UNL     1     -10.936  15.021  69.588  1.00  0.00    -0.279 A  
HETATM   12  C   UNL     1     -10.634  12.545  68.335  1.00  0.00    -0.256 A  
HETATM   13  C   UNL     1     -11.995  14.101  69.554  1.00  0.00    -0.389 A  
HETATM   14 CL   UNL     1     -11.211  16.464  70.498  1.00  0.00    -0.332 Cl 
ENDBRANCH   7   8
BRANCH   7  15
HETATM   15  C   UNL     1      -8.347  16.572  67.704  1.00  0.00    -0.165 C  
BRANCH  15  16
HETATM   16  N   UNL     1      -9.170  17.760  67.719  1.00  0.00    -0.253 NA 
HETATM   17  N   UNL     1     -10.226  17.909  66.896  1.00  0.00    -0.342 NA 
HETATM   18  N   UNL     1     -10.091  19.498  68.500  1.00  0.00    -0.432 NA 
HETATM   19  C   UNL     1     -10.764  19.014  67.419  1.00  0.00    -0.473 A  
HETATM   20  N   UNL     1      -9.069  18.677  68.699  1.00  0.00    -0.328 NA 
ENDBRANCH  15  16
ENDBRANCH   7  15
ENDBRANCH   6   7
ENDBRANCH   2   6
TORSDOF 5
ENDMDL
MODEL      231
REMARK 921   NORMALIZED FREE ENERGY PREDICTED BY IDOCK:   -3.14 KCAL/MOL
REMARK 922        TOTAL FREE ENERGY PREDICTED BY IDOCK:   -4.87 KCAL/MOL
REMARK 923 INTER-LIGAND FREE ENERGY PREDICTED BY IDOCK:   -4.53 KCAL/MOL
REMARK 924 INTRA-LIGAND FREE ENERGY PREDICTED BY IDOCK:   -0.33 KCAL/MOL
REMARK 927      BINDING AFFINITY PREDICTED BY RF-SCORE:    0.00 PKD
ROOT
HETATM    1  N   UNL     1     -12.684  10.415  71.570  1.00  0.00    -0.422 N  
HETATM    2  C   UNL     1     -12.144   9.195  71.769  1.00  0.00    -0.376 C  
HETATM    3  H1  UNL     1     -12.499  11.004  70.758  1.00  0.00     0.000 HD 
HETATM    4  H2  UNL     1     -13.321  10.773  72.281  1.00  0.00     0.000 HD 
HETATM    5  O   UNL     1     -12.364   8.490  72.739  1.00  0.00    -0.327 OA 
ENDROOT
BRANCH   2   6
HETATM    6  O   UNL     1     -11.353   8.883  70.725  1.00  0.00    -0.267 OA 
BRANCH   6   7
HETATM    7  C   UNL     1     -10.260   9.779  70.386  1.00  0.00    -0.281 C  
BRANCH   7   8
HETATM    8  C   UNL     1     -10.401  10.142  68.900  1.00  0.00    -0.223 A  
HETATM    9  C   UNL     1     -10.637  10.932  66.181  1.00  0.00    -0.270 A  
HETATM   10  C   UNL     1     -10.660  11.481  68.528  1.00  0.00    -0.236 A  
HETATM   11  C   UNL     1     -10.230   9.214  67.853  1.00  0.00    -0.216 A  
HETATM   12  C   UNL     1     -10.770  11.872  67.192  1.00  0.00    -0.280 A  
HETATM   13  C   UNL     1     -10.369   9.606  66.512  1.00  0.00    -0.264 A  
HETATM   14 CL   UNL     1      -9.776   7.569  68.122  1.00  0.00    -0.158 Cl 
ENDBRANCH   7   8
BRANCH   7  15
HETATM   15  C   UNL     1      -8.911   9.171  70.803  1.00  0.00    -0.239 C  
BRANCH  15  16
HETATM   16  N   UNL     1      -9.013   8.254  71.916  1.00  0.00    -0.167 NA 
HETATM   17  N   UNL     1      -9.061   6.919  71.740  1.00  0.00    -0.139 NA 
HETATM   18  N   UNL     1      -8.800   7.544  73.899  1.00  0.00    -0.222 NA 
HETATM   19  C   UNL     1      -8.934   6.521  73.009  1.00  0.00    -0.128 A  
HETATM   20  N   UNL     1      -8.838   8.662  73.187  1.00  0.00    -0.318 NA 
ENDBRANCH  15  16
ENDBRANCH   7  15
ENDBRANCH   6   7
ENDBRANCH   2   6
TORSDOF 5
ENDMDL
MODEL      232
REMARK 921   NORMALIZED FREE ENERGY PREDICTED BY IDOCK:   -3.13 KCAL/MOL
REMARK 922        TOTAL FREE ENERGY PREDICTED BY IDOCK:   -4.85 KCAL/MOL
REMARK 923 INTER-LIGAND FREE ENERGY PREDICTED BY IDOCK:   -3.62 KCAL/MOL
REMARK 924 INTRA-LIGAND FREE ENERGY PREDICTED BY IDOCK:   -1.23 KCAL/MOL
REMARK 927      BINDING AFFINITY PREDICTED BY RF-SCORE:    0.00 PKD
ROOT
HETATM    1  N   UNL     1      -7.367   8.679  67.802  1.00  0.00    -0.091 N  
HETATM    2  C   UNL     1      -7.211   7.574  68.560  1.00  0.00    -0.090 C  
HETATM    3  H1  UNL     1      -8.208   8.904  67.272  1.00  0.00     0.000 HD 
HETATM    4  H2  UNL     1      -6.587   9.335  67.755  1.00  0.00     0.000 HD 
HETATM    5  O   UNL     1      -6.205   7.305  69.193  1.00  0.00    -0.033 OA 
ENDROOT
BRANCH   2   6
HETATM    6  O   UNL     1      -8.341   6.844  68.518  1.00  0.00    -0.120 OA 
BRANCH   6   7
HETATM    7  C   UNL     1      -9.566   7.425  69.042  1.00  0.00    -0.148 C  
BRANCH   7   8
HETATM    8  C   UNL     1      -9.960   6.626  70.294  1.00  0.00    -0.191 A  
HETATM    9  C   UNL     1     -10.608   5.060  72.574  1.00  0.00    -0.277 A  
HETATM   10  C   UNL     1      -9.718   5.234  70.341  1.00  0.00    -0.259 A  
HETATM   11  C   UNL     1     -10.511   7.214  71.450  1.00  0.00    -0.204 A  
HETATM   12  C   UNL     1     -10.030   4.464  71.463  1.00  0.00    -0.250 A  
HETATM   13  C   UNL     1     -10.849   6.431  72.566  1.00  0.00    -0.268 A  
HETATM   14 CL   UNL     1     -10.747   8.917  71.616  1.00  0.00    -0.391 Cl 
ENDBRANCH   7   8
BRANCH   7  15
HETATM   15  C   UNL     1     -10.636   7.518  67.941  1.00  0.00    -0.185 C  
BRANCH  15  16
HETATM   16  N   UNL     1     -10.358   8.536  66.954  1.00  0.00    -0.302 NA 
HETATM   17  N   UNL     1     -10.612   9.840  67.180  1.00  0.00    -0.248 NA 
HETATM   18  N   UNL     1      -9.410   9.460  65.301  1.00  0.00    -0.250 NA 
HETATM   19  C   UNL     1     -10.008  10.375  66.115  1.00  0.00    -0.231 A  
HETATM   20  N   UNL     1      -9.626   8.274  65.854  1.00  0.00    -0.080 NA 
ENDBRANCH  15  16
ENDBRANCH   7  15
ENDBRANCH   6   7
ENDBRANCH   2   6
TORSDOF 5
ENDMDL
MODEL      233
REMARK 921   NORMALIZED FREE ENERGY PREDICTED BY IDOCK:   -3.07 KCAL/MOL
REMARK 922        TOTAL FREE ENERGY PREDICTED BY IDOCK:   -4.77 KCAL/MOL
REMARK 923 INTER-LIGAND FREE ENERGY PREDICTED BY IDOCK:   -4.31 KCAL/MOL
REMARK 924 INTRA-LIGAND FREE ENERGY PREDICTED BY IDOCK:   -0.46 KCAL/MOL
REMARK 927      BINDING AFFINITY PREDICTED BY RF-SCORE:    0.00 PKD
ROOT
HETATM    1  N   UNL     1      -6.518  11.342  66.050  1.00  0.00    -0.369 N  
HETATM    2  C   UNL     1      -7.073  10.117  66.157  1.00  0.00    -0.114 C  
HETATM    3  H1  UNL     1      -6.924  12.196  66.431  1.00  0.00     0.000 HD 
HETATM    4  H2  UNL     1      -5.631  11.419  65.553  1.00  0.00     0.000 HD 
HETATM    5  O   UNL     1      -6.588   9.095  65.701  1.00  0.00    -0.067 OA 
ENDROOT
BRANCH   2   6
HETATM    6  O   UNL     1      -8.218  10.207  66.857  1.00  0.00    -0.120 OA 
BRANCH   6   7
HETATM    7  C   UNL     1      -9.449   9.732  66.246  1.00  0.00    -0.195 C  
BRANCH   7   8
HETATM    8  C   UNL     1     -10.092  10.920  65.513  1.00  0.00    -0.325 A  
HETATM    9  C   UNL     1     -11.312  13.037  64.065  1.00  0.00    -0.458 A  
HETATM   10  C   UNL     1     -10.301  10.850  64.117  1.00  0.00    -0.432 A  
HETATM   11  C   UNL     1     -10.550  12.081  66.166  1.00  0.00    -0.263 A  
HETATM   12  C   UNL     1     -10.906  11.887  63.404  1.00  0.00    -0.469 A  
HETATM   13  C   UNL     1     -11.132  13.133  65.442  1.00  0.00    -0.299 A  
HETATM   14 CL   UNL     1     -10.497  12.275  67.881  1.00  0.00    -0.215 Cl 
ENDBRANCH   7   8
BRANCH   7  15
HETATM   15  C   UNL     1     -10.334   9.026  67.286  1.00  0.00    -0.273 C  
BRANCH  15  16
HETATM   16  N   UNL     1      -9.589   8.198  68.208  1.00  0.00    -0.142 NA 
HETATM   17  N   UNL     1      -9.548   8.459  69.529  1.00  0.00    -0.169 NA 
HETATM   18  N   UNL     1      -8.661   6.455  68.968  1.00  0.00    -0.123 NA 
HETATM   19  C   UNL     1      -8.950   7.344  69.959  1.00  0.00    -0.144 A  
HETATM   20  N   UNL     1      -9.088   7.004  67.839  1.00  0.00    -0.128 NA 
ENDBRANCH  15  16
ENDBRANCH   7  15
ENDBRANCH   6   7
ENDBRANCH   2   6
TORSDOF 5
ENDMDL
MODEL      234
REMARK 921   NORMALIZED FREE ENERGY PREDICTED BY IDOCK:   -3.06 KCAL/MOL
REMARK 922        TOTAL FREE ENERGY PREDICTED BY IDOCK:   -4.76 KCAL/MOL
REMARK 923 INTER-LIGAND FREE ENERGY PREDICTED BY IDOCK:   -4.34 KCAL/MOL
REMARK 924 INTRA-LIGAND FREE ENERGY PREDICTED BY IDOCK:   -0.42 KCAL/MOL
REMARK 927      BINDING AFFINITY PREDICTED BY RF-SCORE:    0.00 PKD
ROOT
HETATM    1  N   UNL     1      -8.235  11.297  65.665  1.00  0.00    -0.369 N  
HETATM    2  C   UNL     1      -9.476  11.817  65.567  1.00  0.00    -0.168 C  
HETATM    3  H1  UNL     1      -7.523  11.618  66.320  1.00  0.00     0.000 HD 
HETATM    4  H2  UNL     1      -7.992  10.529  65.039  1.00  0.00     0.000 HD 
HETATM    5  O   UNL     1     -10.327  11.434  64.783  1.00  0.00    -0.259 OA 
ENDROOT
BRANCH   2   6
HETATM    6  O   UNL     1      -9.620  12.797  66.477  1.00  0.00    -0.247 OA 
BRANCH   6   7
HETATM    7  C   UNL     1      -9.721  12.435  67.881  1.00  0.00    -0.204 C  
BRANCH   7   8
HETATM    8  C   UNL     1     -10.699  13.417  68.545  1.00  0.00    -0.278 A  
HETATM    9  C   UNL     1     -12.503  15.303  69.667  1.00  0.00    -0.174 A  
HETATM   10  C   UNL     1     -10.797  14.741  68.060  1.00  0.00    -0.261 A  
HETATM   11  C   UNL     1     -11.566  13.061  69.596  1.00  0.00    -0.253 A  
HETATM   12  C   UNL     1     -11.687  15.668  68.606  1.00  0.00    -0.364 A  
HETATM   13  C   UNL     1     -12.441  14.003  70.161  1.00  0.00    -0.380 A  
HETATM   14 CL   UNL     1     -11.676  11.453  70.219  1.00  0.00    -0.412 Cl 
ENDBRANCH   7   8
BRANCH   7  15
HETATM   15  C   UNL     1      -8.326  12.343  68.520  1.00  0.00    -0.081 C  
BRANCH  15  16
HETATM   16  N   UNL     1      -7.506  13.509  68.282  1.00  0.00    -0.111 NA 
HETATM   17  N   UNL     1      -7.384  14.495  69.193  1.00  0.00    -0.136 NA 
HETATM   18  N   UNL     1      -5.940  14.672  67.461  1.00  0.00    -0.349 NA 
HETATM   19  C   UNL     1      -6.400  15.201  68.629  1.00  0.00    -0.088 A  
HETATM   20  N   UNL     1      -6.648  13.571  67.247  1.00  0.00    -0.210 NA 
ENDBRANCH  15  16
ENDBRANCH   7  15
ENDBRANCH   6   7
ENDBRANCH   2   6
TORSDOF 5
ENDMDL
MODEL      235
REMARK 921   NORMALIZED FREE ENERGY PREDICTED BY IDOCK:   -3.06 KCAL/MOL
REMARK 922        TOTAL FREE ENERGY PREDICTED BY IDOCK:   -4.76 KCAL/MOL
REMARK 923 INTER-LIGAND FREE ENERGY PREDICTED BY IDOCK:   -4.15 KCAL/MOL
REMARK 924 INTRA-LIGAND FREE ENERGY PREDICTED BY IDOCK:   -0.61 KCAL/MOL
REMARK 927      BINDING AFFINITY PREDICTED BY RF-SCORE:    0.00 PKD
ROOT
HETATM    1  N   UNL     1      -8.433   8.481  72.399  1.00  0.00    -0.161 N  
HETATM    2  C   UNL     1      -7.688   8.911  71.361  1.00  0.00    -0.087 C  
HETATM    3  H1  UNL     1      -9.189   7.801  72.327  1.00  0.00     0.000 HD 
HETATM    4  H2  UNL     1      -8.226   8.863  73.322  1.00  0.00     0.000 HD 
HETATM    5  O   UNL     1      -6.784   9.725  71.447  1.00  0.00    -0.322 OA 
ENDROOT
BRANCH   2   6
HETATM    6  O   UNL     1      -8.088   8.288  70.238  1.00  0.00    -0.099 OA 
BRANCH   6   7
HETATM    7  C   UNL     1      -9.506   8.266  69.919  1.00  0.00    -0.167 C  
BRANCH   7   8
HETATM    8  C   UNL     1      -9.683   7.428  68.643  1.00  0.00    -0.152 A  
HETATM    9  C   UNL     1     -10.119   5.837  66.331  1.00  0.00    -0.182 A  
HETATM   10  C   UNL     1     -10.552   6.313  68.654  1.00  0.00    -0.314 A  
HETATM   11  C   UNL     1      -9.063   7.739  67.417  1.00  0.00    -0.126 A  
HETATM   12  C   UNL     1     -10.772   5.533  67.516  1.00  0.00    -0.211 A  
HETATM   13  C   UNL     1      -9.265   6.936  66.283  1.00  0.00    -0.157 A  
HETATM   14 CL   UNL     1      -8.079   9.140  67.191  1.00  0.00    -0.109 Cl 
ENDBRANCH   7   8
BRANCH   7  15
HETATM   15  C   UNL     1     -10.073   9.695  69.868  1.00  0.00    -0.246 C  
BRANCH  15  16
HETATM   16  N   UNL     1     -11.123   9.932  70.832  1.00  0.00    -0.340 NA 
HETATM   17  N   UNL     1     -11.982  10.964  70.715  1.00  0.00    -0.344 NA 
HETATM   18  N   UNL     1     -12.557   9.479  72.322  1.00  0.00    -0.314 NA 
HETATM   19  C   UNL     1     -12.853  10.640  71.674  1.00  0.00    -0.465 A  
HETATM   20  N   UNL     1     -11.445   9.017  71.766  1.00  0.00    -0.352 NA 
ENDBRANCH  15  16
ENDBRANCH   7  15
ENDBRANCH   6   7
ENDBRANCH   2   6
TORSDOF 5
ENDMDL
MODEL      236
REMARK 921   NORMALIZED FREE ENERGY PREDICTED BY IDOCK:   -3.03 KCAL/MOL
REMARK 922        TOTAL FREE ENERGY PREDICTED BY IDOCK:   -4.72 KCAL/MOL
REMARK 923 INTER-LIGAND FREE ENERGY PREDICTED BY IDOCK:   -4.16 KCAL/MOL
REMARK 924 INTRA-LIGAND FREE ENERGY PREDICTED BY IDOCK:   -0.56 KCAL/MOL
REMARK 927      BINDING AFFINITY PREDICTED BY RF-SCORE:    0.00 PKD
ROOT
HETATM    1  N   UNL     1      -7.146   8.322  72.657  1.00  0.00    -0.100 N  
HETATM    2  C   UNL     1      -7.637   8.518  71.416  1.00  0.00    -0.105 C  
HETATM    3  H1  UNL     1      -7.716   8.162  73.487  1.00  0.00     0.000 HD 
HETATM    4  H2  UNL     1      -6.133   8.335  72.773  1.00  0.00     0.000 HD 
HETATM    5  O   UNL     1      -6.955   8.709  70.424  1.00  0.00    -0.039 OA 
ENDROOT
BRANCH   2   6
HETATM    6  O   UNL     1      -8.980   8.446  71.454  1.00  0.00    -0.153 OA 
BRANCH   6   7
HETATM    7  C   UNL     1      -9.724   8.654  70.222  1.00  0.00    -0.174 C  
BRANCH   7   8
HETATM    8  C   UNL     1     -10.873   9.627  70.533  1.00  0.00    -0.371 A  
HETATM    9  C   UNL     1     -13.000  11.378  71.223  1.00  0.00    -0.415 A  
HETATM   10  C   UNL     1     -11.753   9.351  71.604  1.00  0.00    -0.468 A  
HETATM   11  C   UNL     1     -11.077  10.835  69.838  1.00  0.00    -0.271 A  
HETATM   12  C   UNL     1     -12.796  10.214  71.948  1.00  0.00    -0.526 A  
HETATM   13  C   UNL     1     -12.144  11.686  70.169  1.00  0.00    -0.414 A  
HETATM   14 CL   UNL     1     -10.017  11.394  68.594  1.00  0.00    -0.210 Cl 
ENDBRANCH   7   8
BRANCH   7  15
HETATM   15  C   UNL     1     -10.135   7.308  69.602  1.00  0.00    -0.194 C  
BRANCH  15  16
HETATM   16  N   UNL     1      -9.467   7.024  68.352  1.00  0.00    -0.133 NA 
HETATM   17  N   UNL     1      -8.339   6.288  68.296  1.00  0.00    -0.115 NA 
HETATM   18  N   UNL     1      -9.250   6.715  66.270  1.00  0.00    -0.152 NA 
HETATM   19  C   UNL     1      -8.241   6.129  66.973  1.00  0.00    -0.106 A  
HETATM   20  N   UNL     1     -10.048   7.280  67.165  1.00  0.00    -0.211 NA 
ENDBRANCH  15  16
ENDBRANCH   7  15
ENDBRANCH   6   7
ENDBRANCH   2   6
TORSDOF 5
ENDMDL
MODEL      237
REMARK 921   NORMALIZED FREE ENERGY PREDICTED BY IDOCK:   -3.03 KCAL/MOL
REMARK 922        TOTAL FREE ENERGY PREDICTED BY IDOCK:   -4.72 KCAL/MOL
REMARK 923 INTER-LIGAND FREE ENERGY PREDICTED BY IDOCK:   -4.73 KCAL/MOL
REMARK 924 INTRA-LIGAND FREE ENERGY PREDICTED BY IDOCK:    0.01 KCAL/MOL
REMARK 927      BINDING AFFINITY PREDICTED BY RF-SCORE:    0.00 PKD
ROOT
HETATM    1  N   UNL     1      -8.066   5.402  69.613  1.00  0.00    -0.098 N  
HETATM    2  C   UNL     1      -9.117   5.312  70.453  1.00  0.00    -0.139 C  
HETATM    3  H1  UNL     1      -8.141   5.533  68.604  1.00  0.00     0.000 HD 
HETATM    4  H2  UNL     1      -7.131   5.333  70.013  1.00  0.00     0.000 HD 
HETATM    5  O   UNL     1      -9.028   5.155  71.659  1.00  0.00    -0.132 OA 
ENDROOT
BRANCH   2   6
HETATM    6  O   UNL     1     -10.258   5.444  69.753  1.00  0.00    -0.229 OA 
BRANCH   6   7
HETATM    7  C   UNL     1     -11.038   6.661  69.914  1.00  0.00    -0.348 C  
BRANCH   7   8
HETATM    8  C   UNL     1     -10.531   7.677  68.877  1.00  0.00    -0.211 A  
HETATM    9  C   UNL     1      -9.520   9.603  67.051  1.00  0.00    -0.195 A  
HETATM   10  C   UNL     1      -9.933   8.881  69.313  1.00  0.00    -0.192 A  
HETATM   11  C   UNL     1     -10.573   7.456  67.487  1.00  0.00    -0.269 A  
HETATM   12  C   UNL     1      -9.430   9.827  68.417  1.00  0.00    -0.146 A  
HETATM   13  C   UNL     1     -10.092   8.421  66.588  1.00  0.00    -0.358 A  
HETATM   14 CL   UNL     1     -11.144   5.984  66.787  1.00  0.00    -0.314 Cl 
ENDBRANCH   7   8
BRANCH   7  15
HETATM   15  C   UNL     1     -11.017   7.129  71.378  1.00  0.00    -0.234 C  
BRANCH  15  16
HETATM   16  N   UNL     1     -12.233   7.797  71.785  1.00  0.00    -0.296 NA 
HETATM   17  N   UNL     1     -12.219   8.998  72.396  1.00  0.00    -0.305 NA 
HETATM   18  N   UNL     1     -14.284   8.322  71.766  1.00  0.00    -0.440 NA 
HETATM   19  C   UNL     1     -13.525   9.279  72.369  1.00  0.00    -0.459 A  
HETATM   20  N   UNL     1     -13.444   7.372  71.377  1.00  0.00    -0.368 NA 
ENDBRANCH  15  16
ENDBRANCH   7  15
ENDBRANCH   6   7
ENDBRANCH   2   6
TORSDOF 5
ENDMDL
MODEL      238
REMARK 921   NORMALIZED FREE ENERGY PREDICTED BY IDOCK:   -3.02 KCAL/MOL
REMARK 922        TOTAL FREE ENERGY PREDICTED BY IDOCK:   -4.70 KCAL/MOL
REMARK 923 INTER-LIGAND FREE ENERGY PREDICTED BY IDOCK:   -4.00 KCAL/MOL
REMARK 924 INTRA-LIGAND FREE ENERGY PREDICTED BY IDOCK:   -0.70 KCAL/MOL
REMARK 927      BINDING AFFINITY PREDICTED BY RF-SCORE:    0.00 PKD
ROOT
HETATM    1  N   UNL     1     -10.696  10.541  69.259  1.00  0.00    -0.218 N  
HETATM    2  C   UNL     1     -10.910  10.003  70.477  1.00  0.00    -0.314 C  
HETATM    3  H1  UNL     1      -9.811  10.498  68.754  1.00  0.00     0.000 HD 
HETATM    4  H2  UNL     1     -11.474  11.026  68.811  1.00  0.00     0.000 HD 
HETATM    5  O   UNL     1     -11.967  10.055  71.081  1.00  0.00    -0.332 OA 
ENDROOT
BRANCH   2   6
HETATM    6  O   UNL     1      -9.787   9.391  70.895  1.00  0.00    -0.276 OA 
BRANCH   6   7
HETATM    7  C   UNL     1      -9.546   8.018  70.484  1.00  0.00    -0.170 C  
BRANCH   7   8
HETATM    8  C   UNL     1      -9.810   7.116  71.699  1.00  0.00    -0.170 A  
HETATM    9  C   UNL     1     -10.307   5.551  74.017  1.00  0.00    -0.297 A  
HETATM   10  C   UNL     1      -9.590   7.616  73.002  1.00  0.00    -0.292 A  
HETATM   11  C   UNL     1     -10.322   5.807  71.600  1.00  0.00    -0.214 A  
HETATM   12  C   UNL     1      -9.839   6.851  74.144  1.00  0.00    -0.346 A  
HETATM   13  C   UNL     1     -10.546   5.031  72.748  1.00  0.00    -0.274 A  
HETATM   14 CL   UNL     1     -10.775   5.088  70.096  1.00  0.00    -0.129 Cl 
ENDBRANCH   7   8
BRANCH   7  15
HETATM   15  C   UNL     1      -8.158   7.881  69.835  1.00  0.00    -0.118 C  
BRANCH  15  16
HETATM   16  N   UNL     1      -7.380   9.099  69.881  1.00  0.00    -0.058 NA 
HETATM   17  N   UNL     1      -7.435  10.019  68.898  1.00  0.00    -0.079 NA 
HETATM   18  N   UNL     1      -6.315  10.716  70.736  1.00  0.00    -0.349 NA 
HETATM   19  C   UNL     1      -6.747  11.007  69.477  1.00  0.00    -0.126 A  
HETATM   20  N   UNL     1      -6.738   9.487  70.999  1.00  0.00    -0.234 NA 
ENDBRANCH  15  16
ENDBRANCH   7  15
ENDBRANCH   6   7
ENDBRANCH   2   6
TORSDOF 5
ENDMDL
MODEL      239
REMARK 921   NORMALIZED FREE ENERGY PREDICTED BY IDOCK:   -3.01 KCAL/MOL
REMARK 922        TOTAL FREE ENERGY PREDICTED BY IDOCK:   -4.69 KCAL/MOL
REMARK 923 INTER-LIGAND FREE ENERGY PREDICTED BY IDOCK:   -4.66 KCAL/MOL
REMARK 924 INTRA-LIGAND FREE ENERGY PREDICTED BY IDOCK:   -0.03 KCAL/MOL
REMARK 927      BINDING AFFINITY PREDICTED BY RF-SCORE:    0.00 PKD
ROOT
HETATM    1  N   UNL     1     -11.114   5.629  70.841  1.00  0.00    -0.195 N  
HETATM    2  C   UNL     1     -11.519   6.681  70.100  1.00  0.00    -0.385 C  
HETATM    3  H1  UNL     1     -11.269   5.534  71.844  1.00  0.00     0.000 HD 
HETATM    4  H2  UNL     1     -10.616   4.877  70.364  1.00  0.00     0.000 HD 
HETATM    5  O   UNL     1     -11.333   6.795  68.900  1.00  0.00    -0.166 OA 
ENDROOT
BRANCH   2   6
HETATM    6  O   UNL     1     -12.170   7.555  70.888  1.00  0.00    -0.279 OA 
BRANCH   6   7
HETATM    7  C   UNL     1     -11.392   8.483  71.692  1.00  0.00    -0.295 C  
BRANCH   7   8
HETATM    8  C   UNL     1     -11.794   9.907  71.276  1.00  0.00    -0.479 A  
HETATM    9  C   UNL     1     -12.569  12.561  70.626  1.00  0.00    -0.237 A  
HETATM   10  C   UNL     1     -12.695  10.642  72.078  1.00  0.00    -0.287 A  
HETATM   11  C   UNL     1     -11.266  10.566  70.148  1.00  0.00    -0.315 A  
HETATM   12  C   UNL     1     -13.074  11.949  71.764  1.00  0.00    -0.465 A  
HETATM   13  C   UNL     1     -11.669  11.869  69.819  1.00  0.00    -0.403 A  
HETATM   14 CL   UNL     1     -10.053   9.867  69.136  1.00  0.00    -0.191 Cl 
ENDBRANCH   7   8
BRANCH   7  15
HETATM   15  C   UNL     1      -9.893   8.155  71.601  1.00  0.00    -0.182 C  
BRANCH  15  16
HETATM   16  N   UNL     1      -9.412   7.353  72.703  1.00  0.00    -0.146 NA 
HETATM   17  N   UNL     1      -9.813   7.567  73.971  1.00  0.00    -0.158 NA 
HETATM   18  N   UNL     1      -8.630   5.658  73.701  1.00  0.00    -0.120 NA 
HETATM   19  C   UNL     1      -9.291   6.486  74.558  1.00  0.00    -0.232 A  
HETATM   20  N   UNL     1      -8.722   6.215  72.501  1.00  0.00    -0.122 NA 
ENDBRANCH  15  16
ENDBRANCH   7  15
ENDBRANCH   6   7
ENDBRANCH   2   6
TORSDOF 5
ENDMDL
MODEL      240
REMARK 921   NORMALIZED FREE ENERGY PREDICTED BY IDOCK:   -3.00 KCAL/MOL
REMARK 922        TOTAL FREE ENERGY PREDICTED BY IDOCK:   -4.68 KCAL/MOL
REMARK 923 INTER-LIGAND FREE ENERGY PREDICTED BY IDOCK:   -4.78 KCAL/MOL
REMARK 924 INTRA-LIGAND FREE ENERGY PREDICTED BY IDOCK:    0.10 KCAL/MOL
REMARK 927      BINDING AFFINITY PREDICTED BY RF-SCORE:    0.00 PKD
ROOT
HETATM    1  N   UNL     1     -12.718   9.617  72.117  1.00  0.00    -0.368 N  
HETATM    2  C   UNL     1     -12.062   8.439  72.145  1.00  0.00    -0.373 C  
HETATM    3  H1  UNL     1     -13.226   9.978  71.310  1.00  0.00     0.000 HD 
HETATM    4  H2  UNL     1     -12.704  10.188  72.963  1.00  0.00     0.000 HD 
HETATM    5  O   UNL     1     -11.454   8.008  73.110  1.00  0.00    -0.299 OA 
ENDROOT
BRANCH   2   6
HETATM    6  O   UNL     1     -12.208   7.821  70.959  1.00  0.00    -0.293 OA 
BRANCH   6   7
HETATM    7  C   UNL     1     -11.113   7.878  70.004  1.00  0.00    -0.162 C  
BRANCH   7   8
HETATM    8  C   UNL     1     -10.197   6.674  70.275  1.00  0.00    -0.215 A  
HETATM    9  C   UNL     1      -8.547   4.397  70.672  1.00  0.00    -0.110 A  
HETATM   10  C   UNL     1     -10.476   5.431  69.663  1.00  0.00    -0.361 A  
HETATM   11  C   UNL     1      -9.037   6.744  71.072  1.00  0.00    -0.156 A  
HETATM   12  C   UNL     1      -9.662   4.312  69.851  1.00  0.00    -0.291 A  
HETATM   13  C   UNL     1      -8.237   5.610  71.281  1.00  0.00    -0.125 A  
HETATM   14 CL   UNL     1      -8.475   8.213  71.784  1.00  0.00    -0.166 Cl 
ENDBRANCH   7   8
BRANCH   7  15
HETATM   15  C   UNL     1     -10.436   9.258  70.037  1.00  0.00    -0.226 C  
BRANCH  15  16
HETATM   16  N   UNL     1     -11.182  10.281  69.341  1.00  0.00    -0.240 NA 
HETATM   17  N   UNL     1     -11.706  11.345  69.982  1.00  0.00    -0.322 NA 
HETATM   18  N   UNL     1     -11.799  11.504  67.727  1.00  0.00    -0.626 NA 
HETATM   19  C   UNL     1     -12.087  12.075  68.930  1.00  0.00    -0.145 A  
HETATM   20  N   UNL     1     -11.202  10.351  67.996  1.00  0.00    -0.298 NA 
ENDBRANCH  15  16
ENDBRANCH   7  15
ENDBRANCH   6   7
ENDBRANCH   2   6
TORSDOF 5
ENDMDL
MODEL      241
REMARK 921   NORMALIZED FREE ENERGY PREDICTED BY IDOCK:   -3.00 KCAL/MOL
REMARK 922        TOTAL FREE ENERGY PREDICTED BY IDOCK:   -4.68 KCAL/MOL
REMARK 923 INTER-LIGAND FREE ENERGY PREDICTED BY IDOCK:   -4.39 KCAL/MOL
REMARK 924 INTRA-LIGAND FREE ENERGY PREDICTED BY IDOCK:   -0.28 KCAL/MOL
REMARK 927      BINDING AFFINITY PREDICTED BY RF-SCORE:    0.00 PKD
ROOT
HETATM    1  N   UNL     1      -9.037   5.697  71.282  1.00  0.00    -0.142 N  
HETATM    2  C   UNL     1     -10.269   5.605  71.825  1.00  0.00    -0.202 C  
HETATM    3  H1  UNL     1      -8.837   6.097  70.366  1.00  0.00     0.000 HD 
HETATM    4  H2  UNL     1      -8.252   5.342  71.827  1.00  0.00     0.000 HD 
HETATM    5  O   UNL     1     -10.508   5.126  72.920  1.00  0.00    -0.188 OA 
ENDROOT
BRANCH   2   6
HETATM    6  O   UNL     1     -11.168   6.140  70.979  1.00  0.00    -0.296 OA 
BRANCH   6   7
HETATM    7  C   UNL     1     -10.797   7.325  70.224  1.00  0.00    -0.245 C  
BRANCH   7   8
HETATM    8  C   UNL     1     -11.642   8.495  70.752  1.00  0.00    -0.257 A  
HETATM    9  C   UNL     1     -13.149  10.732  71.642  1.00  0.00    -0.551 A  
HETATM   10  C   UNL     1     -11.230   9.824  70.502  1.00  0.00    -0.381 A  
HETATM   11  C   UNL     1     -12.861   8.327  71.438  1.00  0.00    -0.247 A  
HETATM   12  C   UNL     1     -11.973  10.925  70.933  1.00  0.00    -0.416 A  
HETATM   13  C   UNL     1     -13.591   9.436  71.894  1.00  0.00    -0.482 A  
HETATM   14 CL   UNL     1     -13.580   6.780  71.710  1.00  0.00    -0.264 Cl 
ENDBRANCH   7   8
BRANCH   7  15
HETATM   15  C   UNL     1     -10.891   7.057  68.713  1.00  0.00    -0.157 C  
BRANCH  15  16
HETATM   16  N   UNL     1      -9.618   6.749  68.103  1.00  0.00    -0.123 NA 
HETATM   17  N   UNL     1      -8.736   7.710  67.765  1.00  0.00    -0.127 NA 
HETATM   18  N   UNL     1      -7.898   5.614  67.619  1.00  0.00    -0.097 NA 
HETATM   19  C   UNL     1      -7.681   6.950  67.461  1.00  0.00    -0.111 A  
HETATM   20  N   UNL     1      -9.147   5.489  68.048  1.00  0.00    -0.108 NA 
ENDBRANCH  15  16
ENDBRANCH   7  15
ENDBRANCH   6   7
ENDBRANCH   2   6
TORSDOF 5
ENDMDL
MODEL      242
REMARK 921   NORMALIZED FREE ENERGY PREDICTED BY IDOCK:   -2.98 KCAL/MOL
REMARK 922        TOTAL FREE ENERGY PREDICTED BY IDOCK:   -4.65 KCAL/MOL
REMARK 923 INTER-LIGAND FREE ENERGY PREDICTED BY IDOCK:   -4.17 KCAL/MOL
REMARK 924 INTRA-LIGAND FREE ENERGY PREDICTED BY IDOCK:   -0.48 KCAL/MOL
REMARK 927      BINDING AFFINITY PREDICTED BY RF-SCORE:    0.00 PKD
ROOT
HETATM    1  N   UNL     1      -6.720   8.073  72.057  1.00  0.00    -0.061 N  
HETATM    2  C   UNL     1      -7.973   8.396  72.435  1.00  0.00    -0.105 C  
HETATM    3  H1  UNL     1      -6.421   7.950  71.090  1.00  0.00     0.000 HD 
HETATM    4  H2  UNL     1      -6.022   7.943  72.789  1.00  0.00     0.000 HD 
HETATM    5  O   UNL     1      -8.331   8.543  73.591  1.00  0.00    -0.373 OA 
ENDROOT
BRANCH   2   6
HETATM    6  O   UNL     1      -8.743   8.546  71.342  1.00  0.00    -0.151 OA 
BRANCH   6   7
HETATM    7  C   UNL     1      -9.143   7.361  70.602  1.00  0.00    -0.156 C  
BRANCH   7   8
HETATM    8  C   UNL     1      -9.529   7.807  69.183  1.00  0.00    -0.151 A  
HETATM    9  C   UNL     1     -10.250   8.751  66.602  1.00  0.00    -0.340 A  
HETATM   10  C   UNL     1     -10.206   9.034  68.996  1.00  0.00    -0.216 A  
HETATM   11  C   UNL     1      -9.194   7.083  68.022  1.00  0.00    -0.129 A  
HETATM   12  C   UNL     1     -10.556   9.502  67.727  1.00  0.00    -0.318 A  
HETATM   13  C   UNL     1      -9.572   7.544  66.750  1.00  0.00    -0.265 A  
HETATM   14 CL   UNL     1      -8.251   5.636  68.057  1.00  0.00    -0.101 Cl 
ENDBRANCH   7   8
BRANCH   7  15
HETATM   15  C   UNL     1     -10.217   6.576  71.373  1.00  0.00    -0.197 C  
BRANCH  15  16
HETATM   16  N   UNL     1     -11.448   7.312  71.554  1.00  0.00    -0.254 NA 
HETATM   17  N   UNL     1     -12.556   7.039  70.838  1.00  0.00    -0.304 NA 
HETATM   18  N   UNL     1     -12.909   8.476  72.549  1.00  0.00    -0.316 NA 
HETATM   19  C   UNL     1     -13.439   7.798  71.492  1.00  0.00    -0.327 A  
HETATM   20  N   UNL     1     -11.625   8.149  72.594  1.00  0.00    -0.405 NA 
ENDBRANCH  15  16
ENDBRANCH   7  15
ENDBRANCH   6   7
ENDBRANCH   2   6
TORSDOF 5
ENDMDL
MODEL      243
REMARK 921   NORMALIZED FREE ENERGY PREDICTED BY IDOCK:   -2.98 KCAL/MOL
REMARK 922        TOTAL FREE ENERGY PREDICTED BY IDOCK:   -4.65 KCAL/MOL
REMARK 923 INTER-LIGAND FREE ENERGY PREDICTED BY IDOCK:   -5.09 KCAL/MOL
REMARK 924 INTRA-LIGAND FREE ENERGY PREDICTED BY IDOCK:    0.43 KCAL/MOL
REMARK 927      BINDING AFFINITY PREDICTED BY RF-SCORE:    0.00 PKD
ROOT
HETATM    1  N   UNL     1      -6.782   9.272  65.770  1.00  0.00    -0.075 N  
HETATM    2  C   UNL     1      -7.764  10.187  65.636  1.00  0.00    -0.143 C  
HETATM    3  H1  UNL     1      -6.561   8.783  66.638  1.00  0.00     0.000 HD 
HETATM    4  H2  UNL     1      -6.221   9.053  64.947  1.00  0.00     0.000 HD 
HETATM    5  O   UNL     1      -8.028  10.771  64.599  1.00  0.00    -0.013 OA 
ENDROOT
BRANCH   2   6
HETATM    6  O   UNL     1      -8.404  10.327  66.811  1.00  0.00    -0.122 OA 
BRANCH   6   7
HETATM    7  C   UNL     1      -9.707  10.971  66.823  1.00  0.00    -0.193 C  
BRANCH   7   8
HETATM    8  C   UNL     1     -10.329  10.737  68.208  1.00  0.00    -0.195 A  
HETATM    9  C   UNL     1     -11.561  10.395  70.745  1.00  0.00    -0.450 A  
HETATM   10  C   UNL     1     -11.112  11.752  68.804  1.00  0.00    -0.293 A  
HETATM   11  C   UNL     1     -10.212   9.526  68.919  1.00  0.00    -0.199 A  
HETATM   12  C   UNL     1     -11.724  11.583  70.048  1.00  0.00    -0.414 A  
HETATM   13  C   UNL     1     -10.805   9.370  70.181  1.00  0.00    -0.287 A  
HETATM   14 CL   UNL     1      -9.406   8.138  68.280  1.00  0.00    -0.134 Cl 
ENDBRANCH   7   8
BRANCH   7  15
HETATM   15  C   UNL     1     -10.551  10.511  65.622  1.00  0.00    -0.062 C  
BRANCH  15  16
HETATM   16  N   UNL     1     -11.237  11.593  64.953  1.00  0.00    -0.262 NA 
HETATM   17  N   UNL     1     -11.035  11.870  63.650  1.00  0.00    -0.408 NA 
HETATM   18  N   UNL     1     -12.769  13.001  64.563  1.00  0.00    -0.701 NA 
HETATM   19  C   UNL     1     -12.011  12.762  63.457  1.00  0.00    -0.555 A  
HETATM   20  N   UNL     1     -12.275  12.233  65.525  1.00  0.00    -0.578 NA 
ENDBRANCH  15  16
ENDBRANCH   7  15
ENDBRANCH   6   7
ENDBRANCH   2   6
TORSDOF 5
ENDMDL
MODEL      244
REMARK 921   NORMALIZED FREE ENERGY PREDICTED BY IDOCK:   -2.97 KCAL/MOL
REMARK 922        TOTAL FREE ENERGY PREDICTED BY IDOCK:   -4.64 KCAL/MOL
REMARK 923 INTER-LIGAND FREE ENERGY PREDICTED BY IDOCK:   -3.81 KCAL/MOL
REMARK 924 INTRA-LIGAND FREE ENERGY PREDICTED BY IDOCK:   -0.83 KCAL/MOL
REMARK 927      BINDING AFFINITY PREDICTED BY RF-SCORE:    0.00 PKD
ROOT
HETATM    1  N   UNL     1      -9.476   6.021  71.169  1.00  0.00    -0.163 N  
HETATM    2  C   UNL     1      -8.832   6.304  70.018  1.00  0.00    -0.142 C  
HETATM    3  H1  UNL     1      -9.636   6.690  71.922  1.00  0.00     0.000 HD 
HETATM    4  H2  UNL     1      -9.827   5.072  71.296  1.00  0.00     0.000 HD 
HETATM    5  O   UNL     1      -8.640   5.504  69.118  1.00  0.00    -0.103 OA 
ENDROOT
BRANCH   2   6
HETATM    6  O   UNL     1      -8.464   7.598  70.021  1.00  0.00    -0.132 OA 
BRANCH   6   7
HETATM    7  C   UNL     1      -9.441   8.602  69.633  1.00  0.00    -0.162 C  
BRANCH   7   8
HETATM    8  C   UNL     1      -8.890   9.333  68.398  1.00  0.00    -0.129 A  
HETATM    9  C   UNL     1      -7.778  10.727  66.188  1.00  0.00    -0.149 A  
HETATM   10  C   UNL     1      -8.010  10.425  68.568  1.00  0.00    -0.114 A  
HETATM   11  C   UNL     1      -9.168   8.941  67.074  1.00  0.00    -0.137 A  
HETATM   12  C   UNL     1      -7.457  11.109  67.482  1.00  0.00    -0.104 A  
HETATM   13  C   UNL     1      -8.633   9.647  65.985  1.00  0.00    -0.144 A  
HETATM   14 CL   UNL     1     -10.113   7.548  66.687  1.00  0.00    -0.294 Cl 
ENDBRANCH   7   8
BRANCH   7  15
HETATM   15  C   UNL     1      -9.809   9.492  70.831  1.00  0.00    -0.209 C  
BRANCH  15  16
HETATM   16  N   UNL     1     -11.177   9.331  71.269  1.00  0.00    -0.324 NA 
HETATM   17  N   UNL     1     -11.583   8.246  71.959  1.00  0.00    -0.315 NA 
HETATM   18  N   UNL     1     -13.123   9.901  71.873  1.00  0.00    -0.435 NA 
HETATM   19  C   UNL     1     -12.809   8.648  72.306  1.00  0.00    -0.383 A  
HETATM   20  N   UNL     1     -12.061  10.344  71.215  1.00  0.00    -0.370 NA 
ENDBRANCH  15  16
ENDBRANCH   7  15
ENDBRANCH   6   7
ENDBRANCH   2   6
TORSDOF 5
ENDMDL
MODEL      245
REMARK 921   NORMALIZED FREE ENERGY PREDICTED BY IDOCK:   -2.96 KCAL/MOL
REMARK 922        TOTAL FREE ENERGY PREDICTED BY IDOCK:   -4.63 KCAL/MOL
REMARK 923 INTER-LIGAND FREE ENERGY PREDICTED BY IDOCK:   -4.06 KCAL/MOL
REMARK 924 INTRA-LIGAND FREE ENERGY PREDICTED BY IDOCK:   -0.57 KCAL/MOL
REMARK 927      BINDING AFFINITY PREDICTED BY RF-SCORE:    0.00 PKD
ROOT
HETATM    1  N   UNL     1      -6.235   8.470  66.001  1.00  0.00    -0.052 N  
HETATM    2  C   UNL     1      -7.174   9.424  66.165  1.00  0.00    -0.092 C  
HETATM    3  H1  UNL     1      -6.288   7.532  66.398  1.00  0.00     0.000 HD 
HETATM    4  H2  UNL     1      -5.414   8.703  65.442  1.00  0.00     0.000 HD 
HETATM    5  O   UNL     1      -7.111  10.545  65.691  1.00  0.00    -0.142 OA 
ENDROOT
BRANCH   2   6
HETATM    6  O   UNL     1      -8.184   8.932  66.906  1.00  0.00    -0.110 OA 
BRANCH   6   7
HETATM    7  C   UNL     1      -9.148   9.859  67.475  1.00  0.00    -0.134 C  
BRANCH   7   8
HETATM    8  C   UNL     1      -9.465   9.381  68.901  1.00  0.00    -0.154 A  
HETATM    9  C   UNL     1     -10.135   8.419  71.488  1.00  0.00    -0.293 A  
HETATM   10  C   UNL     1     -10.689   8.725  69.162  1.00  0.00    -0.150 A  
HETATM   11  C   UNL     1      -8.569   9.509  69.981  1.00  0.00    -0.215 A  
HETATM   12  C   UNL     1     -11.018   8.245  70.432  1.00  0.00    -0.244 A  
HETATM   13  C   UNL     1      -8.915   9.051  71.262  1.00  0.00    -0.281 A  
HETATM   14 CL   UNL     1      -6.980  10.162  69.810  1.00  0.00    -0.100 Cl 
ENDBRANCH   7   8
BRANCH   7  15
HETATM   15  C   UNL     1     -10.356  10.028  66.539  1.00  0.00    -0.198 C  
BRANCH  15  16
HETATM   16  N   UNL     1     -10.891  11.370  66.527  1.00  0.00    -0.281 NA 
HETATM   17  N   UNL     1     -10.559  12.263  65.575  1.00  0.00    -0.260 NA 
HETATM   18  N   UNL     1     -12.260  12.940  66.903  1.00  0.00    -0.410 NA 
HETATM   19  C   UNL     1     -11.436  13.231  65.858  1.00  0.00    -0.332 A  
HETATM   20  N   UNL     1     -11.914  11.731  67.324  1.00  0.00    -0.607 NA 
ENDBRANCH  15  16
ENDBRANCH   7  15
ENDBRANCH   6   7
ENDBRANCH   2   6
TORSDOF 5
ENDMDL
MODEL      246
REMARK 921   NORMALIZED FREE ENERGY PREDICTED BY IDOCK:   -2.95 KCAL/MOL
REMARK 922        TOTAL FREE ENERGY PREDICTED BY IDOCK:   -4.62 KCAL/MOL
REMARK 923 INTER-LIGAND FREE ENERGY PREDICTED BY IDOCK:   -4.75 KCAL/MOL
REMARK 924 INTRA-LIGAND FREE ENERGY PREDICTED BY IDOCK:    0.12 KCAL/MOL
REMARK 927      BINDING AFFINITY PREDICTED BY RF-SCORE:    0.00 PKD
ROOT
HETATM    1  N   UNL     1      -6.505  13.906  67.087  1.00  0.00     0.065 N  
HETATM    2  C   UNL     1      -6.324  15.171  67.520  1.00  0.00    -0.080 C  
HETATM    3  H1  UNL     1      -7.296  13.315  67.340  1.00  0.00     0.000 HD 
HETATM    4  H2  UNL     1      -5.801  13.514  66.463  1.00  0.00     0.000 HD 
HETATM    5  O   UNL     1      -5.378  15.877  67.218  1.00  0.00    -0.312 OA 
ENDROOT
BRANCH   2   6
HETATM    6  O   UNL     1      -7.356  15.522  68.309  1.00  0.00    -0.110 OA 
BRANCH   6   7
HETATM    7  C   UNL     1      -8.433  16.314  67.739  1.00  0.00    -0.163 C  
BRANCH   7   8
HETATM    8  C   UNL     1      -9.760  15.714  68.230  1.00  0.00    -0.201 A  
HETATM    9  C   UNL     1     -12.152  14.500  69.164  1.00  0.00    -0.299 A  
HETATM   10  C   UNL     1      -9.910  14.311  68.301  1.00  0.00    -0.235 A  
HETATM   11  C   UNL     1     -10.846  16.492  68.677  1.00  0.00    -0.345 A  
HETATM   12  C   UNL     1     -11.083  13.712  68.766  1.00  0.00    -0.302 A  
HETATM   13  C   UNL     1     -12.034  15.887  69.118  1.00  0.00    -0.268 A  
HETATM   14 CL   UNL     1     -10.785  18.215  68.785  1.00  0.00     0.034 Cl 
ENDBRANCH   7   8
BRANCH   7  15
HETATM   15  C   UNL     1      -8.272  16.429  66.214  1.00  0.00    -0.308 C  
BRANCH  15  16
HETATM   16  N   UNL     1      -9.527  16.379  65.498  1.00  0.00    -0.430 NA 
HETATM   17  N   UNL     1     -10.111  15.213  65.159  1.00  0.00    -0.332 NA 
HETATM   18  N   UNL     1     -11.428  17.021  64.825  1.00  0.00    -0.508 NA 
HETATM   19  C   UNL     1     -11.293  15.669  64.735  1.00  0.00    -0.343 A  
HETATM   20  N   UNL     1     -10.290  17.476  65.331  1.00  0.00    -0.611 NA 
ENDBRANCH  15  16
ENDBRANCH   7  15
ENDBRANCH   6   7
ENDBRANCH   2   6
TORSDOF 5
ENDMDL
MODEL      247
REMARK 921   NORMALIZED FREE ENERGY PREDICTED BY IDOCK:   -2.91 KCAL/MOL
REMARK 922        TOTAL FREE ENERGY PREDICTED BY IDOCK:   -4.57 KCAL/MOL
REMARK 923 INTER-LIGAND FREE ENERGY PREDICTED BY IDOCK:   -3.96 KCAL/MOL
REMARK 924 INTRA-LIGAND FREE ENERGY PREDICTED BY IDOCK:   -0.61 KCAL/MOL
REMARK 927      BINDING AFFINITY PREDICTED BY RF-SCORE:    0.00 PKD
ROOT
HETATM    1  N   UNL     1     -12.568   9.994  71.793  1.00  0.00    -0.405 N  
HETATM    2  C   UNL     1     -12.053   8.749  71.865  1.00  0.00    -0.363 C  
HETATM    3  H1  UNL     1     -12.915  10.428  70.938  1.00  0.00     0.000 HD 
HETATM    4  H2  UNL     1     -12.612  10.540  72.653  1.00  0.00     0.000 HD 
HETATM    5  O   UNL     1     -11.638   8.231  72.887  1.00  0.00    -0.351 OA 
ENDROOT
BRANCH   2   6
HETATM    6  O   UNL     1     -12.095   8.179  70.647  1.00  0.00    -0.139 OA 
BRANCH   6   7
HETATM    7  C   UNL     1     -10.878   7.595  70.108  1.00  0.00    -0.248 C  
BRANCH   7   8
HETATM    8  C   UNL     1      -9.986   8.747  69.621  1.00  0.00    -0.191 A  
HETATM    9  C   UNL     1      -8.439  10.935  68.677  1.00  0.00    -0.152 A  
HETATM   10  C   UNL     1     -10.457   9.618  68.613  1.00  0.00    -0.235 A  
HETATM   11  C   UNL     1      -8.719   9.034  70.166  1.00  0.00    -0.173 A  
HETATM   12  C   UNL     1      -9.701  10.698  68.151  1.00  0.00    -0.167 A  
HETATM   13  C   UNL     1      -7.950  10.103  69.681  1.00  0.00    -0.181 A  
HETATM   14 CL   UNL     1      -8.048   8.156  71.494  1.00  0.00    -0.124 Cl 
ENDBRANCH   7   8
BRANCH   7  15
HETATM   15  C   UNL     1     -11.210   6.516  69.064  1.00  0.00    -0.284 C  
BRANCH  15  16
HETATM   16  N   UNL     1     -10.369   5.345  69.160  1.00  0.00    -0.236 NA 
HETATM   17  N   UNL     1     -10.120   4.738  70.337  1.00  0.00    -0.244 NA 
HETATM   18  N   UNL     1      -9.406   3.565  68.539  1.00  0.00    -0.166 NA 
HETATM   19  C   UNL     1      -9.508   3.635  69.896  1.00  0.00    -0.192 A  
HETATM   20  N   UNL     1      -9.976   4.665  68.066  1.00  0.00    -0.106 NA 
ENDBRANCH  15  16
ENDBRANCH   7  15
ENDBRANCH   6   7
ENDBRANCH   2   6
TORSDOF 5
ENDMDL
MODEL      248
REMARK 921   NORMALIZED FREE ENERGY PREDICTED BY IDOCK:   -2.90 KCAL/MOL
REMARK 922        TOTAL FREE ENERGY PREDICTED BY IDOCK:   -4.56 KCAL/MOL
REMARK 923 INTER-LIGAND FREE ENERGY PREDICTED BY IDOCK:   -4.16 KCAL/MOL
REMARK 924 INTRA-LIGAND FREE ENERGY PREDICTED BY IDOCK:   -0.40 KCAL/MOL
REMARK 927      BINDING AFFINITY PREDICTED BY RF-SCORE:    0.00 PKD
ROOT
HETATM    1  N   UNL     1     -10.350  15.247  65.424  1.00  0.00    -0.371 N  
HETATM    2  C   UNL     1     -11.147  14.276  65.914  1.00  0.00    -0.310 C  
HETATM    3  H1  UNL     1      -9.372  15.118  65.166  1.00  0.00     0.000 HD 
HETATM    4  H2  UNL     1     -10.753  16.176  65.305  1.00  0.00     0.000 HD 
HETATM    5  O   UNL     1     -12.316  14.430  66.223  1.00  0.00    -0.409 OA 
ENDROOT
BRANCH   2   6
HETATM    6  O   UNL     1     -10.454  13.124  65.981  1.00  0.00    -0.274 OA 
BRANCH   6   7
HETATM    7  C   UNL     1      -9.504  12.944  67.066  1.00  0.00    -0.235 C  
BRANCH   7   8
HETATM    8  C   UNL     1      -9.498  11.453  67.436  1.00  0.00    -0.174 A  
HETATM    9  C   UNL     1      -9.361   8.699  68.119  1.00  0.00    -0.145 A  
HETATM   10  C   UNL     1      -8.343  10.676  67.190  1.00  0.00    -0.125 A  
HETATM   11  C   UNL     1     -10.576  10.804  68.070  1.00  0.00    -0.207 A  
HETATM   12  C   UNL     1      -8.271   9.324  67.531  1.00  0.00    -0.114 A  
HETATM   13  C   UNL     1     -10.511   9.438  68.386  1.00  0.00    -0.256 A  
HETATM   14 CL   UNL     1     -12.009  11.632  68.564  1.00  0.00    -0.350 Cl 
ENDBRANCH   7   8
BRANCH   7  15
HETATM   15  C   UNL     1      -9.803  13.920  68.216  1.00  0.00    -0.231 C  
BRANCH  15  16
HETATM   16  N   UNL     1      -8.965  15.097  68.204  1.00  0.00    -0.171 NA 
HETATM   17  N   UNL     1      -7.871  15.189  67.422  1.00  0.00    -0.182 NA 
HETATM   18  N   UNL     1      -8.449  17.140  68.411  1.00  0.00    -0.234 NA 
HETATM   19  C   UNL     1      -7.580  16.481  67.594  1.00  0.00    -0.146 A  
HETATM   20  N   UNL     1      -9.350  16.245  68.793  1.00  0.00    -0.225 NA 
ENDBRANCH  15  16
ENDBRANCH   7  15
ENDBRANCH   6   7
ENDBRANCH   2   6
TORSDOF 5
ENDMDL
MODEL      249
REMARK 921   NORMALIZED FREE ENERGY PREDICTED BY IDOCK:   -2.88 KCAL/MOL
REMARK 922        TOTAL FREE ENERGY PREDICTED BY IDOCK:   -4.52 KCAL/MOL
REMARK 923 INTER-LIGAND FREE ENERGY PREDICTED BY IDOCK:   -4.64 KCAL/MOL
REMARK 924 INTRA-LIGAND FREE ENERGY PREDICTED BY IDOCK:    0.12 KCAL/MOL
REMARK 927      BINDING AFFINITY PREDICTED BY RF-SCORE:    0.00 PKD
ROOT
HETATM    1  N   UNL     1      -6.889   9.523  66.110  1.00  0.00    -0.088 N  
HETATM    2  C   UNL     1      -7.817  10.356  65.596  1.00  0.00    -0.154 C  
HETATM    3  H1  UNL     1      -6.470   9.622  67.034  1.00  0.00     0.000 HD 
HETATM    4  H2  UNL     1      -6.585   8.738  65.533  1.00  0.00     0.000 HD 
HETATM    5  O   UNL     1      -8.317  10.238  64.491  1.00  0.00    -0.163 OA 
ENDROOT
BRANCH   2   6
HETATM    6  O   UNL     1      -8.107  11.309  66.500  1.00  0.00    -0.163 OA 
BRANCH   6   7
HETATM    7  C   UNL     1      -9.119  12.299  66.169  1.00  0.00    -0.074 C  
BRANCH   7   8
HETATM    8  C   UNL     1      -8.804  13.571  66.972  1.00  0.00    -0.219 A  
HETATM    9  C   UNL     1      -8.319  15.979  68.399  1.00  0.00    -0.178 A  
HETATM   10  C   UNL     1      -9.278  14.822  66.514  1.00  0.00    -0.304 A  
HETATM   11  C   UNL     1      -8.104  13.566  68.194  1.00  0.00    -0.154 A  
HETATM   12  C   UNL     1      -9.046  16.006  67.218  1.00  0.00    -0.217 A  
HETATM   13  C   UNL     1      -7.848  14.761  68.884  1.00  0.00    -0.152 A  
HETATM   14 CL   UNL     1      -7.573  12.114  68.965  1.00  0.00     0.009 Cl 
ENDBRANCH   7   8
BRANCH   7  15
HETATM   15  C   UNL     1     -10.530  11.718  66.358  1.00  0.00    -0.235 C  
BRANCH  15  16
HETATM   16  N   UNL     1     -11.436  12.046  65.281  1.00  0.00    -0.328 NA 
HETATM   17  N   UNL     1     -11.227  11.626  64.018  1.00  0.00    -0.374 NA 
HETATM   18  N   UNL     1     -13.262  12.559  64.342  1.00  0.00    -0.719 NA 
HETATM   19  C   UNL     1     -12.393  11.979  63.469  1.00  0.00    -0.551 A  
HETATM   20  N   UNL     1     -12.646  12.588  65.516  1.00  0.00    -0.573 NA 
ENDBRANCH  15  16
ENDBRANCH   7  15
ENDBRANCH   6   7
ENDBRANCH   2   6
TORSDOF 5
ENDMDL
MODEL      250
REMARK 921   NORMALIZED FREE ENERGY PREDICTED BY IDOCK:   -2.84 KCAL/MOL
REMARK 922        TOTAL FREE ENERGY PREDICTED BY IDOCK:   -4.48 KCAL/MOL
REMARK 923 INTER-LIGAND FREE ENERGY PREDICTED BY IDOCK:   -4.04 KCAL/MOL
REMARK 924 INTRA-LIGAND FREE ENERGY PREDICTED BY IDOCK:   -0.44 KCAL/MOL
REMARK 927      BINDING AFFINITY PREDICTED BY RF-SCORE:    0.00 PKD
ROOT
HETATM    1  N   UNL     1     -12.290  10.777  69.328  1.00  0.00    -0.491 N  
HETATM    2  C   UNL     1     -11.524  11.188  68.296  1.00  0.00    -0.303 C  
HETATM    3  H1  UNL     1     -11.948  10.243  70.126  1.00  0.00     0.000 HD 
HETATM    4  H2  UNL     1     -13.281  11.017  69.307  1.00  0.00     0.000 HD 
HETATM    5  O   UNL     1     -11.933  11.826  67.341  1.00  0.00    -0.617 OA 
ENDROOT
BRANCH   2   6
HETATM    6  O   UNL     1     -10.252  10.801  68.506  1.00  0.00    -0.163 OA 
BRANCH   6   7
HETATM    7  C   UNL     1      -9.597   9.985  67.497  1.00  0.00    -0.153 C  
BRANCH   7   8
HETATM    8  C   UNL     1      -9.735   8.516  67.927  1.00  0.00    -0.193 A  
HETATM    9  C   UNL     1     -10.002   5.769  68.600  1.00  0.00    -0.201 A  
HETATM   10  C   UNL     1     -10.337   7.585  67.051  1.00  0.00    -0.395 A  
HETATM   11  C   UNL     1      -9.239   8.012  69.145  1.00  0.00    -0.151 A  
HETATM   12  C   UNL     1     -10.464   6.233  67.377  1.00  0.00    -0.308 A  
HETATM   13  C   UNL     1      -9.393   6.658  69.482  1.00  0.00    -0.145 A  
HETATM   14 CL   UNL     1      -8.357   8.980  70.272  1.00  0.00    -0.144 Cl 
ENDBRANCH   7   8
BRANCH   7  15
HETATM   15  C   UNL     1      -8.162  10.479  67.248  1.00  0.00    -0.119 C  
BRANCH  15  16
HETATM   16  N   UNL     1      -7.923  11.820  67.733  1.00  0.00    -0.132 NA 
HETATM   17  N   UNL     1      -7.055  12.075  68.731  1.00  0.00    -0.107 NA 
HETATM   18  N   UNL     1      -7.807  13.932  67.681  1.00  0.00    -0.164 NA 
HETATM   19  C   UNL     1      -7.024  13.409  68.665  1.00  0.00    -0.101 A  
HETATM   20  N   UNL     1      -8.376  12.901  67.071  1.00  0.00    -0.150 NA 
ENDBRANCH  15  16
ENDBRANCH   7  15
ENDBRANCH   6   7
ENDBRANCH   2   6
TORSDOF 5
ENDMDL
MODEL      251
REMARK 921   NORMALIZED FREE ENERGY PREDICTED BY IDOCK:   -2.83 KCAL/MOL
REMARK 922        TOTAL FREE ENERGY PREDICTED BY IDOCK:   -4.46 KCAL/MOL
REMARK 923 INTER-LIGAND FREE ENERGY PREDICTED BY IDOCK:   -3.80 KCAL/MOL
REMARK 924 INTRA-LIGAND FREE ENERGY PREDICTED BY IDOCK:   -0.66 KCAL/MOL
REMARK 927      BINDING AFFINITY PREDICTED BY RF-SCORE:    0.00 PKD
ROOT
HETATM    1  N   UNL     1     -11.845  13.319  66.570  1.00  0.00    -0.380 N  
HETATM    2  C   UNL     1     -11.370  12.423  65.681  1.00  0.00    -0.347 C  
HETATM    3  H1  UNL     1     -11.331  13.656  67.383  1.00  0.00     0.000 HD 
HETATM    4  H2  UNL     1     -12.786  13.683  66.419  1.00  0.00     0.000 HD 
HETATM    5  O   UNL     1     -11.984  12.019  64.709  1.00  0.00    -0.321 OA 
ENDROOT
BRANCH   2   6
HETATM    6  O   UNL     1     -10.117  12.074  66.028  1.00  0.00    -0.219 OA 
BRANCH   6   7
HETATM    7  C   UNL     1      -9.884  11.553  67.365  1.00  0.00    -0.186 C  
BRANCH   7   8
HETATM    8  C   UNL     1      -8.365  11.409  67.549  1.00  0.00    -0.137 A  
HETATM    9  C   UNL     1      -5.556  11.063  67.792  1.00  0.00    -0.039 A  
HETATM   10  C   UNL     1      -7.702  10.274  67.030  1.00  0.00    -0.100 A  
HETATM   11  C   UNL     1      -7.561  12.386  68.168  1.00  0.00    -0.129 A  
HETATM   12  C   UNL     1      -6.320  10.105  67.143  1.00  0.00    -0.067 A  
HETATM   13  C   UNL     1      -6.176  12.200  68.304  1.00  0.00    -0.052 A  
HETATM   14 CL   UNL     1      -8.185  13.893  68.736  1.00  0.00    -0.084 Cl 
ENDBRANCH   7   8
BRANCH   7  15
HETATM   15  C   UNL     1     -10.712  10.279  67.603  1.00  0.00    -0.288 C  
BRANCH  15  16
HETATM   16  N   UNL     1     -11.423  10.283  68.862  1.00  0.00    -0.177 NA 
HETATM   17  N   UNL     1     -10.905   9.734  69.977  1.00  0.00    -0.258 NA 
HETATM   18  N   UNL     1     -12.782  10.942  70.345  1.00  0.00    -0.285 NA 
HETATM   19  C   UNL     1     -11.795  10.166  70.875  1.00  0.00    -0.374 A  
HETATM   20  N   UNL     1     -12.531  11.027  69.045  1.00  0.00    -0.357 NA 
ENDBRANCH  15  16
ENDBRANCH   7  15
ENDBRANCH   6   7
ENDBRANCH   2   6
TORSDOF 5
ENDMDL
MODEL      252
REMARK 921   NORMALIZED FREE ENERGY PREDICTED BY IDOCK:   -2.81 KCAL/MOL
REMARK 922        TOTAL FREE ENERGY PREDICTED BY IDOCK:   -4.43 KCAL/MOL
REMARK 923 INTER-LIGAND FREE ENERGY PREDICTED BY IDOCK:   -5.04 KCAL/MOL
REMARK 924 INTRA-LIGAND FREE ENERGY PREDICTED BY IDOCK:    0.61 KCAL/MOL
REMARK 927      BINDING AFFINITY PREDICTED BY RF-SCORE:    0.00 PKD
ROOT
HETATM    1  N   UNL     1     -12.054   6.625  69.925  1.00  0.00    -0.579 N  
HETATM    2  C   UNL     1     -10.823   6.799  69.403  1.00  0.00    -0.271 C  
HETATM    3  H1  UNL     1     -12.600   7.359  70.377  1.00  0.00     0.000 HD 
HETATM    4  H2  UNL     1     -12.469   5.696  69.863  1.00  0.00     0.000 HD 
HETATM    5  O   UNL     1     -10.171   5.922  68.862  1.00  0.00    -0.164 OA 
ENDROOT
BRANCH   2   6
HETATM    6  O   UNL     1     -10.452   8.083  69.556  1.00  0.00    -0.222 OA 
BRANCH   6   7
HETATM    7  C   UNL     1     -11.272   8.952  70.384  1.00  0.00    -0.230 C  
BRANCH   7   8
HETATM    8  C   UNL     1     -11.476  10.267  69.617  1.00  0.00    -0.297 A  
HETATM    9  C   UNL     1     -11.834  12.761  68.304  1.00  0.00    -0.357 A  
HETATM   10  C   UNL     1     -11.798  11.447  70.325  1.00  0.00    -0.438 A  
HETATM   11  C   UNL     1     -11.306  10.389  68.224  1.00  0.00    -0.224 A  
HETATM   12  C   UNL     1     -11.968  12.675  69.682  1.00  0.00    -0.352 A  
HETATM   13  C   UNL     1     -11.505  11.619  67.578  1.00  0.00    -0.360 A  
HETATM   14 CL   UNL     1     -10.782   9.081  67.224  1.00  0.00    -0.297 Cl 
ENDBRANCH   7   8
BRANCH   7  15
HETATM   15  C   UNL     1     -10.670   9.084  71.793  1.00  0.00    -0.367 C  
BRANCH  15  16
HETATM   16  N   UNL     1      -9.303   8.624  71.880  1.00  0.00    -0.268 NA 
HETATM   17  N   UNL     1      -8.986   7.412  72.377  1.00  0.00    -0.129 NA 
HETATM   18  N   UNL     1      -7.249   8.473  71.391  1.00  0.00    -0.084 NA 
HETATM   19  C   UNL     1      -7.690   7.369  72.056  1.00  0.00    -0.089 A  
HETATM   20  N   UNL     1      -8.297   9.276  71.267  1.00  0.00    -0.317 NA 
ENDBRANCH  15  16
ENDBRANCH   7  15
ENDBRANCH   6   7
ENDBRANCH   2   6
TORSDOF 5
ENDMDL
MODEL      253
REMARK 921   NORMALIZED FREE ENERGY PREDICTED BY IDOCK:   -2.71 KCAL/MOL
REMARK 922        TOTAL FREE ENERGY PREDICTED BY IDOCK:   -4.31 KCAL/MOL
REMARK 923 INTER-LIGAND FREE ENERGY PREDICTED BY IDOCK:   -3.76 KCAL/MOL
REMARK 924 INTRA-LIGAND FREE ENERGY PREDICTED BY IDOCK:   -0.55 KCAL/MOL
REMARK 927      BINDING AFFINITY PREDICTED BY RF-SCORE:    0.00 PKD
ROOT
HETATM    1  N   UNL     1      -9.178   5.887  70.224  1.00  0.00    -0.152 N  
HETATM    2  C   UNL     1     -10.446   6.242  69.934  1.00  0.00    -0.227 C  
HETATM    3  H1  UNL     1      -8.361   6.157  69.675  1.00  0.00     0.000 HD 
HETATM    4  H2  UNL     1      -9.024   5.308  71.049  1.00  0.00     0.000 HD 
HETATM    5  O   UNL     1     -11.422   5.920  70.589  1.00  0.00    -0.237 OA 
ENDROOT
BRANCH   2   6
HETATM    6  O   UNL     1     -10.451   7.016  68.833  1.00  0.00    -0.191 OA 
BRANCH   6   7
HETATM    7  C   UNL     1      -9.538   8.146  68.771  1.00  0.00    -0.149 C  
BRANCH   7   8
HETATM    8  C   UNL     1     -10.370   9.425  68.954  1.00  0.00    -0.230 A  
HETATM    9  C   UNL     1     -11.949  11.776  69.173  1.00  0.00    -0.356 A  
HETATM   10  C   UNL     1     -10.801  10.147  67.818  1.00  0.00    -0.346 A  
HETATM   11  C   UNL     1     -10.789   9.908  70.209  1.00  0.00    -0.310 A  
HETATM   12  C   UNL     1     -11.583  11.300  67.923  1.00  0.00    -0.330 A  
HETATM   13  C   UNL     1     -11.551  11.082  70.313  1.00  0.00    -0.414 A  
HETATM   14 CL   UNL     1     -10.468   9.076  71.689  1.00  0.00    -0.407 Cl 
ENDBRANCH   7   8
BRANCH   7  15
HETATM   15  C   UNL     1      -8.679   8.080  67.497  1.00  0.00    -0.125 C  
BRANCH  15  16
HETATM   16  N   UNL     1      -7.292   8.418  67.721  1.00  0.00    -0.091 NA 
HETATM   17  N   UNL     1      -6.460   7.607  68.404  1.00  0.00    -0.051 NA 
HETATM   18  N   UNL     1      -5.412   9.324  67.368  1.00  0.00    -0.037 NA 
HETATM   19  C   UNL     1      -5.299   8.221  68.161  1.00  0.00    -0.034 A  
HETATM   20  N   UNL     1      -6.700   9.440  67.075  1.00  0.00    -0.075 NA 
ENDBRANCH  15  16
ENDBRANCH   7  15
ENDBRANCH   6   7
ENDBRANCH   2   6
TORSDOF 5
ENDMDL
MODEL      254
REMARK 921   NORMALIZED FREE ENERGY PREDICTED BY IDOCK:   -2.64 KCAL/MOL
REMARK 922        TOTAL FREE ENERGY PREDICTED BY IDOCK:   -4.22 KCAL/MOL
REMARK 923 INTER-LIGAND FREE ENERGY PREDICTED BY IDOCK:   -3.56 KCAL/MOL
REMARK 924 INTRA-LIGAND FREE ENERGY PREDICTED BY IDOCK:   -0.65 KCAL/MOL
REMARK 927      BINDING AFFINITY PREDICTED BY RF-SCORE:    0.00 PKD
ROOT
HETATM    1  N   UNL     1     -12.127  10.012  69.941  1.00  0.00    -0.478 N  
HETATM    2  C   UNL     1     -11.144   9.122  70.189  1.00  0.00    -0.222 C  
HETATM    3  H1  UNL     1     -12.004  10.881  69.423  1.00  0.00     0.000 HD 
HETATM    4  H2  UNL     1     -13.060   9.800  70.296  1.00  0.00     0.000 HD 
HETATM    5  O   UNL     1     -11.292   8.083  70.809  1.00  0.00    -0.272 OA 
ENDROOT
BRANCH   2   6
HETATM    6  O   UNL     1     -10.000   9.557  69.631  1.00  0.00    -0.181 OA 
BRANCH   6   7
HETATM    7  C   UNL     1      -9.772   9.300  68.218  1.00  0.00    -0.150 C  
BRANCH   7   8
HETATM    8  C   UNL     1      -8.968   7.995  68.108  1.00  0.00    -0.135 A  
HETATM    9  C   UNL     1      -7.407   5.625  67.994  1.00  0.00    -0.073 A  
HETATM   10  C   UNL     1      -7.641   7.948  68.590  1.00  0.00    -0.101 A  
HETATM   11  C   UNL     1      -9.500   6.796  67.595  1.00  0.00    -0.118 A  
HETATM   12  C   UNL     1      -6.873   6.782  68.541  1.00  0.00    -0.074 A  
HETATM   13  C   UNL     1      -8.717   5.633  67.521  1.00  0.00    -0.107 A  
HETATM   14 CL   UNL     1     -11.144   6.638  67.089  1.00  0.00    -0.470 Cl 
ENDBRANCH   7   8
BRANCH   7  15
HETATM   15  C   UNL     1      -9.151  10.531  67.537  1.00  0.00    -0.138 C  
BRANCH  15  16
HETATM   16  N   UNL     1      -9.128  10.439  66.094  1.00  0.00    -0.156 NA 
HETATM   17  N   UNL     1     -10.216  10.703  65.345  1.00  0.00    -0.281 NA 
HETATM   18  N   UNL     1      -8.317  10.461  64.140  1.00  0.00    -0.162 NA 
HETATM   19  C   UNL     1      -9.659  10.696  64.130  1.00  0.00    -0.300 A  
HETATM   20  N   UNL     1      -7.975  10.309  65.412  1.00  0.00    -0.145 NA 
ENDBRANCH  15  16
ENDBRANCH   7  15
ENDBRANCH   6   7
ENDBRANCH   2   6
TORSDOF 5
ENDMDL
MODEL      255
REMARK 921   NORMALIZED FREE ENERGY PREDICTED BY IDOCK:   -2.59 KCAL/MOL
REMARK 922        TOTAL FREE ENERGY PREDICTED BY IDOCK:   -4.15 KCAL/MOL
REMARK 923 INTER-LIGAND FREE ENERGY PREDICTED BY IDOCK:   -3.68 KCAL/MOL
REMARK 924 INTRA-LIGAND FREE ENERGY PREDICTED BY IDOCK:   -0.47 KCAL/MOL
REMARK 927      BINDING AFFINITY PREDICTED BY RF-SCORE:    0.00 PKD
ROOT
HETATM    1  N   UNL     1      -8.535   3.446  68.193  1.00  0.00    -0.083 N  
HETATM    2  C   UNL     1      -8.459   4.082  69.380  1.00  0.00    -0.068 C  
HETATM    3  H1  UNL     1      -9.406   3.198  67.724  1.00  0.00     0.000 HD 
HETATM    4  H2  UNL     1      -7.660   3.196  67.732  1.00  0.00     0.000 HD 
HETATM    5  O   UNL     1      -7.418   4.378  69.941  1.00  0.00    -0.049 OA 
ENDROOT
BRANCH   2   6
HETATM    6  O   UNL     1      -9.702   4.348  69.822  1.00  0.00    -0.193 OA 
BRANCH   6   7
HETATM    7  C   UNL     1     -10.042   5.719  70.165  1.00  0.00    -0.212 C  
BRANCH   7   8
HETATM    8  C   UNL     1     -10.238   5.781  71.688  1.00  0.00    -0.253 A  
HETATM    9  C   UNL     1     -10.563   5.778  74.510  1.00  0.00     0.027 A  
HETATM   10  C   UNL     1     -10.380   4.584  72.424  1.00  0.00    -0.256 A  
HETATM   11  C   UNL     1     -10.232   6.983  72.424  1.00  0.00    -0.188 A  
HETATM   12  C   UNL     1     -10.533   4.579  73.812  1.00  0.00    -0.292 A  
HETATM   13  C   UNL     1     -10.414   6.976  73.816  1.00  0.00    -0.392 A  
HETATM   14 CL   UNL     1      -9.936   8.524  71.703  1.00  0.00    -0.300 Cl 
ENDBRANCH   7   8
BRANCH   7  15
HETATM   15  C   UNL     1     -11.223   6.214  69.315  1.00  0.00    -0.367 C  
BRANCH  15  16
HETATM   16  N   UNL     1     -10.833   7.127  68.265  1.00  0.00    -0.145 NA 
HETATM   17  N   UNL     1     -10.398   8.375  68.528  1.00  0.00    -0.209 NA 
HETATM   18  N   UNL     1     -10.122   7.751  66.371  1.00  0.00    -0.138 NA 
HETATM   19  C   UNL     1      -9.973   8.726  67.311  1.00  0.00    -0.220 A  
HETATM   20  N   UNL     1     -10.665   6.714  66.994  1.00  0.00    -0.338 NA 
ENDBRANCH  15  16
ENDBRANCH   7  15
ENDBRANCH   6   7
ENDBRANCH   2   6
TORSDOF 5
ENDMDL
MODEL      256
REMARK 921   NORMALIZED FREE ENERGY PREDICTED BY IDOCK:   -2.51 KCAL/MOL
REMARK 922        TOTAL FREE ENERGY PREDICTED BY IDOCK:   -4.04 KCAL/MOL
REMARK 923 INTER-LIGAND FREE ENERGY PREDICTED BY IDOCK:   -3.38 KCAL/MOL
REMARK 924 INTRA-LIGAND FREE ENERGY PREDICTED BY IDOCK:   -0.67 KCAL/MOL
REMARK 927      BINDING AFFINITY PREDICTED BY RF-SCORE:    0.00 PKD
ROOT
HETATM    1  N   UNL     1      -6.800   7.939  66.388  1.00  0.00    -0.061 N  
HETATM    2  C   UNL     1      -7.750   8.843  66.075  1.00  0.00    -0.098 C  
HETATM    3  H1  UNL     1      -6.965   7.088  66.925  1.00  0.00     0.000 HD 
HETATM    4  H2  UNL     1      -5.849   8.119  66.065  1.00  0.00     0.000 HD 
HETATM    5  O   UNL     1      -7.553   9.861  65.433  1.00  0.00    -0.119 OA 
ENDROOT
BRANCH   2   6
HETATM    6  O   UNL     1      -8.935   8.430  66.562  1.00  0.00    -0.139 OA 
BRANCH   6   7
HETATM    7  C   UNL     1      -9.293   8.791  67.924  1.00  0.00    -0.142 C  
BRANCH   7   8
HETATM    8  C   UNL     1      -9.551   7.488  68.697  1.00  0.00    -0.151 A  
HETATM    9  C   UNL     1      -9.968   5.018  70.035  1.00  0.00    -0.324 A  
HETATM   10  C   UNL     1      -9.497   6.250  68.018  1.00  0.00    -0.116 A  
HETATM   11  C   UNL     1      -9.790   7.442  70.085  1.00  0.00    -0.180 A  
HETATM   12  C   UNL     1      -9.696   5.034  68.675  1.00  0.00    -0.221 A  
HETATM   13  C   UNL     1     -10.017   6.220  70.737  1.00  0.00    -0.220 A  
HETATM   14 CL   UNL     1      -9.756   8.846  71.090  1.00  0.00    -0.315 Cl 
ENDBRANCH   7   8
BRANCH   7  15
HETATM   15  C   UNL     1     -10.441   9.814  67.930  1.00  0.00    -0.239 C  
BRANCH  15  16
HETATM   16  N   UNL     1     -10.042  11.129  67.483  1.00  0.00    -0.181 NA 
HETATM   17  N   UNL     1      -9.012  11.792  68.044  1.00  0.00    -0.169 NA 
HETATM   18  N   UNL     1      -9.798  12.760  66.157  1.00  0.00    -0.266 NA 
HETATM   19  C   UNL     1      -8.904  12.809  67.184  1.00  0.00    -0.202 A  
HETATM   20  N   UNL     1     -10.522  11.666  66.346  1.00  0.00    -0.236 NA 
ENDBRANCH  15  16
ENDBRANCH   7  15
ENDBRANCH   6   7
ENDBRANCH   2   6
TORSDOF 5
ENDMDL
MODEL      257
REMARK 921   NORMALIZED FREE ENERGY PREDICTED BY IDOCK:   -2.45 KCAL/MOL
REMARK 922        TOTAL FREE ENERGY PREDICTED BY IDOCK:   -3.97 KCAL/MOL
REMARK 923 INTER-LIGAND FREE ENERGY PREDICTED BY IDOCK:   -4.14 KCAL/MOL
REMARK 924 INTRA-LIGAND FREE ENERGY PREDICTED BY IDOCK:    0.17 KCAL/MOL
REMARK 927      BINDING AFFINITY PREDICTED BY RF-SCORE:    0.00 PKD
ROOT
HETATM    1  N   UNL     1      -9.299   6.061  70.250  1.00  0.00    -0.157 N  
HETATM    2  C   UNL     1     -10.599   6.342  70.477  1.00  0.00    -0.249 C  
HETATM    3  H1  UNL     1      -8.788   6.328  69.409  1.00  0.00     0.000 HD 
HETATM    4  H2  UNL     1      -8.793   5.544  70.969  1.00  0.00     0.000 HD 
HETATM    5  O   UNL     1     -11.211   6.022  71.482  1.00  0.00    -0.277 OA 
ENDROOT
BRANCH   2   6
HETATM    6  O   UNL     1     -11.090   7.040  69.438  1.00  0.00    -0.222 OA 
BRANCH   6   7
HETATM    7  C   UNL     1     -10.317   8.156  68.918  1.00  0.00    -0.211 C  
BRANCH   7   8
HETATM    8  C   UNL     1     -10.973   9.451  69.424  1.00  0.00    -0.165 A  
HETATM    9  C   UNL     1     -12.165  11.805  70.475  1.00  0.00    -0.438 A  
HETATM   10  C   UNL     1     -11.492   9.505  70.737  1.00  0.00    -0.378 A  
HETATM   11  C   UNL     1     -11.043  10.635  68.664  1.00  0.00    -0.263 A  
HETATM   12  C   UNL     1     -12.073  10.663  71.258  1.00  0.00    -0.401 A  
HETATM   13  C   UNL     1     -11.653  11.789  69.181  1.00  0.00    -0.372 A  
HETATM   14 CL   UNL     1     -10.339  10.786  67.094  1.00  0.00    -0.254 Cl 
ENDBRANCH   7   8
BRANCH   7  15
HETATM   15  C   UNL     1     -10.151   8.039  67.394  1.00  0.00    -0.228 C  
BRANCH  15  16
HETATM   16  N   UNL     1      -9.008   7.246  67.000  1.00  0.00    -0.126 NA 
HETATM   17  N   UNL     1      -8.838   5.978  67.423  1.00  0.00    -0.108 NA 
HETATM   18  N   UNL     1      -7.391   6.597  65.798  1.00  0.00    -0.073 NA 
HETATM   19  C   UNL     1      -7.810   5.619  66.649  1.00  0.00    -0.101 A  
HETATM   20  N   UNL     1      -8.177   7.643  66.018  1.00  0.00    -0.121 NA 
ENDBRANCH  15  16
ENDBRANCH   7  15
ENDBRANCH   6   7
ENDBRANCH   2   6
TORSDOF 5
ENDMDL
MODEL      258
REMARK 921   NORMALIZED FREE ENERGY PREDICTED BY IDOCK:   -2.43 KCAL/MOL
REMARK 922        TOTAL FREE ENERGY PREDICTED BY IDOCK:   -3.95 KCAL/MOL
REMARK 923 INTER-LIGAND FREE ENERGY PREDICTED BY IDOCK:   -4.31 KCAL/MOL
REMARK 924 INTRA-LIGAND FREE ENERGY PREDICTED BY IDOCK:    0.37 KCAL/MOL
REMARK 927      BINDING AFFINITY PREDICTED BY RF-SCORE:    0.00 PKD
ROOT
HETATM    1  N   UNL     1      -8.846   8.603  71.898  1.00  0.00    -0.213 N  
HETATM    2  C   UNL     1      -9.878   9.153  71.226  1.00  0.00    -0.293 C  
HETATM    3  H1  UNL     1      -7.876   8.622  71.586  1.00  0.00     0.000 HD 
HETATM    4  H2  UNL     1      -9.051   8.135  72.781  1.00  0.00     0.000 HD 
HETATM    5  O   UNL     1     -11.038   9.131  71.598  1.00  0.00    -0.332 OA 
ENDROOT
BRANCH   2   6
HETATM    6  O   UNL     1      -9.416   9.739  70.106  1.00  0.00    -0.240 OA 
BRANCH   6   7
HETATM    7  C   UNL     1      -9.662   9.092  68.828  1.00  0.00    -0.162 C  
BRANCH   7   8
HETATM    8  C   UNL     1     -10.111  10.178  67.837  1.00  0.00    -0.207 A  
HETATM    9  C   UNL     1     -10.881  12.122  65.914  1.00  0.00    -0.316 A  
HETATM   10  C   UNL     1      -9.418  10.339  66.615  1.00  0.00    -0.203 A  
HETATM   11  C   UNL     1     -11.230  11.008  68.046  1.00  0.00    -0.309 A  
HETATM   12  C   UNL     1      -9.799  11.290  65.665  1.00  0.00    -0.277 A  
HETATM   13  C   UNL     1     -11.593  11.981  67.102  1.00  0.00    -0.387 A  
HETATM   14 CL   UNL     1     -12.267  10.855  69.419  1.00  0.00    -0.368 Cl 
ENDBRANCH   7   8
BRANCH   7  15
HETATM   15  C   UNL     1     -10.620   7.901  68.997  1.00  0.00    -0.162 C  
BRANCH  15  16
HETATM   16  N   UNL     1     -10.315   6.790  68.126  1.00  0.00    -0.174 NA 
HETATM   17  N   UNL     1     -10.344   5.514  68.558  1.00  0.00    -0.187 NA 
HETATM   18  N   UNL     1     -10.130   5.710  66.314  1.00  0.00    -0.146 NA 
HETATM   19  C   UNL     1     -10.215   4.878  67.390  1.00  0.00    -0.118 A  
HETATM   20  N   UNL     1     -10.209   6.945  66.792  1.00  0.00    -0.220 NA 
ENDBRANCH  15  16
ENDBRANCH   7  15
ENDBRANCH   6   7
ENDBRANCH   2   6
TORSDOF 5
ENDMDL
MODEL      259
REMARK 921   NORMALIZED FREE ENERGY PREDICTED BY IDOCK:   -2.38 KCAL/MOL
REMARK 922        TOTAL FREE ENERGY PREDICTED BY IDOCK:   -3.88 KCAL/MOL
REMARK 923 INTER-LIGAND FREE ENERGY PREDICTED BY IDOCK:   -3.49 KCAL/MOL
REMARK 924 INTRA-LIGAND FREE ENERGY PREDICTED BY IDOCK:   -0.39 KCAL/MOL
REMARK 927      BINDING AFFINITY PREDICTED BY RF-SCORE:    0.00 PKD
ROOT
HETATM    1  N   UNL     1      -8.972   4.628  68.090  1.00  0.00    -0.110 N  
HETATM    2  C   UNL     1      -9.660   5.645  68.647  1.00  0.00    -0.130 C  
HETATM    3  H1  UNL     1      -8.636   3.810  68.597  1.00  0.00     0.000 HD 
HETATM    4  H2  UNL     1      -8.774   4.681  67.091  1.00  0.00     0.000 HD 
HETATM    5  O   UNL     1     -10.061   6.624  68.041  1.00  0.00    -0.140 OA 
ENDROOT
BRANCH   2   6
HETATM    6  O   UNL     1      -9.843   5.393  69.956  1.00  0.00    -0.175 OA 
BRANCH   6   7
HETATM    7  C   UNL     1      -9.998   6.515  70.868  1.00  0.00    -0.184 C  
BRANCH   7   8
HETATM    8  C   UNL     1      -8.934   6.370  71.967  1.00  0.00    -0.137 A  
HETATM    9  C   UNL     1      -6.944   6.225  73.988  1.00  0.00    -0.083 A  
HETATM   10  C   UNL     1      -7.911   7.339  72.082  1.00  0.00    -0.098 A  
HETATM   11  C   UNL     1      -8.943   5.339  72.927  1.00  0.00    -0.120 A  
HETATM   12  C   UNL     1      -6.935   7.273  73.079  1.00  0.00    -0.068 A  
HETATM   13  C   UNL     1      -7.945   5.260  73.910  1.00  0.00    -0.105 A  
HETATM   14 CL   UNL     1     -10.194   4.151  73.017  1.00  0.00    -0.209 Cl 
ENDBRANCH   7   8
BRANCH   7  15
HETATM   15  C   UNL     1     -11.453   6.624  71.352  1.00  0.00    -0.301 C  
BRANCH  15  16
HETATM   16  N   UNL     1     -11.968   7.974  71.328  1.00  0.00    -0.295 NA 
HETATM   17  N   UNL     1     -12.839   8.424  72.253  1.00  0.00    -0.336 NA 
HETATM   18  N   UNL     1     -12.013  10.049  70.913  1.00  0.00    -0.334 NA 
HETATM   19  C   UNL     1     -12.840   9.724  71.945  1.00  0.00    -0.427 A  
HETATM   20  N   UNL     1     -11.440   8.918  70.525  1.00  0.00    -0.238 NA 
ENDBRANCH  15  16
ENDBRANCH   7  15
ENDBRANCH   6   7
ENDBRANCH   2   6
TORSDOF 5
ENDMDL
MODEL      260
REMARK 921   NORMALIZED FREE ENERGY PREDICTED BY IDOCK:   -2.31 KCAL/MOL
REMARK 922        TOTAL FREE ENERGY PREDICTED BY IDOCK:   -3.79 KCAL/MOL
REMARK 923 INTER-LIGAND FREE ENERGY PREDICTED BY IDOCK:   -3.22 KCAL/MOL
REMARK 924 INTRA-LIGAND FREE ENERGY PREDICTED BY IDOCK:   -0.57 KCAL/MOL
REMARK 927      BINDING AFFINITY PREDICTED BY RF-SCORE:    0.00 PKD
ROOT
HETATM    1  N   UNL     1     -11.029   8.414  72.653  1.00  0.00    -0.322 N  
HETATM    2  C   UNL     1     -11.696   8.483  71.483  1.00  0.00    -0.297 C  
HETATM    3  H1  UNL     1     -10.089   8.779  72.806  1.00  0.00     0.000 HD 
HETATM    4  H2  UNL     1     -11.496   7.964  73.440  1.00  0.00     0.000 HD 
HETATM    5  O   UNL     1     -12.819   8.046  71.300  1.00  0.00    -0.289 OA 
ENDROOT
BRANCH   2   6
HETATM    6  O   UNL     1     -10.937   9.123  70.575  1.00  0.00    -0.234 OA 
BRANCH   6   7
HETATM    7  C   UNL     1      -9.552   8.712  70.410  1.00  0.00    -0.173 C  
BRANCH   7   8
HETATM    8  C   UNL     1      -8.880   9.716  69.460  1.00  0.00    -0.197 A  
HETATM    9  C   UNL     1      -7.532  11.559  67.770  1.00  0.00    -0.101 A  
HETATM   10  C   UNL     1      -7.717  10.402  69.877  1.00  0.00    -0.083 A  
HETATM   11  C   UNL     1      -9.327   9.962  68.147  1.00  0.00    -0.131 A  
HETATM   12  C   UNL     1      -7.050  11.304  69.045  1.00  0.00    -0.116 A  
HETATM   13  C   UNL     1      -8.669  10.890  67.324  1.00  0.00    -0.131 A  
HETATM   14 CL   UNL     1     -10.648   9.112  67.430  1.00  0.00    -0.342 Cl 
ENDBRANCH   7   8
BRANCH   7  15
HETATM   15  C   UNL     1      -9.471   7.235  69.992  1.00  0.00    -0.161 C  
BRANCH  15  16
HETATM   16  N   UNL     1      -9.051   6.357  71.061  1.00  0.00    -0.153 NA 
HETATM   17  N   UNL     1      -9.906   5.515  71.673  1.00  0.00    -0.168 NA 
HETATM   18  N   UNL     1      -7.739   5.169  72.223  1.00  0.00    -0.098 NA 
HETATM   19  C   UNL     1      -9.039   4.800  72.395  1.00  0.00    -0.126 A  
HETATM   20  N   UNL     1      -7.749   6.167  71.349  1.00  0.00    -0.099 NA 
ENDBRANCH  15  16
ENDBRANCH   7  15
ENDBRANCH   6   7
ENDBRANCH   2   6
TORSDOF 5
ENDMDL
MODEL      261
REMARK 921   NORMALIZED FREE ENERGY PREDICTED BY IDOCK:   -2.30 KCAL/MOL
REMARK 922        TOTAL FREE ENERGY PREDICTED BY IDOCK:   -3.78 KCAL/MOL
REMARK 923 INTER-LIGAND FREE ENERGY PREDICTED BY IDOCK:   -3.49 KCAL/MOL
REMARK 924 INTRA-LIGAND FREE ENERGY PREDICTED BY IDOCK:   -0.29 KCAL/MOL
REMARK 927      BINDING AFFINITY PREDICTED BY RF-SCORE:    0.00 PKD
ROOT
HETATM    1  N   UNL     1      -6.776   7.801  72.512  1.00  0.00    -0.063 N  
HETATM    2  C   UNL     1      -7.007   6.884  71.550  1.00  0.00    -0.066 C  
HETATM    3  H1  UNL     1      -7.480   8.147  73.163  1.00  0.00     0.000 HD 
HETATM    4  H2  UNL     1      -5.830   8.174  72.594  1.00  0.00     0.000 HD 
HETATM    5  O   UNL     1      -6.165   6.469  70.772  1.00  0.00    -0.034 OA 
ENDROOT
BRANCH   2   6
HETATM    6  O   UNL     1      -8.293   6.494  71.608  1.00  0.00    -0.119 OA 
BRANCH   6   7
HETATM    7  C   UNL     1      -9.109   6.602  70.409  1.00  0.00    -0.152 C  
BRANCH   7   8
HETATM    8  C   UNL     1      -9.772   7.988  70.423  1.00  0.00    -0.178 A  
HETATM    9  C   UNL     1     -10.959  10.567  70.328  1.00  0.00    -0.306 A  
HETATM   10  C   UNL     1      -9.368   8.966  69.485  1.00  0.00    -0.155 A  
HETATM   11  C   UNL     1     -10.821   8.341  71.294  1.00  0.00    -0.237 A  
HETATM   12  C   UNL     1      -9.954  10.232  69.433  1.00  0.00    -0.254 A  
HETATM   13  C   UNL     1     -11.389   9.624  71.257  1.00  0.00    -0.458 A  
HETATM   14 CL   UNL     1     -11.529   7.227  72.409  1.00  0.00    -0.317 Cl 
ENDBRANCH   7   8
BRANCH   7  15
HETATM   15  C   UNL     1     -10.064   5.403  70.293  1.00  0.00    -0.248 C  
BRANCH  15  16
HETATM   16  N   UNL     1      -9.683   4.462  69.264  1.00  0.00    -0.191 NA 
HETATM   17  N   UNL     1      -9.533   3.147  69.517  1.00  0.00    -0.153 NA 
HETATM   18  N   UNL     1      -9.484   3.662  67.314  1.00  0.00    -0.203 NA 
HETATM   19  C   UNL     1      -9.402   2.692  68.267  1.00  0.00    -0.201 A  
HETATM   20  N   UNL     1      -9.679   4.803  67.961  1.00  0.00    -0.153 NA 
ENDBRANCH  15  16
ENDBRANCH   7  15
ENDBRANCH   6   7
ENDBRANCH   2   6
TORSDOF 5
ENDMDL
MODEL      262
REMARK 921   NORMALIZED FREE ENERGY PREDICTED BY IDOCK:   -2.20 KCAL/MOL
REMARK 922        TOTAL FREE ENERGY PREDICTED BY IDOCK:   -3.65 KCAL/MOL
REMARK 923 INTER-LIGAND FREE ENERGY PREDICTED BY IDOCK:   -3.38 KCAL/MOL
REMARK 924 INTRA-LIGAND FREE ENERGY PREDICTED BY IDOCK:   -0.27 KCAL/MOL
REMARK 927      BINDING AFFINITY PREDICTED BY RF-SCORE:    0.00 PKD
ROOT
HETATM    1  N   UNL     1     -10.158   4.691  69.682  1.00  0.00    -0.221 N  
HETATM    2  C   UNL     1      -9.853   4.835  68.377  1.00  0.00    -0.121 C  
HETATM    3  H1  UNL     1     -10.323   5.464  70.327  1.00  0.00     0.000 HD 
HETATM    4  H2  UNL     1     -10.229   3.743  70.051  1.00  0.00     0.000 HD 
HETATM    5  O   UNL     1      -9.656   3.911  67.606  1.00  0.00    -0.186 OA 
ENDROOT
BRANCH   2   6
HETATM    6  O   UNL     1      -9.824   6.144  68.068  1.00  0.00    -0.121 OA 
BRANCH   6   7
HETATM    7  C   UNL     1      -8.886   7.006  68.769  1.00  0.00    -0.129 C  
BRANCH   7   8
HETATM    8  C   UNL     1      -9.705   7.988  69.621  1.00  0.00    -0.169 A  
HETATM    9  C   UNL     1     -11.138   9.785  71.290  1.00  0.00    -0.375 A  
HETATM   10  C   UNL     1      -9.609   7.940  71.030  1.00  0.00    -0.177 A  
HETATM   11  C   UNL     1     -10.523   8.996  69.074  1.00  0.00    -0.218 A  
HETATM   12  C   UNL     1     -10.308   8.826  71.852  1.00  0.00    -0.414 A  
HETATM   13  C   UNL     1     -11.246   9.867  69.904  1.00  0.00    -0.298 A  
HETATM   14 CL   UNL     1     -10.649   9.284  67.376  1.00  0.00    -0.344 Cl 
ENDBRANCH   7   8
BRANCH   7  15
HETATM   15  C   UNL     1      -7.891   7.640  67.783  1.00  0.00    -0.120 C  
BRANCH  15  16
HETATM   16  N   UNL     1      -7.819   6.950  66.515  1.00  0.00    -0.104 NA 
HETATM   17  N   UNL     1      -8.295   7.493  65.378  1.00  0.00    -0.137 NA 
HETATM   18  N   UNL     1      -7.087   5.609  65.050  1.00  0.00    -0.062 NA 
HETATM   19  C   UNL     1      -7.819   6.613  64.492  1.00  0.00    -0.115 A  
HETATM   20  N   UNL     1      -7.077   5.837  66.356  1.00  0.00    -0.070 NA 
ENDBRANCH  15  16
ENDBRANCH   7  15
ENDBRANCH   6   7
ENDBRANCH   2   6
TORSDOF 5
ENDMDL
MODEL      263
REMARK 921   NORMALIZED FREE ENERGY PREDICTED BY IDOCK:   -2.20 KCAL/MOL
REMARK 922        TOTAL FREE ENERGY PREDICTED BY IDOCK:   -3.64 KCAL/MOL
REMARK 923 INTER-LIGAND FREE ENERGY PREDICTED BY IDOCK:   -3.22 KCAL/MOL
REMARK 924 INTRA-LIGAND FREE ENERGY PREDICTED BY IDOCK:   -0.42 KCAL/MOL
REMARK 927      BINDING AFFINITY PREDICTED BY RF-SCORE:    0.00 PKD
ROOT
HETATM    1  N   UNL     1      -7.749   8.102  71.960  1.00  0.00    -0.100 N  
HETATM    2  C   UNL     1      -7.719   7.826  70.640  1.00  0.00    -0.091 C  
HETATM    3  H1  UNL     1      -7.867   7.405  72.695  1.00  0.00     0.000 HD 
HETATM    4  H2  UNL     1      -7.646   9.077  72.243  1.00  0.00     0.000 HD 
HETATM    5  O   UNL     1      -7.578   8.660  69.761  1.00  0.00    -0.075 OA 
ENDROOT
BRANCH   2   6
HETATM    6  O   UNL     1      -7.847   6.499  70.461  1.00  0.00    -0.102 OA 
BRANCH   6   7
HETATM    7  C   UNL     1      -9.008   6.001  69.741  1.00  0.00    -0.133 C  
BRANCH   7   8
HETATM    8  C   UNL     1     -10.220   6.115  70.679  1.00  0.00    -0.250 A  
HETATM    9  C   UNL     1     -12.530   6.357  72.314  1.00  0.00    -0.107 A  
HETATM   10  C   UNL     1     -11.341   6.879  70.283  1.00  0.00    -0.373 A  
HETATM   11  C   UNL     1     -10.312   5.445  71.915  1.00  0.00    -0.212 A  
HETATM   12  C   UNL     1     -12.480   6.995  71.083  1.00  0.00    -0.407 A  
HETATM   13  C   UNL     1     -11.448   5.585  72.728  1.00  0.00    -0.339 A  
HETATM   14 CL   UNL     1      -9.095   4.363  72.489  1.00  0.00    -0.132 Cl 
ENDBRANCH   7   8
BRANCH   7  15
HETATM   15  C   UNL     1      -8.732   4.601  69.168  1.00  0.00    -0.087 C  
BRANCH  15  16
HETATM   16  N   UNL     1      -9.255   4.412  67.834  1.00  0.00    -0.128 NA 
HETATM   17  N   UNL     1      -9.881   5.400  67.165  1.00  0.00    -0.145 NA 
HETATM   18  N   UNL     1      -9.428   3.585  65.894  1.00  0.00    -0.162 NA 
HETATM   19  C   UNL     1      -9.975   4.831  65.960  1.00  0.00    -0.237 A  
HETATM   20  N   UNL     1      -8.951   3.323  67.103  1.00  0.00    -0.143 NA 
ENDBRANCH  15  16
ENDBRANCH   7  15
ENDBRANCH   6   7
ENDBRANCH   2   6
TORSDOF 5
ENDMDL
MODEL      264
REMARK 921   NORMALIZED FREE ENERGY PREDICTED BY IDOCK:   -2.15 KCAL/MOL
REMARK 922        TOTAL FREE ENERGY PREDICTED BY IDOCK:   -3.58 KCAL/MOL
REMARK 923 INTER-LIGAND FREE ENERGY PREDICTED BY IDOCK:   -3.03 KCAL/MOL
REMARK 924 INTRA-LIGAND FREE ENERGY PREDICTED BY IDOCK:   -0.55 KCAL/MOL
REMARK 927      BINDING AFFINITY PREDICTED BY RF-SCORE:    0.00 PKD
ROOT
HETATM    1  N   UNL     1      -8.705   5.352  68.550  1.00  0.00    -0.095 N  
HETATM    2  C   UNL     1      -9.435   6.261  67.872  1.00  0.00    -0.115 C  
HETATM    3  H1  UNL     1      -8.948   4.984  69.469  1.00  0.00     0.000 HD 
HETATM    4  H2  UNL     1      -7.850   5.009  68.112  1.00  0.00     0.000 HD 
HETATM    5  O   UNL     1      -9.145   6.702  66.773  1.00  0.00    -0.132 OA 
ENDROOT
BRANCH   2   6
HETATM    6  O   UNL     1     -10.528   6.578  68.591  1.00  0.00    -0.180 OA 
BRANCH   6   7
HETATM    7  C   UNL     1     -10.441   7.667  69.550  1.00  0.00    -0.227 C  
BRANCH   7   8
HETATM    8  C   UNL     1     -10.475   7.049  70.957  1.00  0.00    -0.231 A  
HETATM    9  C   UNL     1     -10.597   5.808  73.509  1.00  0.00    -0.295 A  
HETATM   10  C   UNL     1     -11.412   6.033  71.252  1.00  0.00    -0.251 A  
HETATM   11  C   UNL     1      -9.574   7.399  71.982  1.00  0.00    -0.150 A  
HETATM   12  C   UNL     1     -11.470   5.417  72.504  1.00  0.00    -0.259 A  
HETATM   13  C   UNL     1      -9.653   6.798  73.248  1.00  0.00    -0.184 A  
HETATM   14 CL   UNL     1      -8.281   8.521  71.753  1.00  0.00    -0.201 Cl 
ENDBRANCH   7   8
BRANCH   7  15
HETATM   15  C   UNL     1     -11.509   8.733  69.259  1.00  0.00     0.549 C  
BRANCH  15  16
HETATM   16  N   UNL     1     -10.959  10.048  69.018  1.00  0.00    -0.225 NA 
HETATM   17  N   UNL     1      -9.639  10.300  69.121  1.00  0.00    -0.207 NA 
HETATM   18  N   UNL     1     -10.823  12.000  68.211  1.00  0.00    -0.217 NA 
HETATM   19  C   UNL     1      -9.606  11.535  68.613  1.00  0.00    -0.152 A  
HETATM   20  N   UNL     1     -11.692  11.030  68.462  1.00  0.00    -0.459 NA 
ENDBRANCH  15  16
ENDBRANCH   7  15
ENDBRANCH   6   7
ENDBRANCH   2   6
TORSDOF 5
ENDMDL
MODEL      265
REMARK 921   NORMALIZED FREE ENERGY PREDICTED BY IDOCK:   -1.54 KCAL/MOL
REMARK 922        TOTAL FREE ENERGY PREDICTED BY IDOCK:   -2.79 KCAL/MOL
REMARK 923 INTER-LIGAND FREE ENERGY PREDICTED BY IDOCK:   -2.56 KCAL/MOL
REMARK 924 INTRA-LIGAND FREE ENERGY PREDICTED BY IDOCK:   -0.23 KCAL/MOL
REMARK 927      BINDING AFFINITY PREDICTED BY RF-SCORE:    0.00 PKD
ROOT
HETATM    1  N   UNL     1      -7.035   5.414  68.427  1.00  0.00    -0.060 N  
HETATM    2  C   UNL     1      -8.333   5.675  68.173  1.00  0.00    -0.099 C  
HETATM    3  H1  UNL     1      -6.429   4.852  67.829  1.00  0.00     0.000 HD 
HETATM    4  H2  UNL     1      -6.630   5.806  69.277  1.00  0.00     0.000 HD 
HETATM    5  O   UNL     1      -9.058   6.346  68.888  1.00  0.00    -0.130 OA 
ENDROOT
BRANCH   2   6
HETATM    6  O   UNL     1      -8.683   5.098  67.009  1.00  0.00    -0.106 OA 
BRANCH   6   7
HETATM    7  C   UNL     1      -8.869   5.944  65.841  1.00  0.00    -0.149 C  
BRANCH   7   8
HETATM    8  C   UNL     1      -8.428   5.137  64.609  1.00  0.00    -0.146 A  
HETATM    9  C   UNL     1      -7.494   3.658  62.371  1.00  0.00    -0.048 A  
HETATM   10  C   UNL     1      -7.094   5.230  64.153  1.00  0.00    -0.049 A  
HETATM   11  C   UNL     1      -9.274   4.246  63.920  1.00  0.00    -0.143 A  
HETATM   12  C   UNL     1      -6.631   4.500  63.057  1.00  0.00    -0.027 A  
HETATM   13  C   UNL     1      -8.813   3.533  62.801  1.00  0.00    -0.093 A  
HETATM   14 CL   UNL     1     -10.891   3.908  64.422  1.00  0.00    -0.248 Cl 
ENDBRANCH   7   8
BRANCH   7  15
HETATM   15  C   UNL     1      -8.175   7.302  66.037  1.00  0.00    -0.138 C  
BRANCH  15  16
HETATM   16  N   UNL     1      -8.949   8.419  65.546  1.00  0.00    -0.144 NA 
HETATM   17  N   UNL     1      -9.891   9.022  66.299  1.00  0.00    -0.278 NA 
HETATM   18  N   UNL     1      -9.408  10.129  64.386  1.00  0.00    -0.271 NA 
HETATM   19  C   UNL     1     -10.152  10.080  65.526  1.00  0.00    -0.255 A  
HETATM   20  N   UNL     1      -8.621   9.061  64.409  1.00  0.00    -0.175 NA 
ENDBRANCH  15  16
ENDBRANCH   7  15
ENDBRANCH   6   7
ENDBRANCH   2   6
TORSDOF 5
ENDMDL
MODEL      266
REMARK 921   NORMALIZED FREE ENERGY PREDICTED BY IDOCK:   -1.38 KCAL/MOL
REMARK 922        TOTAL FREE ENERGY PREDICTED BY IDOCK:   -2.59 KCAL/MOL
REMARK 923 INTER-LIGAND FREE ENERGY PREDICTED BY IDOCK:   -3.48 KCAL/MOL
REMARK 924 INTRA-LIGAND FREE ENERGY PREDICTED BY IDOCK:    0.89 KCAL/MOL
REMARK 927      BINDING AFFINITY PREDICTED BY RF-SCORE:    0.00 PKD
ROOT
HETATM    1  N   UNL     1      -8.772   7.962  73.633  1.00  0.00    -0.247 N  
HETATM    2  C   UNL     1      -8.572   8.108  72.307  1.00  0.00    -0.175 C  
HETATM    3  H1  UNL     1      -8.528   7.128  74.166  1.00  0.00     0.000 HD 
HETATM    4  H2  UNL     1      -9.198   8.739  74.137  1.00  0.00     0.000 HD 
HETATM    5  O   UNL     1      -8.865   9.105  71.668  1.00  0.00    -0.339 OA 
ENDROOT
BRANCH   2   6
HETATM    6  O   UNL     1      -7.987   6.999  71.821  1.00  0.00    -0.098 OA 
BRANCH   6   7
HETATM    7  C   UNL     1      -8.790   5.797  71.665  1.00  0.00    -0.136 C  
BRANCH   7   8
HETATM    8  C   UNL     1      -9.472   5.870  70.290  1.00  0.00    -0.191 A  
HETATM    9  C   UNL     1     -10.670   5.900  67.714  1.00  0.00    -0.346 A  
HETATM   10  C   UNL     1      -8.896   5.198  69.187  1.00  0.00    -0.110 A  
HETATM   11  C   UNL     1     -10.694   6.533  70.061  1.00  0.00    -0.249 A  
HETATM   12  C   UNL     1      -9.487   5.206  67.922  1.00  0.00    -0.155 A  
HETATM   13  C   UNL     1     -11.270   6.563  68.782  1.00  0.00    -0.319 A  
HETATM   14 CL   UNL     1     -11.601   7.289  71.322  1.00  0.00    -0.301 Cl 
ENDBRANCH   7   8
BRANCH   7  15
HETATM   15  C   UNL     1      -9.727   5.611  72.869  1.00  0.00    -0.155 C  
BRANCH  15  16
HETATM   16  N   UNL     1     -10.313   4.291  72.944  1.00  0.00    -0.169 NA 
HETATM   17  N   UNL     1      -9.578   3.173  72.781  1.00  0.00    -0.106 NA 
HETATM   18  N   UNL     1     -11.681   2.782  73.517  1.00  0.00    -0.075 NA 
HETATM   19  C   UNL     1     -10.481   2.257  73.142  1.00  0.00    -0.143 A  
HETATM   20  N   UNL     1     -11.564   4.098  73.401  1.00  0.00    -0.164 NA 
ENDBRANCH  15  16
ENDBRANCH   7  15
ENDBRANCH   6   7
ENDBRANCH   2   6
TORSDOF 5
ENDMDL
MODEL      267
REMARK 921   NORMALIZED FREE ENERGY PREDICTED BY IDOCK:   -1.37 KCAL/MOL
REMARK 922        TOTAL FREE ENERGY PREDICTED BY IDOCK:   -2.57 KCAL/MOL
REMARK 923 INTER-LIGAND FREE ENERGY PREDICTED BY IDOCK:   -2.35 KCAL/MOL
REMARK 924 INTRA-LIGAND FREE ENERGY PREDICTED BY IDOCK:   -0.22 KCAL/MOL
REMARK 927      BINDING AFFINITY PREDICTED BY RF-SCORE:    0.00 PKD
ROOT
HETATM    1  N   UNL     1      -6.795   4.542  69.502  1.00  0.00    -0.044 N  
HETATM    2  C   UNL     1      -8.010   4.973  69.897  1.00  0.00    -0.074 C  
HETATM    3  H1  UNL     1      -6.553   4.292  68.543  1.00  0.00     0.000 HD 
HETATM    4  H2  UNL     1      -6.066   4.461  70.211  1.00  0.00     0.000 HD 
HETATM    5  O   UNL     1      -8.299   5.273  71.043  1.00  0.00    -0.116 OA 
ENDROOT
BRANCH   2   6
HETATM    6  O   UNL     1      -8.828   5.037  68.831  1.00  0.00    -0.092 OA 
BRANCH   6   7
HETATM    7  C   UNL     1      -8.953   6.300  68.122  1.00  0.00    -0.115 C  
BRANCH   7   8
HETATM    8  C   UNL     1      -8.389   6.098  66.708  1.00  0.00    -0.110 A  
HETATM    9  C   UNL     1      -7.229   5.729  64.141  1.00  0.00    -0.055 A  
HETATM   10  C   UNL     1      -7.062   6.491  66.421  1.00  0.00    -0.068 A  
HETATM   11  C   UNL     1      -9.106   5.479  65.665  1.00  0.00    -0.122 A  
HETATM   12  C   UNL     1      -6.488   6.305  65.162  1.00  0.00    -0.039 A  
HETATM   13  C   UNL     1      -8.535   5.319  64.393  1.00  0.00    -0.126 A  
HETATM   14 CL   UNL     1     -10.687   4.816  65.878  1.00  0.00    -0.323 Cl 
ENDBRANCH   7   8
BRANCH   7  15
HETATM   15  C   UNL     1      -8.327   7.444  68.937  1.00  0.00    -0.129 C  
BRANCH  15  16
HETATM   16  N   UNL     1      -9.257   8.506  69.246  1.00  0.00    -0.153 NA 
HETATM   17  N   UNL     1     -10.545   8.261  69.557  1.00  0.00    -0.227 NA 
HETATM   18  N   UNL     1      -9.916  10.405  69.909  1.00  0.00    -0.133 NA 
HETATM   19  C   UNL     1     -10.916   9.481  69.956  1.00  0.00    -0.251 A  
HETATM   20  N   UNL     1      -8.842   9.769  69.462  1.00  0.00    -0.178 NA 
ENDBRANCH  15  16
ENDBRANCH   7  15
ENDBRANCH   6   7
ENDBRANCH   2   6
TORSDOF 5
ENDMDL
