MODEL        1
REMARK 921   NORMALIZED FREE ENERGY PREDICTED BY IDOCK:   -7.40 KCAL/MOL
REMARK 922        TOTAL FREE ENERGY PREDICTED BY IDOCK:  -11.02 KCAL/MOL
REMARK 923 INTER-LIGAND FREE ENERGY PREDICTED BY IDOCK:   -9.99 KCAL/MOL
REMARK 924 INTRA-LIGAND FREE ENERGY PREDICTED BY IDOCK:   -1.03 KCAL/MOL
REMARK 927      BINDING AFFINITY PREDICTED BY RF-SCORE:    0.00 PKD
ROOT
HETATM    1  C   UNL     1     -12.303  14.029  66.286  1.00  0.00    -0.448 C  
HETATM    2  S   UNL     1     -11.747  12.643  67.304  1.00  0.00    -0.338 SA 
HETATM    3  C   UNL     1     -12.036  13.509  68.855  1.00  0.00    -0.341 C  
HETATM    4  C   UNL     1     -11.508  14.931  68.915  1.00  0.00    -0.320 C  
HETATM    5  OXT UNL     1     -10.189  17.488  69.063  1.00  0.00    -0.345 OA 
HETATM    6  CA  UNL     1     -11.230  15.694  67.816  1.00  0.00    -0.297 C  
HETATM    7  N   UNL     1     -11.482  15.192  66.567  1.00  0.00    -0.239 N  
HETATM    8  CA  UNL     1     -11.720  14.060  64.834  1.00  0.00    -0.380 C  
HETATM    9  C   UNL     1     -10.572  17.055  67.986  1.00  0.00    -0.373 C  
HETATM   10  O   UNL     1     -10.482  17.838  66.896  1.00  0.00    -0.341 OA 
HETATM   11  O   UNL     1     -10.555  16.394  64.818  1.00  0.00    -0.676 OA 
HETATM   12  C   UNL     1     -11.148  15.448  65.285  1.00  0.00    -0.360 C  
ENDROOT
BRANCH   4  13
HETATM   13  C   UNL     1     -11.242  15.364  70.358  1.00  0.00    -0.323 C  
BRANCH  13  14
HETATM   14  O   UNL     1     -12.459  15.846  70.969  1.00  0.00    -0.440 OA 
BRANCH  14  15
HETATM   15  C   UNL     1     -12.599  15.625  72.304  1.00  0.00    -0.423 C  
HETATM   16  C   UNL     1     -13.388  14.374  72.552  1.00  0.00    -0.578 C  
HETATM   17  O   UNL     1     -12.117  16.307  73.197  1.00  0.00    -0.496 OA 
ENDBRANCH  14  15
ENDBRANCH  13  14
ENDBRANCH   4  13
BRANCH   8  18
HETATM   18  N   UNL     1     -10.704  13.023  64.544  1.00  0.00    -0.362 N  
HETATM   19  H   UNL     1      -9.768  13.160  64.925  1.00  0.00     0.000 HD 
HETATM   20  C   UNL     1     -10.925  11.888  63.799  1.00  0.00    -0.425 C  
HETATM   21  O   UNL     1     -12.020  11.597  63.330  1.00  0.00    -0.424 OA 
BRANCH  20  22
HETATM   22  CA  UNL     1      -9.648  11.026  63.622  1.00  0.00    -0.292 C  
HETATM   23  H2  UNL     1     -10.198  10.413  61.689  1.00  0.00     0.000 HD 
HETATM   24  N   UNL     1      -9.887   9.999  62.567  1.00  0.00    -0.649 NA 
HETATM   25  H1  UNL     1      -9.047   9.432  62.451  1.00  0.00     0.000 HD 
BRANCH  22  26
HETATM   26  C   UNL     1      -9.215  10.399  64.934  1.00  0.00    -0.263 A  
HETATM   27  C   UNL     1     -10.121   9.593  65.643  1.00  0.00    -0.231 A  
HETATM   28  C   UNL     1      -9.757   9.008  66.858  1.00  0.00    -0.260 A  
HETATM   29  C   UNL     1      -8.481   9.211  67.376  1.00  0.00    -0.115 A  
HETATM   30  C   UNL     1      -7.562   9.987  66.677  1.00  0.00    -0.104 A  
HETATM   31  C   UNL     1      -7.923  10.571  65.460  1.00  0.00    -0.145 A  
ENDBRANCH  22  26
ENDBRANCH  20  22
ENDBRANCH   8  18
TORSDOF 6
ENDMDL
MODEL        2
REMARK 921   NORMALIZED FREE ENERGY PREDICTED BY IDOCK:   -6.76 KCAL/MOL
REMARK 922        TOTAL FREE ENERGY PREDICTED BY IDOCK:  -10.17 KCAL/MOL
REMARK 923 INTER-LIGAND FREE ENERGY PREDICTED BY IDOCK:   -9.53 KCAL/MOL
REMARK 924 INTRA-LIGAND FREE ENERGY PREDICTED BY IDOCK:   -0.64 KCAL/MOL
REMARK 927      BINDING AFFINITY PREDICTED BY RF-SCORE:    0.00 PKD
ROOT
HETATM    1  C   UNL     1     -11.838  12.672  66.572  1.00  0.00    -0.396 C  
HETATM    2  S   UNL     1     -10.284  12.251  65.751  1.00  0.00    -0.260 SA 
HETATM    3  C   UNL     1     -10.423  10.496  66.120  1.00  0.00    -0.168 C  
HETATM    4  C   UNL     1     -10.798  10.159  67.552  1.00  0.00    -0.349 C  
HETATM    5  OXT UNL     1     -11.180   9.603  70.353  1.00  0.00    -0.248 OA 
HETATM    6  CA  UNL     1     -11.410  11.028  68.411  1.00  0.00    -0.295 C  
HETATM    7  N   UNL     1     -11.769  12.273  67.966  1.00  0.00    -0.352 N  
HETATM    8  CA  UNL     1     -11.941  14.149  67.077  1.00  0.00    -0.439 C  
HETATM    9  C   UNL     1     -11.614  10.638  69.867  1.00  0.00    -0.316 C  
HETATM   10  O   UNL     1     -12.374  11.449  70.623  1.00  0.00    -0.353 OA 
HETATM   11  O   UNL     1     -12.373  13.774  69.622  1.00  0.00    -0.316 OA 
HETATM   12  C   UNL     1     -12.123  13.470  68.478  1.00  0.00    -0.268 C  
ENDROOT
BRANCH   4  13
HETATM   13  C   UNL     1     -10.320   8.758  67.937  1.00  0.00    -0.224 C  
BRANCH  13  14
HETATM   14  O   UNL     1     -10.803   7.785  66.985  1.00  0.00    -0.316 OA 
BRANCH  14  15
HETATM   15  C   UNL     1     -10.800   6.485  67.386  1.00  0.00    -0.373 C  
HETATM   16  C   UNL     1     -11.047   6.387  68.862  1.00  0.00    -0.420 C  
HETATM   17  O   UNL     1     -10.668   5.511  66.658  1.00  0.00    -0.295 OA 
ENDBRANCH  14  15
ENDBRANCH  13  14
ENDBRANCH   4  13
BRANCH   8  18
HETATM   18  N   UNL     1     -10.707  14.953  66.921  1.00  0.00    -0.302 N  
HETATM   19  H   UNL     1     -10.063  14.986  67.711  1.00  0.00     0.000 HD 
HETATM   20  C   UNL     1     -10.363  15.659  65.792  1.00  0.00    -0.365 C  
HETATM   21  O   UNL     1     -11.037  15.656  64.768  1.00  0.00    -0.441 OA 
BRANCH  20  22
HETATM   22  CA  UNL     1      -9.040  16.450  65.958  1.00  0.00    -0.282 C  
HETATM   23  H2  UNL     1      -7.952  14.733  66.490  1.00  0.00     0.000 HD 
HETATM   24  N   UNL     1      -8.109  15.680  66.833  1.00  0.00    -0.240 NA 
HETATM   25  H1  UNL     1      -7.239  16.201  66.942  1.00  0.00     0.000 HD 
BRANCH  22  26
HETATM   26  C   UNL     1      -9.291  17.848  66.491  1.00  0.00    -0.290 A  
HETATM   27  C   UNL     1      -8.464  18.355  67.506  1.00  0.00    -0.260 A  
HETATM   28  C   UNL     1      -8.672  19.635  68.026  1.00  0.00    -0.366 A  
HETATM   29  C   UNL     1      -9.704  20.430  67.532  1.00  0.00    -0.571 A  
HETATM   30  C   UNL     1     -10.519  19.953  66.509  1.00  0.00    -0.589 A  
HETATM   31  C   UNL     1     -10.310  18.675  65.987  1.00  0.00    -0.436 A  
ENDBRANCH  22  26
ENDBRANCH  20  22
ENDBRANCH   8  18
TORSDOF 6
ENDMDL
MODEL        3
REMARK 921   NORMALIZED FREE ENERGY PREDICTED BY IDOCK:   -6.76 KCAL/MOL
REMARK 922        TOTAL FREE ENERGY PREDICTED BY IDOCK:  -10.16 KCAL/MOL
REMARK 923 INTER-LIGAND FREE ENERGY PREDICTED BY IDOCK:   -9.37 KCAL/MOL
REMARK 924 INTRA-LIGAND FREE ENERGY PREDICTED BY IDOCK:   -0.79 KCAL/MOL
REMARK 927      BINDING AFFINITY PREDICTED BY RF-SCORE:    0.00 PKD
ROOT
HETATM    1  C   UNL     1     -11.341  13.432  67.709  1.00  0.00    -0.294 C  
HETATM    2  S   UNL     1      -9.592  13.603  68.130  1.00  0.00    -0.223 SA 
HETATM    3  C   UNL     1      -9.590  15.389  67.917  1.00  0.00    -0.206 C  
HETATM    4  C   UNL     1     -10.259  15.894  66.651  1.00  0.00    -0.293 C  
HETATM    5  OXT UNL     1     -11.244  16.743  64.081  1.00  0.00    -1.155 OA 
HETATM    6  CA  UNL     1     -11.170  15.180  65.927  1.00  0.00    -0.280 C  
HETATM    7  N   UNL     1     -11.567  13.947  66.372  1.00  0.00    -0.351 N  
HETATM    8  CA  UNL     1     -11.755  12.026  67.159  1.00  0.00    -0.273 C  
HETATM    9  C   UNL     1     -11.674  15.722  64.597  1.00  0.00    -0.147 C  
HETATM   10  O   UNL     1     -12.696  15.071  64.013  1.00  0.00    -0.772 OA 
HETATM   11  O   UNL     1     -12.749  12.679  64.837  1.00  0.00    -0.648 OA 
HETATM   12  C   UNL     1     -12.187  12.848  65.895  1.00  0.00    -0.407 C  
ENDROOT
BRANCH   4  13
HETATM   13  C   UNL     1      -9.714  17.264  66.244  1.00  0.00    -0.266 C  
BRANCH  13  14
HETATM   14  O   UNL     1     -10.292  18.299  67.069  1.00  0.00    -0.357 OA 
BRANCH  14  15
HETATM   15  C   UNL     1     -10.435  19.526  66.498  1.00  0.00    -0.493 C  
HETATM   16  C   UNL     1      -9.844  20.589  67.375  1.00  0.00    -0.574 C  
HETATM   17  O   UNL     1     -10.925  19.752  65.401  1.00  0.00    -0.414 OA 
ENDBRANCH  14  15
ENDBRANCH  13  14
ENDBRANCH   4  13
BRANCH   8  18
HETATM   18  N   UNL     1     -10.635  11.081  66.945  1.00  0.00    -0.247 N  
HETATM   19  H   UNL     1     -10.079  11.193  66.097  1.00  0.00     0.000 HD 
HETATM   20  C   UNL     1     -10.288  10.064  67.802  1.00  0.00    -0.215 C  
HETATM   21  O   UNL     1     -10.855   9.864  68.870  1.00  0.00    -0.218 OA 
BRANCH  20  22
HETATM   22  CA  UNL     1      -9.108   9.208  67.272  1.00  0.00    -0.126 C  
HETATM   23  H2  UNL     1      -8.677  10.563  65.724  1.00  0.00     0.000 HD 
HETATM   24  N   UNL     1      -8.839   9.564  65.848  1.00  0.00    -0.155 NA 
HETATM   25  H1  UNL     1      -8.064   9.001  65.499  1.00  0.00     0.000 HD 
BRANCH  22  26
HETATM   26  C   UNL     1      -9.377   7.725  67.443  1.00  0.00    -0.168 A  
HETATM   27  C   UNL     1      -8.613   6.990  68.364  1.00  0.00    -0.126 A  
HETATM   28  C   UNL     1      -8.829   5.621  68.540  1.00  0.00    -0.108 A  
HETATM   29  C   UNL     1      -9.817   4.969  67.806  1.00  0.00    -0.199 A  
HETATM   30  C   UNL     1     -10.600   5.686  66.906  1.00  0.00    -0.367 A  
HETATM   31  C   UNL     1     -10.387   7.055  66.730  1.00  0.00    -0.291 A  
ENDBRANCH  22  26
ENDBRANCH  20  22
ENDBRANCH   8  18
TORSDOF 6
ENDMDL
MODEL        4
REMARK 921   NORMALIZED FREE ENERGY PREDICTED BY IDOCK:   -6.57 KCAL/MOL
REMARK 922        TOTAL FREE ENERGY PREDICTED BY IDOCK:   -9.91 KCAL/MOL
REMARK 923 INTER-LIGAND FREE ENERGY PREDICTED BY IDOCK:   -9.16 KCAL/MOL
REMARK 924 INTRA-LIGAND FREE ENERGY PREDICTED BY IDOCK:   -0.75 KCAL/MOL
REMARK 927      BINDING AFFINITY PREDICTED BY RF-SCORE:    0.00 PKD
ROOT
HETATM    1  C   UNL     1      -9.796  13.757  66.403  1.00  0.00    -0.298 C  
HETATM    2  S   UNL     1     -11.149  14.850  66.892  1.00  0.00    -0.336 SA 
HETATM    3  C   UNL     1     -10.402  16.308  66.150  1.00  0.00    -0.341 C  
HETATM    4  C   UNL     1      -8.930  16.514  66.458  1.00  0.00    -0.312 C  
HETATM    5  OXT UNL     1      -6.239  17.009  67.360  1.00  0.00    -0.126 OA 
HETATM    6  CA  UNL     1      -8.086  15.524  66.874  1.00  0.00    -0.249 C  
HETATM    7  N   UNL     1      -8.555  14.240  66.978  1.00  0.00    -0.212 N  
HETATM    8  CA  UNL     1      -9.623  12.479  67.290  1.00  0.00    -0.205 C  
HETATM    9  C   UNL     1      -6.663  15.865  67.291  1.00  0.00    -0.186 C  
HETATM   10  O   UNL     1      -5.824  14.839  67.521  1.00  0.00    -0.332 OA 
HETATM   11  O   UNL     1      -7.164  12.774  68.110  1.00  0.00    -0.093 OA 
HETATM   12  C   UNL     1      -8.198  13.075  67.557  1.00  0.00    -0.181 C  
ENDROOT
BRANCH   4  13
HETATM   13  C   UNL     1      -8.537  17.987  66.332  1.00  0.00    -0.228 C  
BRANCH  13  14
HETATM   14  O   UNL     1      -8.781  18.680  67.576  1.00  0.00    -0.267 OA 
BRANCH  14  15
HETATM   15  C   UNL     1      -9.762  19.622  67.567  1.00  0.00    -0.353 C  
HETATM   16  C   UNL     1     -10.038  20.084  66.168  1.00  0.00    -0.588 C  
HETATM   17  O   UNL     1     -10.384  20.017  68.543  1.00  0.00    -0.438 OA 
ENDBRANCH  14  15
ENDBRANCH  13  14
ENDBRANCH   4  13
BRANCH   8  18
HETATM   18  N   UNL     1     -10.511  12.412  68.473  1.00  0.00    -0.230 N  
HETATM   19  H   UNL     1     -10.293  13.021  69.261  1.00  0.00     0.000 HD 
HETATM   20  C   UNL     1     -11.607  11.590  68.590  1.00  0.00    -0.313 C  
HETATM   21  O   UNL     1     -11.990  10.849  67.691  1.00  0.00    -0.512 OA 
BRANCH  20  22
HETATM   22  CA  UNL     1     -12.299  11.705  69.974  1.00  0.00    -0.187 C  
HETATM   23  H2  UNL     1     -11.940  13.771  70.104  1.00  0.00     0.000 HD 
HETATM   24  N   UNL     1     -11.814  12.932  70.669  1.00  0.00    -0.502 NA 
HETATM   25  H1  UNL     1     -12.269  13.008  71.579  1.00  0.00     0.000 HD 
BRANCH  22  26
HETATM   26  C   UNL     1     -12.080  10.457  70.810  1.00  0.00    -0.463 A  
HETATM   27  C   UNL     1     -13.154   9.924  71.541  1.00  0.00    -0.516 A  
HETATM   28  C   UNL     1     -12.985   8.782  72.328  1.00  0.00    -0.462 A  
HETATM   29  C   UNL     1     -11.745   8.151  72.386  1.00  0.00    -0.461 A  
HETATM   30  C   UNL     1     -10.676   8.652  71.650  1.00  0.00    -0.374 A  
HETATM   31  C   UNL     1     -10.843   9.792  70.861  1.00  0.00    -0.399 A  
ENDBRANCH  22  26
ENDBRANCH  20  22
ENDBRANCH   8  18
TORSDOF 6
ENDMDL
MODEL        5
REMARK 921   NORMALIZED FREE ENERGY PREDICTED BY IDOCK:   -6.55 KCAL/MOL
REMARK 922        TOTAL FREE ENERGY PREDICTED BY IDOCK:   -9.88 KCAL/MOL
REMARK 923 INTER-LIGAND FREE ENERGY PREDICTED BY IDOCK:   -8.99 KCAL/MOL
REMARK 924 INTRA-LIGAND FREE ENERGY PREDICTED BY IDOCK:   -0.88 KCAL/MOL
REMARK 927      BINDING AFFINITY PREDICTED BY RF-SCORE:    0.00 PKD
ROOT
HETATM    1  C   UNL     1     -11.973  15.075  68.611  1.00  0.00    -0.246 C  
HETATM    2  S   UNL     1     -11.172  15.413  70.195  1.00  0.00    -0.332 SA 
HETATM    3  C   UNL     1     -10.428  16.950  69.629  1.00  0.00    -0.158 C  
HETATM    4  C   UNL     1      -9.742  16.882  68.276  1.00  0.00    -0.256 C  
HETATM    5  OXT UNL     1      -8.182  16.583  65.873  1.00  0.00    -0.345 OA 
HETATM    6  CA  UNL     1      -9.997  15.927  67.333  1.00  0.00    -0.239 C  
HETATM    7  N   UNL     1     -10.965  14.987  67.571  1.00  0.00    -0.298 N  
HETATM    8  CA  UNL     1     -12.283  13.566  68.335  1.00  0.00    -0.115 C  
HETATM    9  C   UNL     1      -9.153  15.866  66.069  1.00  0.00    -0.328 C  
HETATM   10  O   UNL     1      -9.555  15.027  65.098  1.00  0.00    -0.132 OA 
HETATM   11  O   UNL     1     -10.974  13.191  66.110  1.00  0.00    -0.280 OA 
HETATM   12  C   UNL     1     -11.352  13.786  67.093  1.00  0.00    -0.324 C  
ENDROOT
BRANCH   4  13
HETATM   13  C   UNL     1      -8.667  17.962  68.143  1.00  0.00    -0.268 C  
BRANCH  13  14
HETATM   14  O   UNL     1      -9.274  19.238  67.842  1.00  0.00    -0.300 OA 
BRANCH  14  15
HETATM   15  C   UNL     1      -9.213  19.652  66.548  1.00  0.00    -0.378 C  
HETATM   16  C   UNL     1     -10.587  19.940  66.020  1.00  0.00    -0.527 C  
HETATM   17  O   UNL     1      -8.191  19.823  65.898  1.00  0.00    -0.347 OA 
ENDBRANCH  14  15
ENDBRANCH  13  14
ENDBRANCH   4  13
BRANCH   8  18
HETATM   18  N   UNL     1     -11.765  12.623  69.353  1.00  0.00    -0.314 N  
HETATM   19  H   UNL     1     -11.513  13.004  70.265  1.00  0.00     0.000 HD 
HETATM   20  C   UNL     1     -11.597  11.272  69.162  1.00  0.00    -0.319 C  
HETATM   21  O   UNL     1     -11.908  10.697  68.124  1.00  0.00    -0.482 OA 
BRANCH  20  22
HETATM   22  CA  UNL     1     -10.979  10.563  70.395  1.00  0.00    -0.178 C  
HETATM   23  H2  UNL     1      -9.011  10.889  69.732  1.00  0.00     0.000 HD 
HETATM   24  N   UNL     1      -9.592  10.121  70.068  1.00  0.00    -0.403 NA 
HETATM   25  H1  UNL     1      -9.185   9.655  70.878  1.00  0.00     0.000 HD 
BRANCH  22  26
HETATM   26  C   UNL     1     -11.844   9.409  70.865  1.00  0.00    -0.365 A  
HETATM   27  C   UNL     1     -11.410   8.091  70.645  1.00  0.00    -0.256 A  
HETATM   28  C   UNL     1     -12.186   7.005  71.058  1.00  0.00    -0.419 A  
HETATM   29  C   UNL     1     -13.401   7.220  71.704  1.00  0.00    -0.421 A  
HETATM   30  C   UNL     1     -13.836   8.519  71.951  1.00  0.00    -0.473 A  
HETATM   31  C   UNL     1     -13.060   9.606  71.542  1.00  0.00    -0.488 A  
ENDBRANCH  22  26
ENDBRANCH  20  22
ENDBRANCH   8  18
TORSDOF 6
ENDMDL
MODEL        6
REMARK 921   NORMALIZED FREE ENERGY PREDICTED BY IDOCK:   -6.53 KCAL/MOL
REMARK 922        TOTAL FREE ENERGY PREDICTED BY IDOCK:   -9.85 KCAL/MOL
REMARK 923 INTER-LIGAND FREE ENERGY PREDICTED BY IDOCK:   -8.95 KCAL/MOL
REMARK 924 INTRA-LIGAND FREE ENERGY PREDICTED BY IDOCK:   -0.90 KCAL/MOL
REMARK 927      BINDING AFFINITY PREDICTED BY RF-SCORE:    0.00 PKD
ROOT
HETATM    1  C   UNL     1     -10.854  12.942  67.080  1.00  0.00    -0.256 C  
HETATM    2  S   UNL     1      -9.054  13.085  67.160  1.00  0.00    -0.231 SA 
HETATM    3  C   UNL     1      -9.076  14.883  67.193  1.00  0.00    -0.222 C  
HETATM    4  C   UNL     1      -9.981  15.543  66.168  1.00  0.00    -0.332 C  
HETATM    5  OXT UNL     1     -11.455  16.712  63.987  1.00  0.00    -1.192 OA 
HETATM    6  CA  UNL     1     -11.027  14.917  65.552  1.00  0.00    -0.350 C  
HETATM    7  N   UNL     1     -11.339  13.628  65.898  1.00  0.00    -0.306 N  
HETATM    8  CA  UNL     1     -11.385  11.617  66.440  1.00  0.00    -0.245 C  
HETATM    9  C   UNL     1     -11.783  15.624  64.437  1.00  0.00    -0.218 C  
HETATM   10  O   UNL     1     -12.909  15.041  63.988  1.00  0.00    -0.676 OA 
HETATM   11  O   UNL     1     -12.820  12.559  64.475  1.00  0.00    -0.701 OA 
HETATM   12  C   UNL     1     -12.055  12.593  65.412  1.00  0.00    -0.462 C  
ENDROOT
BRANCH   4  13
HETATM   13  C   UNL     1      -9.514  16.964  65.848  1.00  0.00    -0.113 C  
BRANCH  13  14
HETATM   14  O   UNL     1     -10.088  17.902  66.784  1.00  0.00    -0.315 OA 
BRANCH  14  15
HETATM   15  C   UNL     1     -10.396  19.136  66.300  1.00  0.00    -0.474 C  
HETATM   16  C   UNL     1      -9.674  20.201  67.069  1.00  0.00    -0.574 C  
HETATM   17  O   UNL     1     -11.116  19.368  65.340  1.00  0.00    -0.402 OA 
ENDBRANCH  14  15
ENDBRANCH  13  14
ENDBRANCH   4  13
BRANCH   8  18
HETATM   18  N   UNL     1     -10.342  10.728  65.880  1.00  0.00    -0.254 N  
HETATM   19  H   UNL     1      -9.755  11.102  65.134  1.00  0.00     0.000 HD 
HETATM   20  C   UNL     1     -10.104   9.437  66.287  1.00  0.00    -0.258 C  
HETATM   21  O   UNL     1     -10.717   8.900  67.204  1.00  0.00    -0.265 OA 
BRANCH  20  22
HETATM   22  CA  UNL     1      -8.985   8.744  65.467  1.00  0.00    -0.181 C  
HETATM   23  H2  UNL     1      -9.901   6.857  65.605  1.00  0.00     0.000 HD 
HETATM   24  N   UNL     1      -8.988   7.282  65.764  1.00  0.00    -0.355 NA 
HETATM   25  H1  UNL     1      -8.252   6.826  65.225  1.00  0.00     0.000 HD 
BRANCH  22  26
HETATM   26  C   UNL     1      -7.630   9.373  65.733  1.00  0.00    -0.099 A  
HETATM   27  C   UNL     1      -7.158   9.452  67.053  1.00  0.00    -0.086 A  
HETATM   28  C   UNL     1      -5.918  10.033  67.335  1.00  0.00    -0.054 A  
HETATM   29  C   UNL     1      -5.131  10.533  66.301  1.00  0.00    -0.060 A  
HETATM   30  C   UNL     1      -5.572  10.441  64.984  1.00  0.00    -0.141 A  
HETATM   31  C   UNL     1      -6.810   9.859  64.701  1.00  0.00    -0.126 A  
ENDBRANCH  22  26
ENDBRANCH  20  22
ENDBRANCH   8  18
TORSDOF 6
ENDMDL
MODEL        7
REMARK 921   NORMALIZED FREE ENERGY PREDICTED BY IDOCK:   -6.51 KCAL/MOL
REMARK 922        TOTAL FREE ENERGY PREDICTED BY IDOCK:   -9.82 KCAL/MOL
REMARK 923 INTER-LIGAND FREE ENERGY PREDICTED BY IDOCK:   -9.06 KCAL/MOL
REMARK 924 INTRA-LIGAND FREE ENERGY PREDICTED BY IDOCK:   -0.76 KCAL/MOL
REMARK 927      BINDING AFFINITY PREDICTED BY RF-SCORE:    0.00 PKD
ROOT
HETATM    1  C   UNL     1     -11.356  13.196  67.282  1.00  0.00    -0.306 C  
HETATM    2  S   UNL     1      -9.644  13.404  67.823  1.00  0.00    -0.221 SA 
HETATM    3  C   UNL     1      -9.753  15.199  67.880  1.00  0.00    -0.208 C  
HETATM    4  C   UNL     1     -10.393  15.851  66.669  1.00  0.00    -0.302 C  
HETATM    5  OXT UNL     1     -11.310  17.024  64.202  1.00  0.00    -1.164 OA 
HETATM    6  CA  UNL     1     -11.219  15.204  65.794  1.00  0.00    -0.287 C  
HETATM    7  N   UNL     1     -11.552  13.895  66.026  1.00  0.00    -0.338 N  
HETATM    8  CA  UNL     1     -11.647  11.869  66.505  1.00  0.00    -0.255 C  
HETATM    9  C   UNL     1     -11.695  15.912  64.534  1.00  0.00    -0.161 C  
HETATM   10  O   UNL     1     -12.641  15.299  63.801  1.00  0.00    -0.733 OA 
HETATM   11  O   UNL     1     -12.572  12.809  64.253  1.00  0.00    -0.597 OA 
HETATM   12  C   UNL     1     -12.073  12.847  65.355  1.00  0.00    -0.454 C  
ENDROOT
BRANCH   4  13
HETATM   13  C   UNL     1      -9.923  17.297  66.503  1.00  0.00    -0.305 C  
BRANCH  13  14
HETATM   14  O   UNL     1     -10.702  18.177  67.343  1.00  0.00    -0.403 OA 
BRANCH  14  15
HETATM   15  C   UNL     1     -10.357  19.493  67.334  1.00  0.00    -0.450 C  
HETATM   16  C   UNL     1     -10.271  20.006  65.928  1.00  0.00    -0.527 C  
HETATM   17  O   UNL     1     -10.186  20.195  68.321  1.00  0.00    -0.420 OA 
ENDBRANCH  14  15
ENDBRANCH  13  14
ENDBRANCH   4  13
BRANCH   8  18
HETATM   18  N   UNL     1     -10.458  11.036  66.216  1.00  0.00    -0.255 N  
HETATM   19  H   UNL     1      -9.791  11.389  65.529  1.00  0.00     0.000 HD 
HETATM   20  C   UNL     1     -10.183   9.824  66.803  1.00  0.00    -0.233 C  
HETATM   21  O   UNL     1     -10.888   9.325  67.673  1.00  0.00    -0.250 OA 
BRANCH  20  22
HETATM   22  CA  UNL     1      -8.893   9.166  66.248  1.00  0.00    -0.148 C  
HETATM   23  H2  UNL     1      -9.454   9.495  64.249  1.00  0.00     0.000 HD 
HETATM   24  N   UNL     1      -9.125   8.731  64.840  1.00  0.00    -0.428 NA 
HETATM   25  H1  UNL     1      -8.277   8.299  64.475  1.00  0.00     0.000 HD 
BRANCH  22  26
HETATM   26  C   UNL     1      -8.433   8.017  67.126  1.00  0.00    -0.124 A  
HETATM   27  C   UNL     1      -7.660   8.291  68.266  1.00  0.00    -0.101 A  
HETATM   28  C   UNL     1      -7.213   7.257  69.092  1.00  0.00    -0.085 A  
HETATM   29  C   UNL     1      -7.540   5.936  68.795  1.00  0.00    -0.090 A  
HETATM   30  C   UNL     1      -8.324   5.647  67.682  1.00  0.00    -0.100 A  
HETATM   31  C   UNL     1      -8.774   6.681  66.857  1.00  0.00    -0.116 A  
ENDBRANCH  22  26
ENDBRANCH  20  22
ENDBRANCH   8  18
TORSDOF 6
ENDMDL
MODEL        8
REMARK 921   NORMALIZED FREE ENERGY PREDICTED BY IDOCK:   -6.47 KCAL/MOL
REMARK 922        TOTAL FREE ENERGY PREDICTED BY IDOCK:   -9.78 KCAL/MOL
REMARK 923 INTER-LIGAND FREE ENERGY PREDICTED BY IDOCK:   -9.88 KCAL/MOL
REMARK 924 INTRA-LIGAND FREE ENERGY PREDICTED BY IDOCK:    0.10 KCAL/MOL
REMARK 927      BINDING AFFINITY PREDICTED BY RF-SCORE:    0.00 PKD
ROOT
HETATM    1  C   UNL     1      -9.955  13.425  66.782  1.00  0.00    -0.264 C  
HETATM    2  S   UNL     1     -11.298  14.419  67.470  1.00  0.00    -0.344 SA 
HETATM    3  C   UNL     1     -10.750  15.935  66.671  1.00  0.00    -0.270 C  
HETATM    4  C   UNL     1      -9.266  16.232  66.788  1.00  0.00    -0.253 C  
HETATM    5  OXT UNL     1      -6.516  16.890  67.341  1.00  0.00    -0.129 OA 
HETATM    6  CA  UNL     1      -8.313  15.293  67.066  1.00  0.00    -0.234 C  
HETATM    7  N   UNL     1      -8.682  13.980  67.200  1.00  0.00    -0.219 N  
HETATM    8  CA  UNL     1      -9.586  12.148  67.607  1.00  0.00    -0.190 C  
HETATM    9  C   UNL     1      -6.873  15.721  67.301  1.00  0.00    -0.185 C  
HETATM   10  O   UNL     1      -5.947  14.749  67.394  1.00  0.00    -0.339 OA 
HETATM   11  O   UNL     1      -7.064  12.592  68.104  1.00  0.00    -0.084 OA 
HETATM   12  C   UNL     1      -8.179  12.832  67.699  1.00  0.00    -0.175 C  
ENDROOT
BRANCH   4  13
HETATM   13  C   UNL     1      -8.987  17.730  66.647  1.00  0.00    -0.266 C  
BRANCH  13  14
HETATM   14  O   UNL     1      -9.868  18.313  65.662  1.00  0.00    -0.462 OA 
BRANCH  14  15
HETATM   15  C   UNL     1     -10.504  19.462  66.018  1.00  0.00    -0.505 C  
HETATM   16  C   UNL     1     -10.295  19.753  67.474  1.00  0.00    -0.578 C  
HETATM   17  O   UNL     1     -11.121  20.201  65.264  1.00  0.00    -0.221 OA 
ENDBRANCH  14  15
ENDBRANCH  13  14
ENDBRANCH   4  13
BRANCH   8  18
HETATM   18  N   UNL     1     -10.304  12.004  68.894  1.00  0.00    -0.391 N  
HETATM   19  H   UNL     1      -9.827  12.324  69.738  1.00  0.00     0.000 HD 
HETATM   20  C   UNL     1     -11.563  11.472  69.040  1.00  0.00    -0.318 C  
HETATM   21  O   UNL     1     -12.247  11.098  68.094  1.00  0.00    -0.612 OA 
BRANCH  20  22
HETATM   22  CA  UNL     1     -12.018  11.401  70.521  1.00  0.00    -0.356 C  
HETATM   23  H2  UNL     1     -12.674   9.412  70.338  1.00  0.00     0.000 HD 
HETATM   24  N   UNL     1     -13.021  10.309  70.679  1.00  0.00    -0.529 NA 
HETATM   25  H1  UNL     1     -13.321  10.262  71.652  1.00  0.00     0.000 HD 
BRANCH  22  26
HETATM   26  C   UNL     1     -12.554  12.736  71.003  1.00  0.00    -0.362 A  
HETATM   27  C   UNL     1     -13.444  12.767  72.089  1.00  0.00    -0.591 A  
HETATM   28  C   UNL     1     -13.964  13.978  72.552  1.00  0.00    -0.553 A  
HETATM   29  C   UNL     1     -13.594  15.175  71.945  1.00  0.00    -0.545 A  
HETATM   30  C   UNL     1     -12.694  15.166  70.883  1.00  0.00    -0.464 A  
HETATM   31  C   UNL     1     -12.172  13.956  70.419  1.00  0.00    -0.438 A  
ENDBRANCH  22  26
ENDBRANCH  20  22
ENDBRANCH   8  18
TORSDOF 6
ENDMDL
MODEL        9
REMARK 921   NORMALIZED FREE ENERGY PREDICTED BY IDOCK:   -6.47 KCAL/MOL
REMARK 922        TOTAL FREE ENERGY PREDICTED BY IDOCK:   -9.78 KCAL/MOL
REMARK 923 INTER-LIGAND FREE ENERGY PREDICTED BY IDOCK:   -8.98 KCAL/MOL
REMARK 924 INTRA-LIGAND FREE ENERGY PREDICTED BY IDOCK:   -0.79 KCAL/MOL
REMARK 927      BINDING AFFINITY PREDICTED BY RF-SCORE:    0.00 PKD
ROOT
HETATM    1  C   UNL     1     -11.847  13.941  67.302  1.00  0.00    -0.407 C  
HETATM    2  S   UNL     1     -10.558  13.801  68.560  1.00  0.00    -0.255 SA 
HETATM    3  C   UNL     1     -10.655  15.535  69.027  1.00  0.00    -0.246 C  
HETATM    4  C   UNL     1     -10.673  16.520  67.872  1.00  0.00    -0.337 C  
HETATM    5  OXT UNL     1     -10.368  18.325  65.647  1.00  0.00    -0.607 OA 
HETATM    6  CA  UNL     1     -11.028  16.197  66.593  1.00  0.00    -0.055 C  
HETATM    7  N   UNL     1     -11.449  14.924  66.312  1.00  0.00    -0.312 N  
HETATM    8  CA  UNL     1     -11.778  12.872  66.161  1.00  0.00    -0.396 C  
HETATM    9  C   UNL     1     -10.877  17.226  65.481  1.00  0.00    -0.023 C  
HETATM   10  O   UNL     1     -11.402  16.920  64.282  1.00  0.00    -1.202 OA 
HETATM   11  O   UNL     1     -11.579  14.405  64.059  1.00  0.00    -0.218 OA 
HETATM   12  C   UNL     1     -11.628  14.129  65.236  1.00  0.00    -0.341 C  
ENDROOT
BRANCH   4  13
HETATM   13  C   UNL     1     -10.158  17.894  68.305  1.00  0.00    -0.375 C  
BRANCH  13  14
HETATM   14  O   UNL     1      -8.726  17.859  68.483  1.00  0.00    -0.292 OA 
BRANCH  14  15
HETATM   15  C   UNL     1      -8.074  19.051  68.420  1.00  0.00    -0.346 C  
HETATM   16  C   UNL     1      -6.762  18.975  69.142  1.00  0.00    -0.337 C  
HETATM   17  O   UNL     1      -8.458  20.046  67.821  1.00  0.00    -0.307 OA 
ENDBRANCH  14  15
ENDBRANCH  13  14
ENDBRANCH   4  13
BRANCH   8  18
HETATM   18  N   UNL     1     -10.597  11.979  66.208  1.00  0.00    -0.244 N  
HETATM   19  H   UNL     1     -10.030  11.992  67.056  1.00  0.00     0.000 HD 
HETATM   20  C   UNL     1     -10.207  11.134  65.197  1.00  0.00    -0.289 C  
HETATM   21  O   UNL     1     -10.836  11.002  64.153  1.00  0.00    -0.361 OA 
BRANCH  20  22
HETATM   22  CA  UNL     1      -8.895  10.373  65.522  1.00  0.00    -0.176 C  
HETATM   23  H2  UNL     1      -7.776  11.487  64.134  1.00  0.00     0.000 HD 
HETATM   24  N   UNL     1      -7.947  10.511  64.379  1.00  0.00    -0.333 NA 
HETATM   25  H1  UNL     1      -7.084  10.011  64.592  1.00  0.00     0.000 HD 
BRANCH  22  26
HETATM   26  C   UNL     1      -9.165   8.919  65.860  1.00  0.00    -0.290 A  
HETATM   27  C   UNL     1     -10.286   8.593  66.641  1.00  0.00    -0.343 A  
HETATM   28  C   UNL     1     -10.559   7.265  66.978  1.00  0.00    -0.415 A  
HETATM   29  C   UNL     1      -9.723   6.244  66.531  1.00  0.00    -0.180 A  
HETATM   30  C   UNL     1      -8.622   6.547  65.736  1.00  0.00    -0.149 A  
HETATM   31  C   UNL     1      -8.348   7.874  65.396  1.00  0.00    -0.146 A  
ENDBRANCH  22  26
ENDBRANCH  20  22
ENDBRANCH   8  18
TORSDOF 6
ENDMDL
MODEL       10
REMARK 921   NORMALIZED FREE ENERGY PREDICTED BY IDOCK:   -6.45 KCAL/MOL
REMARK 922        TOTAL FREE ENERGY PREDICTED BY IDOCK:   -9.75 KCAL/MOL
REMARK 923 INTER-LIGAND FREE ENERGY PREDICTED BY IDOCK:   -8.97 KCAL/MOL
REMARK 924 INTRA-LIGAND FREE ENERGY PREDICTED BY IDOCK:   -0.78 KCAL/MOL
REMARK 927      BINDING AFFINITY PREDICTED BY RF-SCORE:    0.00 PKD
ROOT
HETATM    1  C   UNL     1     -11.268  12.987  67.334  1.00  0.00    -0.288 C  
HETATM    2  S   UNL     1      -9.643  13.457  67.969  1.00  0.00    -0.222 SA 
HETATM    3  C   UNL     1      -9.994  15.220  67.910  1.00  0.00    -0.228 C  
HETATM    4  C   UNL     1     -10.629  15.715  66.623  1.00  0.00    -0.307 C  
HETATM    5  OXT UNL     1     -11.518  16.621  64.037  1.00  0.00    -1.192 OA 
HETATM    6  CA  UNL     1     -11.297  14.916  65.739  1.00  0.00    -0.314 C  
HETATM    7  N   UNL     1     -11.467  13.587  66.029  1.00  0.00    -0.317 N  
HETATM    8  CA  UNL     1     -11.324  11.595  66.622  1.00  0.00    -0.270 C  
HETATM    9  C   UNL     1     -11.772  15.486  64.411  1.00  0.00    -0.242 C  
HETATM   10  O   UNL     1     -12.574  14.711  63.658  1.00  0.00    -0.773 OA 
HETATM   11  O   UNL     1     -12.204  12.282  64.264  1.00  0.00    -0.415 OA 
HETATM   12  C   UNL     1     -11.794  12.445  65.391  1.00  0.00    -0.406 C  
ENDROOT
BRANCH   4  13
HETATM   13  C   UNL     1     -10.346  17.202  66.400  1.00  0.00    -0.307 C  
BRANCH  13  14
HETATM   14  O   UNL     1     -10.877  17.982  67.493  1.00  0.00    -0.379 OA 
BRANCH  14  15
HETATM   15  C   UNL     1     -10.559  19.305  67.509  1.00  0.00    -0.474 C  
HETATM   16  C   UNL     1     -10.472  19.844  66.112  1.00  0.00    -0.581 C  
HETATM   17  O   UNL     1     -10.411  19.994  68.508  1.00  0.00    -0.438 OA 
ENDBRANCH  14  15
ENDBRANCH  13  14
ENDBRANCH   4  13
BRANCH   8  18
HETATM   18  N   UNL     1     -10.016  10.920  66.460  1.00  0.00    -0.204 N  
HETATM   19  H   UNL     1      -9.225  11.490  66.158  1.00  0.00     0.000 HD 
HETATM   20  C   UNL     1      -9.785   9.584  66.685  1.00  0.00    -0.211 C  
HETATM   21  O   UNL     1     -10.648   8.814  67.093  1.00  0.00    -0.291 OA 
BRANCH  20  22
HETATM   22  CA  UNL     1      -8.326   9.165  66.371  1.00  0.00    -0.122 C  
HETATM   23  H2  UNL     1      -7.515  10.798  67.416  1.00  0.00     0.000 HD 
HETATM   24  N   UNL     1      -7.430  10.350  66.504  1.00  0.00    -0.113 NA 
HETATM   25  H1  UNL     1      -6.470  10.075  66.297  1.00  0.00     0.000 HD 
BRANCH  22  26
HETATM   26  C   UNL     1      -8.215   8.524  65.000  1.00  0.00    -0.160 A  
HETATM   27  C   UNL     1      -8.547   9.275  63.861  1.00  0.00    -0.208 A  
HETATM   28  C   UNL     1      -8.464   8.714  62.585  1.00  0.00    -0.163 A  
HETATM   29  C   UNL     1      -8.039   7.396  62.428  1.00  0.00    -0.119 A  
HETATM   30  C   UNL     1      -7.684   6.644  63.543  1.00  0.00    -0.110 A  
HETATM   31  C   UNL     1      -7.763   7.205  64.820  1.00  0.00    -0.115 A  
ENDBRANCH  22  26
ENDBRANCH  20  22
ENDBRANCH   8  18
TORSDOF 6
ENDMDL
MODEL       11
REMARK 921   NORMALIZED FREE ENERGY PREDICTED BY IDOCK:   -6.45 KCAL/MOL
REMARK 922        TOTAL FREE ENERGY PREDICTED BY IDOCK:   -9.75 KCAL/MOL
REMARK 923 INTER-LIGAND FREE ENERGY PREDICTED BY IDOCK:   -8.96 KCAL/MOL
REMARK 924 INTRA-LIGAND FREE ENERGY PREDICTED BY IDOCK:   -0.79 KCAL/MOL
REMARK 927      BINDING AFFINITY PREDICTED BY RF-SCORE:    0.00 PKD
ROOT
HETATM    1  C   UNL     1     -12.089  14.522  68.480  1.00  0.00    -0.222 C  
HETATM    2  S   UNL     1     -11.045  14.614  69.953  1.00  0.00    -0.154 SA 
HETATM    3  C   UNL     1     -10.806  16.392  69.822  1.00  0.00    -0.343 C  
HETATM    4  C   UNL     1     -10.446  16.900  68.438  1.00  0.00    -0.355 C  
HETATM    5  OXT UNL     1      -9.443  17.736  65.869  1.00  0.00    -0.521 OA 
HETATM    6  CA  UNL     1     -10.690  16.216  67.280  1.00  0.00    -0.277 C  
HETATM    7  N   UNL     1     -11.349  15.016  67.334  1.00  0.00    -0.337 N  
HETATM    8  CA  UNL     1     -12.113  13.128  67.771  1.00  0.00    -0.215 C  
HETATM    9  C   UNL     1     -10.163  16.751  65.958  1.00  0.00    -0.346 C  
HETATM   10  O   UNL     1     -10.579  16.140  64.834  1.00  0.00    -0.622 OA 
HETATM   11  O   UNL     1     -11.292  13.774  65.381  1.00  0.00    -0.303 OA 
HETATM   12  C   UNL     1     -11.559  13.939  66.549  1.00  0.00    -0.369 C  
ENDROOT
BRANCH   4  13
HETATM   13  C   UNL     1      -9.694  18.230  68.512  1.00  0.00    -0.362 C  
BRANCH  13  14
HETATM   14  O   UNL     1      -8.294  18.000  68.784  1.00  0.00    -0.288 OA 
BRANCH  14  15
HETATM   15  C   UNL     1      -7.455  19.055  68.596  1.00  0.00    -0.326 C  
HETATM   16  C   UNL     1      -6.320  19.008  69.574  1.00  0.00    -0.299 C  
HETATM   17  O   UNL     1      -7.560  19.906  67.725  1.00  0.00    -0.273 OA 
ENDBRANCH  14  15
ENDBRANCH  13  14
ENDBRANCH   4  13
BRANCH   8  18
HETATM   18  N   UNL     1     -11.184  12.121  68.334  1.00  0.00    -0.243 N  
HETATM   19  H   UNL     1     -10.195  12.210  68.101  1.00  0.00     0.000 HD 
HETATM   20  C   UNL     1     -11.552  11.076  69.147  1.00  0.00    -0.319 C  
HETATM   21  O   UNL     1     -12.704  10.897  69.529  1.00  0.00    -0.267 OA 
BRANCH  20  22
HETATM   22  CA  UNL     1     -10.360  10.159  69.524  1.00  0.00    -0.240 C  
HETATM   23  H2  UNL     1      -8.979  11.742  69.460  1.00  0.00     0.000 HD 
HETATM   24  N   UNL     1      -9.085  10.799  69.087  1.00  0.00    -0.335 NA 
HETATM   25  H1  UNL     1      -8.301  10.196  69.335  1.00  0.00     0.000 HD 
BRANCH  22  26
HETATM   26  C   UNL     1     -10.523   8.767  68.942  1.00  0.00    -0.217 A  
HETATM   27  C   UNL     1     -10.687   7.675  69.808  1.00  0.00    -0.243 A  
HETATM   28  C   UNL     1     -10.831   6.379  69.306  1.00  0.00    -0.387 A  
HETATM   29  C   UNL     1     -10.824   6.159  67.931  1.00  0.00    -0.406 A  
HETATM   30  C   UNL     1     -10.686   7.232  67.056  1.00  0.00    -0.406 A  
HETATM   31  C   UNL     1     -10.545   8.529  67.557  1.00  0.00    -0.284 A  
ENDBRANCH  22  26
ENDBRANCH  20  22
ENDBRANCH   8  18
TORSDOF 6
ENDMDL
MODEL       12
REMARK 921   NORMALIZED FREE ENERGY PREDICTED BY IDOCK:   -6.45 KCAL/MOL
REMARK 922        TOTAL FREE ENERGY PREDICTED BY IDOCK:   -9.75 KCAL/MOL
REMARK 923 INTER-LIGAND FREE ENERGY PREDICTED BY IDOCK:   -8.70 KCAL/MOL
REMARK 924 INTRA-LIGAND FREE ENERGY PREDICTED BY IDOCK:   -1.05 KCAL/MOL
REMARK 927      BINDING AFFINITY PREDICTED BY RF-SCORE:    0.00 PKD
ROOT
HETATM    1  C   UNL     1     -10.980  10.112  69.285  1.00  0.00    -0.240 C  
HETATM    2  S   UNL     1      -9.339  10.861  69.181  1.00  0.00    -0.005 SA 
HETATM    3  C   UNL     1      -8.485   9.349  69.652  1.00  0.00    -0.164 C  
HETATM    4  C   UNL     1      -9.062   8.623  70.853  1.00  0.00    -0.229 C  
HETATM    5  OXT UNL     1     -10.011   7.493  73.328  1.00  0.00    -0.255 OA 
HETATM    6  CA  UNL     1     -10.340   8.786  71.309  1.00  0.00    -0.261 C  
HETATM    7  N   UNL     1     -11.197   9.611  70.629  1.00  0.00    -0.294 N  
HETATM    8  CA  UNL     1     -12.151  11.116  69.549  1.00  0.00    -0.326 C  
HETATM    9  C   UNL     1     -10.774   8.117  72.604  1.00  0.00    -0.351 C  
HETATM   10  O   UNL     1     -12.082   8.162  72.915  1.00  0.00    -0.278 OA 
HETATM   11  O   UNL     1     -13.153  10.138  71.751  1.00  0.00    -0.403 OA 
HETATM   12  C   UNL     1     -12.371  10.244  70.834  1.00  0.00    -0.373 C  
ENDROOT
BRANCH   4  13
HETATM   13  C   UNL     1      -8.004   7.757  71.540  1.00  0.00    -0.092 C  
BRANCH  13  14
HETATM   14  O   UNL     1      -7.621   6.659  70.682  1.00  0.00    -0.091 OA 
BRANCH  14  15
HETATM   15  C   UNL     1      -8.540   5.671  70.510  1.00  0.00    -0.129 C  
HETATM   16  C   UNL     1      -8.723   5.367  69.053  1.00  0.00    -0.103 C  
HETATM   17  O   UNL     1      -9.113   5.063  71.403  1.00  0.00    -0.138 OA 
ENDBRANCH  14  15
ENDBRANCH  13  14
ENDBRANCH   4  13
BRANCH   8  18
HETATM   18  N   UNL     1     -11.734  12.514  69.800  1.00  0.00    -0.434 N  
HETATM   19  H   UNL     1     -11.286  12.720  70.693  1.00  0.00     0.000 HD 
HETATM   20  C   UNL     1     -11.904  13.557  68.921  1.00  0.00    -0.345 C  
HETATM   21  O   UNL     1     -12.389  13.420  67.802  1.00  0.00    -0.219 OA 
BRANCH  20  22
HETATM   22  CA  UNL     1     -11.419  14.913  69.495  1.00  0.00    -0.297 C  
HETATM   23  H2  UNL     1      -9.462  14.642  68.778  1.00  0.00     0.000 HD 
HETATM   24  N   UNL     1      -9.935  14.884  69.648  1.00  0.00    -0.424 NA 
HETATM   25  H1  UNL     1      -9.616  15.775  70.026  1.00  0.00     0.000 HD 
BRANCH  22  26
HETATM   26  C   UNL     1     -12.116  15.245  70.802  1.00  0.00    -0.399 A  
HETATM   27  C   UNL     1     -13.511  15.116  70.888  1.00  0.00    -0.432 A  
HETATM   28  C   UNL     1     -14.185  15.421  72.073  1.00  0.00    -0.650 A  
HETATM   29  C   UNL     1     -13.473  15.848  73.191  1.00  0.00    -0.650 A  
HETATM   30  C   UNL     1     -12.087  15.959  73.131  1.00  0.00    -0.611 A  
HETATM   31  C   UNL     1     -11.412  15.652  71.948  1.00  0.00    -0.501 A  
ENDBRANCH  22  26
ENDBRANCH  20  22
ENDBRANCH   8  18
TORSDOF 6
ENDMDL
MODEL       13
REMARK 921   NORMALIZED FREE ENERGY PREDICTED BY IDOCK:   -6.43 KCAL/MOL
REMARK 922        TOTAL FREE ENERGY PREDICTED BY IDOCK:   -9.72 KCAL/MOL
REMARK 923 INTER-LIGAND FREE ENERGY PREDICTED BY IDOCK:   -8.75 KCAL/MOL
REMARK 924 INTRA-LIGAND FREE ENERGY PREDICTED BY IDOCK:   -0.96 KCAL/MOL
REMARK 927      BINDING AFFINITY PREDICTED BY RF-SCORE:    0.00 PKD
ROOT
HETATM    1  C   UNL     1     -11.811  14.092  68.154  1.00  0.00    -0.352 C  
HETATM    2  S   UNL     1     -10.238  14.686  68.816  1.00  0.00    -0.243 SA 
HETATM    3  C   UNL     1     -10.448  16.347  68.158  1.00  0.00    -0.302 C  
HETATM    4  C   UNL     1     -10.894  16.422  66.709  1.00  0.00    -0.098 C  
HETATM    5  OXT UNL     1     -11.412  16.475  63.875  1.00  0.00    -1.145 OA 
HETATM    6  CA  UNL     1     -11.514  15.403  66.042  1.00  0.00    -0.002 C  
HETATM    7  N   UNL     1     -11.815  14.246  66.711  1.00  0.00    -0.412 N  
HETATM    8  CA  UNL     1     -11.888  12.548  67.917  1.00  0.00    -0.323 C  
HETATM    9  C   UNL     1     -11.792  15.530  64.552  1.00  0.00    -0.216 C  
HETATM   10  O   UNL     1     -12.558  14.582  63.983  1.00  0.00    -0.797 OA 
HETATM   11  O   UNL     1     -12.440  12.466  65.368  1.00  0.00    -0.637 OA 
HETATM   12  C   UNL     1     -12.151  12.970  66.430  1.00  0.00    -0.358 C  
ENDROOT
BRANCH   4  13
HETATM   13  C   UNL     1     -10.478  17.746  66.067  1.00  0.00    -0.286 C  
BRANCH  13  14
HETATM   14  O   UNL     1      -9.049  17.776  65.859  1.00  0.00    -0.516 OA 
BRANCH  14  15
HETATM   15  C   UNL     1      -8.385  18.859  66.346  1.00  0.00    -0.296 C  
HETATM   16  C   UNL     1      -9.326  20.009  66.548  1.00  0.00    -0.494 C  
HETATM   17  O   UNL     1      -7.198  18.900  66.635  1.00  0.00    -0.206 OA 
ENDBRANCH  14  15
ENDBRANCH  13  14
ENDBRANCH   4  13
BRANCH   8  18
HETATM   18  N   UNL     1     -10.624  11.813  68.150  1.00  0.00    -0.195 N  
HETATM   19  H   UNL     1      -9.879  11.927  67.463  1.00  0.00     0.000 HD 
HETATM   20  C   UNL     1     -10.378  10.989  69.222  1.00  0.00    -0.154 C  
HETATM   21  O   UNL     1     -11.181  10.812  70.132  1.00  0.00    -0.284 OA 
BRANCH  20  22
HETATM   22  CA  UNL     1      -8.983  10.314  69.154  1.00  0.00    -0.180 C  
HETATM   23  H2  UNL     1      -8.043  11.907  70.153  1.00  0.00     0.000 HD 
HETATM   24  N   UNL     1      -7.923  11.353  69.305  1.00  0.00    -0.366 NA 
HETATM   25  H1  UNL     1      -7.006  10.910  69.260  1.00  0.00     0.000 HD 
BRANCH  22  26
HETATM   26  C   UNL     1      -8.813   9.515  67.876  1.00  0.00    -0.119 A  
HETATM   27  C   UNL     1      -7.879   9.942  66.918  1.00  0.00    -0.102 A  
HETATM   28  C   UNL     1      -7.704   9.235  65.726  1.00  0.00    -0.098 A  
HETATM   29  C   UNL     1      -8.452   8.086  65.479  1.00  0.00    -0.159 A  
HETATM   30  C   UNL     1      -9.365   7.635  66.427  1.00  0.00    -0.228 A  
HETATM   31  C   UNL     1      -9.540   8.340  67.620  1.00  0.00    -0.187 A  
ENDBRANCH  22  26
ENDBRANCH  20  22
ENDBRANCH   8  18
TORSDOF 6
ENDMDL
MODEL       14
REMARK 921   NORMALIZED FREE ENERGY PREDICTED BY IDOCK:   -6.40 KCAL/MOL
REMARK 922        TOTAL FREE ENERGY PREDICTED BY IDOCK:   -9.68 KCAL/MOL
REMARK 923 INTER-LIGAND FREE ENERGY PREDICTED BY IDOCK:   -8.80 KCAL/MOL
REMARK 924 INTRA-LIGAND FREE ENERGY PREDICTED BY IDOCK:   -0.88 KCAL/MOL
REMARK 927      BINDING AFFINITY PREDICTED BY RF-SCORE:    0.00 PKD
ROOT
HETATM    1  C   UNL     1     -11.338  12.071  66.817  1.00  0.00    -0.339 C  
HETATM    2  S   UNL     1      -9.631  11.679  66.370  1.00  0.00    -0.223 SA 
HETATM    3  C   UNL     1      -9.704  10.018  67.059  1.00  0.00    -0.181 C  
HETATM    4  C   UNL     1     -10.312   9.915  68.446  1.00  0.00    -0.226 C  
HETATM    5  OXT UNL     1     -11.166   9.851  71.197  1.00  0.00    -0.354 OA 
HETATM    6  CA  UNL     1     -11.137  10.855  68.995  1.00  0.00    -0.246 C  
HETATM    7  N   UNL     1     -11.500  11.948  68.253  1.00  0.00    -0.286 N  
HETATM    8  CA  UNL     1     -11.644  13.596  66.986  1.00  0.00    -0.359 C  
HETATM    9  C   UNL     1     -11.578  10.723  70.445  1.00  0.00    -0.339 C  
HETATM   10  O   UNL     1     -12.525  11.572  70.883  1.00  0.00    -0.379 OA 
HETATM   11  O   UNL     1     -12.513  13.655  69.445  1.00  0.00    -0.233 OA 
HETATM   12  C   UNL     1     -12.032  13.173  68.445  1.00  0.00    -0.289 C  
ENDROOT
BRANCH   4  13
HETATM   13  C   UNL     1      -9.811   8.671  69.181  1.00  0.00    -0.185 C  
BRANCH  13  14
HETATM   14  O   UNL     1     -10.614   7.523  68.830  1.00  0.00    -0.211 OA 
BRANCH  14  15
HETATM   15  C   UNL     1     -10.864   6.627  69.823  1.00  0.00    -0.286 C  
HETATM   16  C   UNL     1      -9.649   5.792  70.099  1.00  0.00    -0.208 C  
HETATM   17  O   UNL     1     -11.906   6.529  70.454  1.00  0.00    -0.400 OA 
ENDBRANCH  14  15
ENDBRANCH  13  14
ENDBRANCH   4  13
BRANCH   8  18
HETATM   18  N   UNL     1     -10.467  14.488  66.880  1.00  0.00    -0.267 N  
HETATM   19  H   UNL     1      -9.827  14.522  67.673  1.00  0.00     0.000 HD 
HETATM   20  C   UNL     1     -10.170  15.275  65.792  1.00  0.00    -0.349 C  
HETATM   21  O   UNL     1     -10.841  15.282  64.766  1.00  0.00    -0.411 OA 
BRANCH  20  22
HETATM   22  CA  UNL     1      -8.903  16.143  66.006  1.00  0.00    -0.278 C  
HETATM   23  H2  UNL     1      -7.660  14.465  66.248  1.00  0.00     0.000 HD 
HETATM   24  N   UNL     1      -7.869  15.342  66.725  1.00  0.00    -0.293 NA 
HETATM   25  H1  UNL     1      -7.036  15.913  66.866  1.00  0.00     0.000 HD 
BRANCH  22  26
HETATM   26  C   UNL     1      -9.229  17.431  66.738  1.00  0.00    -0.274 A  
HETATM   27  C   UNL     1     -10.296  18.226  66.288  1.00  0.00    -0.422 A  
HETATM   28  C   UNL     1     -10.618  19.422  66.934  1.00  0.00    -0.581 A  
HETATM   29  C   UNL     1      -9.885  19.836  68.043  1.00  0.00    -0.533 A  
HETATM   30  C   UNL     1      -8.839  19.050  68.518  1.00  0.00    -0.398 A  
HETATM   31  C   UNL     1      -8.518  17.852  67.875  1.00  0.00    -0.251 A  
ENDBRANCH  22  26
ENDBRANCH  20  22
ENDBRANCH   8  18
TORSDOF 6
ENDMDL
MODEL       15
REMARK 921   NORMALIZED FREE ENERGY PREDICTED BY IDOCK:   -6.32 KCAL/MOL
REMARK 922        TOTAL FREE ENERGY PREDICTED BY IDOCK:   -9.57 KCAL/MOL
REMARK 923 INTER-LIGAND FREE ENERGY PREDICTED BY IDOCK:   -8.61 KCAL/MOL
REMARK 924 INTRA-LIGAND FREE ENERGY PREDICTED BY IDOCK:   -0.96 KCAL/MOL
REMARK 927      BINDING AFFINITY PREDICTED BY RF-SCORE:    0.00 PKD
ROOT
HETATM    1  C   UNL     1     -11.924  14.792  67.975  1.00  0.00    -0.227 C  
HETATM    2  S   UNL     1     -10.700  14.785  69.304  1.00  0.00    -0.247 SA 
HETATM    3  C   UNL     1     -10.665  16.577  69.447  1.00  0.00    -0.330 C  
HETATM    4  C   UNL     1     -10.556  17.333  68.136  1.00  0.00    -0.386 C  
HETATM    5  OXT UNL     1     -10.013  18.672  65.643  1.00  0.00    -0.455 OA 
HETATM    6  CA  UNL     1     -10.888  16.811  66.918  1.00  0.00    -0.033 C  
HETATM    7  N   UNL     1     -11.406  15.544  66.848  1.00  0.00    -0.161 N  
HETATM    8  CA  UNL     1     -11.904  13.531  67.049  1.00  0.00    -0.402 C  
HETATM    9  C   UNL     1     -10.608  17.604  65.650  1.00  0.00    -0.135 C  
HETATM   10  O   UNL     1     -11.112  17.126  64.499  1.00  0.00    -1.105 OA 
HETATM   11  O   UNL     1     -11.496  14.634  64.720  1.00  0.00    -0.384 OA 
HETATM   12  C   UNL     1     -11.612  14.583  65.924  1.00  0.00    -0.349 C  
ENDROOT
BRANCH   4  13
HETATM   13  C   UNL     1      -9.941  18.719  68.342  1.00  0.00    -0.392 C  
BRANCH  13  14
HETATM   14  O   UNL     1      -8.537  18.602  68.660  1.00  0.00    -0.328 OA 
BRANCH  14  15
HETATM   15  C   UNL     1      -7.769  19.703  68.437  1.00  0.00    -0.331 C  
HETATM   16  C   UNL     1      -6.612  19.741  69.391  1.00  0.00    -0.390 C  
HETATM   17  O   UNL     1      -7.944  20.532  67.556  1.00  0.00    -0.314 OA 
ENDBRANCH  14  15
ENDBRANCH  13  14
ENDBRANCH   4  13
BRANCH   8  18
HETATM   18  N   UNL     1     -10.807  12.573  67.317  1.00  0.00    -0.239 N  
HETATM   19  H   UNL     1      -9.853  12.886  67.135  1.00  0.00     0.000 HD 
HETATM   20  C   UNL     1     -10.976  11.295  67.793  1.00  0.00    -0.252 C  
HETATM   21  O   UNL     1     -12.070  10.828  68.089  1.00  0.00    -0.493 OA 
BRANCH  20  22
HETATM   22  CA  UNL     1      -9.639  10.517  67.913  1.00  0.00    -0.150 C  
HETATM   23  H2  UNL     1      -9.160  11.406  69.755  1.00  0.00     0.000 HD 
HETATM   24  N   UNL     1      -8.728  11.239  68.847  1.00  0.00    -0.342 NA 
HETATM   25  H1  UNL     1      -7.849  10.728  68.926  1.00  0.00     0.000 HD 
BRANCH  22  26
HETATM   26  C   UNL     1      -8.999  10.298  66.554  1.00  0.00    -0.161 A  
HETATM   27  C   UNL     1      -7.634  10.578  66.386  1.00  0.00    -0.132 A  
HETATM   28  C   UNL     1      -7.015  10.396  65.147  1.00  0.00    -0.082 A  
HETATM   29  C   UNL     1      -7.749   9.923  64.062  1.00  0.00    -0.141 A  
HETATM   30  C   UNL     1      -9.098   9.619  64.216  1.00  0.00    -0.267 A  
HETATM   31  C   UNL     1      -9.718   9.798  65.455  1.00  0.00    -0.382 A  
ENDBRANCH  22  26
ENDBRANCH  20  22
ENDBRANCH   8  18
TORSDOF 6
ENDMDL
MODEL       16
REMARK 921   NORMALIZED FREE ENERGY PREDICTED BY IDOCK:   -6.30 KCAL/MOL
REMARK 922        TOTAL FREE ENERGY PREDICTED BY IDOCK:   -9.54 KCAL/MOL
REMARK 923 INTER-LIGAND FREE ENERGY PREDICTED BY IDOCK:   -8.54 KCAL/MOL
REMARK 924 INTRA-LIGAND FREE ENERGY PREDICTED BY IDOCK:   -1.00 KCAL/MOL
REMARK 927      BINDING AFFINITY PREDICTED BY RF-SCORE:    0.00 PKD
ROOT
HETATM    1  C   UNL     1     -10.958   9.953  69.297  1.00  0.00    -0.211 C  
HETATM    2  S   UNL     1      -9.274  10.590  69.453  1.00  0.00    -0.040 SA 
HETATM    3  C   UNL     1      -8.610   9.031  70.057  1.00  0.00    -0.151 C  
HETATM    4  C   UNL     1      -9.418   8.361  71.154  1.00  0.00    -0.227 C  
HETATM    5  OXT UNL     1     -10.820   7.331  73.450  1.00  0.00    -0.374 OA 
HETATM    6  CA  UNL     1     -10.737   8.615  71.401  1.00  0.00    -0.268 C  
HETATM    7  N   UNL     1     -11.418   9.486  70.591  1.00  0.00    -0.281 N  
HETATM    8  CA  UNL     1     -12.085  11.037  69.370  1.00  0.00    -0.318 C  
HETATM    9  C   UNL     1     -11.415   7.994  72.613  1.00  0.00    -0.402 C  
HETATM   10  O   UNL     1     -12.749   8.131  72.712  1.00  0.00    -0.120 OA 
HETATM   11  O   UNL     1     -13.486  10.158  71.388  1.00  0.00    -0.330 OA 
HETATM   12  C   UNL     1     -12.564  10.199  70.605  1.00  0.00    -0.269 C  
ENDROOT
BRANCH   4  13
HETATM   13  C   UNL     1      -8.543   7.436  72.001  1.00  0.00    -0.106 C  
BRANCH  13  14
HETATM   14  O   UNL     1      -7.337   8.120  72.408  1.00  0.00    -0.094 OA 
BRANCH  14  15
HETATM   15  C   UNL     1      -7.127   8.240  73.747  1.00  0.00    -0.127 C  
HETATM   16  C   UNL     1      -7.030   6.889  74.390  1.00  0.00    -0.090 C  
HETATM   17  O   UNL     1      -6.981   9.290  74.357  1.00  0.00    -0.378 OA 
ENDBRANCH  14  15
ENDBRANCH  13  14
ENDBRANCH   4  13
BRANCH   8  18
HETATM   18  N   UNL     1     -11.619  12.408  69.679  1.00  0.00    -0.419 N  
HETATM   19  H   UNL     1     -11.245  12.579  70.613  1.00  0.00     0.000 HD 
HETATM   20  C   UNL     1     -11.651  13.467  68.804  1.00  0.00    -0.325 C  
HETATM   21  O   UNL     1     -12.036  13.368  67.644  1.00  0.00    -0.342 OA 
BRANCH  20  22
HETATM   22  CA  UNL     1     -11.149  14.789  69.442  1.00  0.00    -0.281 C  
HETATM   23  H2  UNL     1      -9.161  14.447  68.852  1.00  0.00     0.000 HD 
HETATM   24  N   UNL     1      -9.682  14.691  69.694  1.00  0.00    -0.412 NA 
HETATM   25  H1  UNL     1      -9.352  15.560  70.114  1.00  0.00     0.000 HD 
BRANCH  22  26
HETATM   26  C   UNL     1     -11.919  15.123  70.707  1.00  0.00    -0.376 A  
HETATM   27  C   UNL     1     -11.213  15.362  71.897  1.00  0.00    -0.378 A  
HETATM   28  C   UNL     1     -11.890  15.664  73.081  1.00  0.00    -0.540 A  
HETATM   29  C   UNL     1     -13.281  15.741  73.089  1.00  0.00    -0.694 A  
HETATM   30  C   UNL     1     -13.996  15.531  71.914  1.00  0.00    -0.583 A  
HETATM   31  C   UNL     1     -13.320  15.232  70.729  1.00  0.00    -0.402 A  
ENDBRANCH  22  26
ENDBRANCH  20  22
ENDBRANCH   8  18
TORSDOF 6
ENDMDL
MODEL       17
REMARK 921   NORMALIZED FREE ENERGY PREDICTED BY IDOCK:   -6.29 KCAL/MOL
REMARK 922        TOTAL FREE ENERGY PREDICTED BY IDOCK:   -9.54 KCAL/MOL
REMARK 923 INTER-LIGAND FREE ENERGY PREDICTED BY IDOCK:   -8.56 KCAL/MOL
REMARK 924 INTRA-LIGAND FREE ENERGY PREDICTED BY IDOCK:   -0.98 KCAL/MOL
REMARK 927      BINDING AFFINITY PREDICTED BY RF-SCORE:    0.00 PKD
ROOT
HETATM    1  C   UNL     1     -11.838  12.515  66.884  1.00  0.00    -0.334 C  
HETATM    2  S   UNL     1     -10.237  11.969  66.247  1.00  0.00    -0.229 SA 
HETATM    3  C   UNL     1     -10.417  10.296  66.884  1.00  0.00    -0.229 C  
HETATM    4  C   UNL     1     -10.889  10.194  68.323  1.00  0.00    -0.297 C  
HETATM    5  OXT UNL     1     -11.462  10.096  71.145  1.00  0.00    -0.357 OA 
HETATM    6  CA  UNL     1     -11.549  11.189  68.987  1.00  0.00    -0.324 C  
HETATM    7  N   UNL     1     -11.866  12.345  68.325  1.00  0.00    -0.335 N  
HETATM    8  CA  UNL     1     -11.960  14.054  67.137  1.00  0.00    -0.430 C  
HETATM    9  C   UNL     1     -11.852  11.038  70.471  1.00  0.00    -0.367 C  
HETATM   10  O   UNL     1     -12.654  11.960  71.034  1.00  0.00    -0.363 OA 
HETATM   11  O   UNL     1     -12.564  14.093  69.674  1.00  0.00    -0.262 OA 
HETATM   12  C   UNL     1     -12.241  13.609  68.613  1.00  0.00    -0.154 C  
ENDROOT
BRANCH   4  13
HETATM   13  C   UNL     1     -10.452   8.873  68.959  1.00  0.00    -0.214 C  
BRANCH  13  14
HETATM   14  O   UNL     1      -9.013   8.759  68.939  1.00  0.00    -0.133 OA 
BRANCH  14  15
HETATM   15  C   UNL     1      -8.338   9.386  69.941  1.00  0.00    -0.167 C  
HETATM   16  C   UNL     1      -8.323   8.539  71.178  1.00  0.00    -0.182 C  
HETATM   17  O   UNL     1      -7.770  10.466  69.855  1.00  0.00    -0.155 OA 
ENDBRANCH  14  15
ENDBRANCH  13  14
ENDBRANCH   4  13
BRANCH   8  18
HETATM   18  N   UNL     1     -10.710  14.824  66.936  1.00  0.00    -0.302 N  
HETATM   19  H   UNL     1     -10.043  14.848  67.707  1.00  0.00     0.000 HD 
HETATM   20  C   UNL     1     -10.381  15.508  65.791  1.00  0.00    -0.363 C  
HETATM   21  O   UNL     1     -11.084  15.512  64.786  1.00  0.00    -0.426 OA 
BRANCH  20  22
HETATM   22  CA  UNL     1      -9.034  16.267  65.910  1.00  0.00    -0.186 C  
HETATM   23  H2  UNL     1      -7.964  14.517  66.370  1.00  0.00     0.000 HD 
HETATM   24  N   UNL     1      -8.084  15.462  66.733  1.00  0.00    -0.292 NA 
HETATM   25  H1  UNL     1      -7.198  15.961  66.811  1.00  0.00     0.000 HD 
BRANCH  22  26
HETATM   26  C   UNL     1      -9.229  17.662  66.473  1.00  0.00    -0.286 A  
HETATM   27  C   UNL     1      -8.255  18.198  67.331  1.00  0.00    -0.236 A  
HETATM   28  C   UNL     1      -8.407  19.476  67.874  1.00  0.00    -0.350 A  
HETATM   29  C   UNL     1      -9.529  20.239  67.560  1.00  0.00    -0.539 A  
HETATM   30  C   UNL     1     -10.492  19.734  66.693  1.00  0.00    -0.615 A  
HETATM   31  C   UNL     1     -10.340  18.457  66.147  1.00  0.00    -0.431 A  
ENDBRANCH  22  26
ENDBRANCH  20  22
ENDBRANCH   8  18
TORSDOF 6
ENDMDL
MODEL       18
REMARK 921   NORMALIZED FREE ENERGY PREDICTED BY IDOCK:   -6.26 KCAL/MOL
REMARK 922        TOTAL FREE ENERGY PREDICTED BY IDOCK:   -9.48 KCAL/MOL
REMARK 923 INTER-LIGAND FREE ENERGY PREDICTED BY IDOCK:   -8.69 KCAL/MOL
REMARK 924 INTRA-LIGAND FREE ENERGY PREDICTED BY IDOCK:   -0.80 KCAL/MOL
REMARK 927      BINDING AFFINITY PREDICTED BY RF-SCORE:    0.00 PKD
ROOT
HETATM    1  C   UNL     1     -10.893  13.422  67.629  1.00  0.00    -0.259 C  
HETATM    2  S   UNL     1     -11.876  13.972  69.041  1.00  0.00    -0.364 SA 
HETATM    3  C   UNL     1     -11.754  15.713  68.604  1.00  0.00    -0.352 C  
HETATM    4  C   UNL     1     -10.361  16.196  68.240  1.00  0.00    -0.266 C  
HETATM    5  OXT UNL     1      -7.649  17.102  67.892  1.00  0.00    -0.169 OA 
HETATM    6  CA  UNL     1      -9.345  15.378  67.835  1.00  0.00    -0.192 C  
HETATM    7  N   UNL     1      -9.580  14.036  67.687  1.00  0.00    -0.216 N  
HETATM    8  CA  UNL     1     -10.176  12.044  67.817  1.00  0.00    -0.202 C  
HETATM    9  C   UNL     1      -7.949  15.946  67.631  1.00  0.00    -0.146 C  
HETATM   10  O   UNL     1      -7.032  15.142  67.065  1.00  0.00    -0.221 OA 
HETATM   11  O   UNL     1      -7.687  12.726  67.440  1.00  0.00    -0.160 OA 
HETATM   12  C   UNL     1      -8.878  12.889  67.579  1.00  0.00    -0.192 C  
ENDROOT
BRANCH   4  13
HETATM   13  C   UNL     1     -10.217  17.701  68.473  1.00  0.00    -0.386 C  
BRANCH  13  14
HETATM   14  O   UNL     1     -11.101  18.431  67.595  1.00  0.00    -0.243 OA 
BRANCH  14  15
HETATM   15  C   UNL     1     -10.550  19.456  66.890  1.00  0.00    -0.476 C  
HETATM   16  C   UNL     1      -9.579  20.220  67.741  1.00  0.00    -0.486 C  
HETATM   17  O   UNL     1     -10.759  19.709  65.713  1.00  0.00    -0.516 OA 
ENDBRANCH  14  15
ENDBRANCH  13  14
ENDBRANCH   4  13
BRANCH   8  18
HETATM   18  N   UNL     1     -10.304  11.450  69.168  1.00  0.00    -0.390 N  
HETATM   19  H   UNL     1     -10.326  12.088  69.963  1.00  0.00     0.000 HD 
HETATM   20  C   UNL     1     -10.396  10.104  69.431  1.00  0.00    -0.232 C  
HETATM   21  O   UNL     1     -10.426   9.249  68.553  1.00  0.00    -0.205 OA 
BRANCH  20  22
HETATM   22  CA  UNL     1     -10.458   9.791  70.949  1.00  0.00    -0.228 C  
HETATM   23  H2  UNL     1      -8.394   9.415  71.068  1.00  0.00     0.000 HD 
HETATM   24  N   UNL     1      -9.273   8.972  71.335  1.00  0.00    -0.258 NA 
HETATM   25  H1  UNL     1      -9.314   8.766  72.333  1.00  0.00     0.000 HD 
BRANCH  22  26
HETATM   26  C   UNL     1     -11.762   9.111  71.324  1.00  0.00    -0.396 A  
HETATM   27  C   UNL     1     -12.823   9.886  71.817  1.00  0.00    -0.540 A  
HETATM   28  C   UNL     1     -14.034   9.291  72.179  1.00  0.00    -0.422 A  
HETATM   29  C   UNL     1     -14.204   7.916  72.044  1.00  0.00    -0.441 A  
HETATM   30  C   UNL     1     -13.171   7.135  71.535  1.00  0.00    -0.419 A  
HETATM   31  C   UNL     1     -11.961   7.729  71.170  1.00  0.00    -0.312 A  
ENDBRANCH  22  26
ENDBRANCH  20  22
ENDBRANCH   8  18
TORSDOF 6
ENDMDL
MODEL       19
REMARK 921   NORMALIZED FREE ENERGY PREDICTED BY IDOCK:   -6.23 KCAL/MOL
REMARK 922        TOTAL FREE ENERGY PREDICTED BY IDOCK:   -9.45 KCAL/MOL
REMARK 923 INTER-LIGAND FREE ENERGY PREDICTED BY IDOCK:   -8.66 KCAL/MOL
REMARK 924 INTRA-LIGAND FREE ENERGY PREDICTED BY IDOCK:   -0.79 KCAL/MOL
REMARK 927      BINDING AFFINITY PREDICTED BY RF-SCORE:    0.00 PKD
ROOT
HETATM    1  C   UNL     1      -9.424  14.865  69.252  1.00  0.00    -0.114 C  
HETATM    2  S   UNL     1     -10.556  15.972  68.381  1.00  0.00    -0.285 SA 
HETATM    3  C   UNL     1     -11.613  14.636  67.805  1.00  0.00    -0.359 C  
HETATM    4  C   UNL     1     -10.889  13.445  67.204  1.00  0.00    -0.284 C  
HETATM    5  OXT UNL     1      -9.461  11.385  65.783  1.00  0.00    -0.222 OA 
HETATM    6  CA  UNL     1      -9.577  13.145  67.439  1.00  0.00    -0.219 C  
HETATM    7  N   UNL     1      -8.855  13.920  68.309  1.00  0.00    -0.182 N  
HETATM    8  CA  UNL     1      -7.976  15.423  69.453  1.00  0.00    -0.234 C  
HETATM    9  C   UNL     1      -8.910  12.011  66.676  1.00  0.00    -0.191 C  
HETATM   10  O   UNL     1      -7.677  11.643  67.069  1.00  0.00    -0.148 OA 
HETATM   11  O   UNL     1      -6.565  13.578  68.264  1.00  0.00    -0.084 OA 
HETATM   12  C   UNL     1      -7.565  14.156  68.625  1.00  0.00    -0.126 C  
ENDROOT
BRANCH   4  13
HETATM   13  C   UNL     1     -11.789  12.679  66.233  1.00  0.00    -0.410 C  
BRANCH  13  14
HETATM   14  O   UNL     1     -12.700  13.585  65.574  1.00  0.00    -0.491 OA 
BRANCH  14  15
HETATM   15  C   UNL     1     -12.397  13.931  64.293  1.00  0.00    -0.348 C  
HETATM   16  C   UNL     1     -11.666  12.817  63.605  1.00  0.00    -0.587 C  
HETATM   17  O   UNL     1     -12.711  14.975  63.740  1.00  0.00    -0.741 OA 
ENDBRANCH  14  15
ENDBRANCH  13  14
ENDBRANCH   4  13
BRANCH   8  18
HETATM   18  N   UNL     1      -7.707  16.721  68.795  1.00  0.00    -0.232 N  
HETATM   19  H   UNL     1      -8.398  17.064  68.128  1.00  0.00     0.000 HD 
HETATM   20  C   UNL     1      -6.595  17.501  69.013  1.00  0.00    -0.243 C  
HETATM   21  O   UNL     1      -5.722  17.212  69.825  1.00  0.00    -0.196 OA 
BRANCH  20  22
HETATM   22  CA  UNL     1      -6.571  18.775  68.129  1.00  0.00    -0.222 C  
HETATM   23  H2  UNL     1      -4.905  19.572  69.132  1.00  0.00     0.000 HD 
HETATM   24  N   UNL     1      -5.840  19.860  68.845  1.00  0.00    -0.229 NA 
HETATM   25  H1  UNL     1      -5.824  20.698  68.264  1.00  0.00     0.000 HD 
BRANCH  22  26
HETATM   26  C   UNL     1      -7.972  19.202  67.732  1.00  0.00    -0.305 A  
HETATM   27  C   UNL     1      -8.285  19.349  66.371  1.00  0.00    -0.335 A  
HETATM   28  C   UNL     1      -9.562  19.749  65.971  1.00  0.00    -0.425 A  
HETATM   29  C   UNL     1     -10.546  19.999  66.924  1.00  0.00    -0.455 A  
HETATM   30  C   UNL     1     -10.261  19.837  68.276  1.00  0.00    -0.569 A  
HETATM   31  C   UNL     1      -8.985  19.434  68.678  1.00  0.00    -0.419 A  
ENDBRANCH  22  26
ENDBRANCH  20  22
ENDBRANCH   8  18
TORSDOF 6
ENDMDL
MODEL       20
REMARK 921   NORMALIZED FREE ENERGY PREDICTED BY IDOCK:   -6.21 KCAL/MOL
REMARK 922        TOTAL FREE ENERGY PREDICTED BY IDOCK:   -9.42 KCAL/MOL
REMARK 923 INTER-LIGAND FREE ENERGY PREDICTED BY IDOCK:   -8.66 KCAL/MOL
REMARK 924 INTRA-LIGAND FREE ENERGY PREDICTED BY IDOCK:   -0.76 KCAL/MOL
REMARK 927      BINDING AFFINITY PREDICTED BY RF-SCORE:    0.00 PKD
ROOT
HETATM    1  C   UNL     1      -9.690  14.345  66.202  1.00  0.00    -0.312 C  
HETATM    2  S   UNL     1     -10.896  15.546  66.812  1.00  0.00    -0.253 SA 
HETATM    3  C   UNL     1     -10.012  16.959  66.135  1.00  0.00    -0.315 C  
HETATM    4  C   UNL     1      -8.517  16.980  66.399  1.00  0.00    -0.318 C  
HETATM    5  OXT UNL     1      -5.761  17.111  67.225  1.00  0.00    -0.121 OA 
HETATM    6  CA  UNL     1      -7.778  15.876  66.717  1.00  0.00    -0.210 C  
HETATM    7  N   UNL     1      -8.385  14.648  66.758  1.00  0.00    -0.130 N  
HETATM    8  CA  UNL     1      -9.636  12.999  66.997  1.00  0.00    -0.236 C  
HETATM    9  C   UNL     1      -6.314  16.028  67.100  1.00  0.00    -0.079 C  
HETATM   10  O   UNL     1      -5.589  14.903  67.231  1.00  0.00    -0.306 OA 
HETATM   11  O   UNL     1      -7.135  12.964  67.738  1.00  0.00    -0.106 OA 
HETATM   12  C   UNL     1      -8.145  13.414  67.246  1.00  0.00    -0.137 C  
ENDROOT
BRANCH   4  13
HETATM   13  C   UNL     1      -7.964  18.405  66.351  1.00  0.00    -0.262 C  
BRANCH  13  14
HETATM   14  O   UNL     1      -8.329  19.124  67.550  1.00  0.00    -0.279 OA 
BRANCH  14  15
HETATM   15  C   UNL     1      -7.536  20.174  67.896  1.00  0.00    -0.281 C  
HETATM   16  C   UNL     1      -6.672  19.819  69.069  1.00  0.00    -0.372 C  
HETATM   17  O   UNL     1      -7.478  21.249  67.317  1.00  0.00    -0.449 OA 
ENDBRANCH  14  15
ENDBRANCH  13  14
ENDBRANCH   4  13
BRANCH   8  18
HETATM   18  N   UNL     1     -10.488  12.950  68.208  1.00  0.00    -0.236 N  
HETATM   19  H   UNL     1     -10.274  13.603  68.961  1.00  0.00     0.000 HD 
HETATM   20  C   UNL     1     -11.546  12.092  68.393  1.00  0.00    -0.311 C  
HETATM   21  O   UNL     1     -11.922  11.297  67.539  1.00  0.00    -0.612 OA 
BRANCH  20  22
HETATM   22  CA  UNL     1     -12.204  12.242  69.789  1.00  0.00    -0.134 C  
HETATM   23  H2  UNL     1     -11.601  14.246  69.980  1.00  0.00     0.000 HD 
HETATM   24  N   UNL     1     -11.569  13.380  70.516  1.00  0.00    -0.508 NA 
HETATM   25  H1  UNL     1     -12.002  13.478  71.434  1.00  0.00     0.000 HD 
BRANCH  22  26
HETATM   26  C   UNL     1     -12.126  10.951  70.582  1.00  0.00    -0.468 A  
HETATM   27  C   UNL     1     -10.991  10.134  70.455  1.00  0.00    -0.386 A  
HETATM   28  C   UNL     1     -10.891   8.934  71.163  1.00  0.00    -0.352 A  
HETATM   29  C   UNL     1     -11.918   8.539  72.017  1.00  0.00    -0.427 A  
HETATM   30  C   UNL     1     -13.040   9.347  72.174  1.00  0.00    -0.526 A  
HETATM   31  C   UNL     1     -13.141  10.549  71.467  1.00  0.00    -0.532 A  
ENDBRANCH  22  26
ENDBRANCH  20  22
ENDBRANCH   8  18
TORSDOF 6
ENDMDL
MODEL       21
REMARK 921   NORMALIZED FREE ENERGY PREDICTED BY IDOCK:   -6.20 KCAL/MOL
REMARK 922        TOTAL FREE ENERGY PREDICTED BY IDOCK:   -9.41 KCAL/MOL
REMARK 923 INTER-LIGAND FREE ENERGY PREDICTED BY IDOCK:   -8.66 KCAL/MOL
REMARK 924 INTRA-LIGAND FREE ENERGY PREDICTED BY IDOCK:   -0.76 KCAL/MOL
REMARK 927      BINDING AFFINITY PREDICTED BY RF-SCORE:    0.00 PKD
ROOT
HETATM    1  C   UNL     1     -11.640  13.204  67.603  1.00  0.00    -0.349 C  
HETATM    2  S   UNL     1     -10.209  12.104  67.702  1.00  0.00    -0.200 SA 
HETATM    3  C   UNL     1     -11.064  10.883  68.710  1.00  0.00    -0.256 C  
HETATM    4  C   UNL     1     -11.846  11.442  69.885  1.00  0.00    -0.435 C  
HETATM    5  OXT UNL     1     -13.022  12.546  72.272  1.00  0.00    -0.304 OA 
HETATM    6  CA  UNL     1     -12.270  12.737  69.980  1.00  0.00    -0.209 C  
HETATM    7  N   UNL     1     -12.036  13.599  68.941  1.00  0.00    -0.342 N  
HETATM    8  CA  UNL     1     -11.301  14.708  67.338  1.00  0.00    -0.356 C  
HETATM    9  C   UNL     1     -12.924  13.229  71.263  1.00  0.00    -0.270 C  
HETATM   10  O   UNL     1     -13.480  14.453  71.242  1.00  0.00    -0.354 OA 
HETATM   11  O   UNL     1     -12.399  15.836  69.419  1.00  0.00    -0.248 OA 
HETATM   12  C   UNL     1     -12.029  14.928  68.709  1.00  0.00    -0.249 C  
ENDROOT
BRANCH   4  13
HETATM   13  C   UNL     1     -12.018  10.394  70.986  1.00  0.00    -0.382 C  
BRANCH  13  14
HETATM   14  O   UNL     1     -13.337   9.809  70.920  1.00  0.00    -0.318 OA 
BRANCH  14  15
HETATM   15  C   UNL     1     -13.586   8.771  71.763  1.00  0.00    -0.410 C  
HETATM   16  C   UNL     1     -12.923   7.519  71.272  1.00  0.00    -0.323 C  
HETATM   17  O   UNL     1     -14.216   8.834  72.809  1.00  0.00    -0.520 OA 
ENDBRANCH  14  15
ENDBRANCH  13  14
ENDBRANCH   4  13
BRANCH   8  18
HETATM   18  N   UNL     1      -9.856  15.035  67.331  1.00  0.00    -0.224 N  
HETATM   19  H   UNL     1      -9.277  14.627  68.065  1.00  0.00     0.000 HD 
HETATM   20  C   UNL     1      -9.236  15.846  66.411  1.00  0.00    -0.309 C  
HETATM   21  O   UNL     1      -9.822  16.353  65.461  1.00  0.00    -0.522 OA 
BRANCH  20  22
HETATM   22  CA  UNL     1      -7.726  16.043  66.705  1.00  0.00    -0.235 C  
HETATM   23  H2  UNL     1      -7.488  14.069  67.385  1.00  0.00     0.000 HD 
HETATM   24  N   UNL     1      -7.275  15.018  67.691  1.00  0.00    -0.169 NA 
HETATM   25  H1  UNL     1      -6.283  15.148  67.884  1.00  0.00     0.000 HD 
BRANCH  22  26
HETATM   26  C   UNL     1      -7.433  17.454  67.182  1.00  0.00    -0.219 A  
HETATM   27  C   UNL     1      -6.586  18.274  66.420  1.00  0.00    -0.246 A  
HETATM   28  C   UNL     1      -6.288  19.575  66.834  1.00  0.00    -0.190 A  
HETATM   29  C   UNL     1      -6.840  20.076  68.010  1.00  0.00    -0.314 A  
HETATM   30  C   UNL     1      -7.700  19.286  68.767  1.00  0.00    -0.397 A  
HETATM   31  C   UNL     1      -8.001  17.986  68.352  1.00  0.00    -0.306 A  
ENDBRANCH  22  26
ENDBRANCH  20  22
ENDBRANCH   8  18
TORSDOF 6
ENDMDL
MODEL       22
REMARK 921   NORMALIZED FREE ENERGY PREDICTED BY IDOCK:   -6.19 KCAL/MOL
REMARK 922        TOTAL FREE ENERGY PREDICTED BY IDOCK:   -9.39 KCAL/MOL
REMARK 923 INTER-LIGAND FREE ENERGY PREDICTED BY IDOCK:   -8.23 KCAL/MOL
REMARK 924 INTRA-LIGAND FREE ENERGY PREDICTED BY IDOCK:   -1.16 KCAL/MOL
REMARK 927      BINDING AFFINITY PREDICTED BY RF-SCORE:    0.00 PKD
ROOT
HETATM    1  C   UNL     1      -8.686   8.672  67.817  1.00  0.00    -0.137 C  
HETATM    2  S   UNL     1      -9.397  10.232  68.388  1.00  0.00    -0.147 SA 
HETATM    3  C   UNL     1      -9.418   9.732  70.116  1.00  0.00    -0.229 C  
HETATM    4  C   UNL     1      -9.972   8.345  70.386  1.00  0.00    -0.199 C  
HETATM    5  OXT UNL     1     -11.340   5.851  70.841  1.00  0.00    -0.270 OA 
HETATM    6  CA  UNL     1     -10.054   7.355  69.448  1.00  0.00    -0.185 C  
HETATM    7  N   UNL     1      -9.565   7.578  68.188  1.00  0.00    -0.146 N  
HETATM    8  CA  UNL     1      -8.989   8.312  66.325  1.00  0.00    -0.183 C  
HETATM    9  C   UNL     1     -10.756   6.048  69.786  1.00  0.00    -0.330 C  
HETATM   10  O   UNL     1     -10.655   5.045  68.895  1.00  0.00    -0.079 OA 
HETATM   11  O   UNL     1     -10.171   6.003  66.603  1.00  0.00    -0.186 OA 
HETATM   12  C   UNL     1      -9.660   7.042  66.954  1.00  0.00    -0.168 C  
ENDROOT
BRANCH   4  13
HETATM   13  C   UNL     1     -10.509   8.230  71.813  1.00  0.00    -0.259 C  
BRANCH  13  14
HETATM   14  O   UNL     1     -11.393   9.334  72.107  1.00  0.00    -0.285 OA 
BRANCH  14  15
HETATM   15  C   UNL     1     -12.671   9.230  71.653  1.00  0.00    -0.364 C  
HETATM   16  C   UNL     1     -13.036  10.424  70.823  1.00  0.00    -0.422 C  
HETATM   17  O   UNL     1     -13.421   8.282  71.838  1.00  0.00    -0.337 OA 
ENDBRANCH  14  15
ENDBRANCH  13  14
ENDBRANCH   4  13
BRANCH   8  18
HETATM   18  N   UNL     1      -9.916   9.237  65.632  1.00  0.00    -0.427 N  
HETATM   19  H   UNL     1     -10.915   9.109  65.790  1.00  0.00     0.000 HD 
HETATM   20  C   UNL     1      -9.532  10.255  64.793  1.00  0.00    -0.283 C  
HETATM   21  O   UNL     1      -8.358  10.531  64.565  1.00  0.00    -0.168 OA 
BRANCH  20  22
HETATM   22  CA  UNL     1     -10.736  11.010  64.173  1.00  0.00    -0.274 C  
HETATM   23  H2  UNL     1     -10.331  10.292  62.239  1.00  0.00     0.000 HD 
HETATM   24  N   UNL     1     -10.513  11.180  62.707  1.00  0.00    -0.759 NA 
HETATM   25  H1  UNL     1     -11.305  11.676  62.300  1.00  0.00     0.000 HD 
BRANCH  22  26
HETATM   26  C   UNL     1     -10.976  12.338  64.866  1.00  0.00    -0.344 A  
HETATM   27  C   UNL     1     -11.753  12.372  66.035  1.00  0.00    -0.469 A  
HETATM   28  C   UNL     1     -12.001  13.579  66.693  1.00  0.00    -0.452 A  
HETATM   29  C   UNL     1     -11.468  14.767  66.198  1.00  0.00    -0.311 A  
HETATM   30  C   UNL     1     -10.677  14.749  65.054  1.00  0.00    -0.452 A  
HETATM   31  C   UNL     1     -10.426  13.543  64.396  1.00  0.00    -0.366 A  
ENDBRANCH  22  26
ENDBRANCH  20  22
ENDBRANCH   8  18
TORSDOF 6
ENDMDL
MODEL       23
REMARK 921   NORMALIZED FREE ENERGY PREDICTED BY IDOCK:   -6.17 KCAL/MOL
REMARK 922        TOTAL FREE ENERGY PREDICTED BY IDOCK:   -9.36 KCAL/MOL
REMARK 923 INTER-LIGAND FREE ENERGY PREDICTED BY IDOCK:   -8.46 KCAL/MOL
REMARK 924 INTRA-LIGAND FREE ENERGY PREDICTED BY IDOCK:   -0.91 KCAL/MOL
REMARK 927      BINDING AFFINITY PREDICTED BY RF-SCORE:    0.00 PKD
ROOT
HETATM    1  C   UNL     1     -11.769  13.576  67.344  1.00  0.00    -0.380 C  
HETATM    2  S   UNL     1     -10.358  12.485  67.055  1.00  0.00    -0.225 SA 
HETATM    3  C   UNL     1     -11.100  11.096  67.926  1.00  0.00    -0.273 C  
HETATM    4  C   UNL     1     -11.714  11.425  69.274  1.00  0.00    -0.404 C  
HETATM    5  OXT UNL     1     -12.554  12.067  71.954  1.00  0.00    -0.136 OA 
HETATM    6  CA  UNL     1     -12.098  12.679  69.657  1.00  0.00    -0.213 C  
HETATM    7  N   UNL     1     -11.984  13.718  68.772  1.00  0.00    -0.361 N  
HETATM    8  CA  UNL     1     -11.439  15.106  67.317  1.00  0.00    -0.279 C  
HETATM    9  C   UNL     1     -12.573  12.924  71.082  1.00  0.00    -0.281 C  
HETATM   10  O   UNL     1     -13.104  14.128  71.357  1.00  0.00    -0.329 OA 
HETATM   11  O   UNL     1     -12.240  15.827  69.692  1.00  0.00    -0.336 OA 
HETATM   12  C   UNL     1     -11.981  15.067  68.787  1.00  0.00    -0.249 C  
ENDROOT
BRANCH   4  13
HETATM   13  C   UNL     1     -11.763  10.192  70.178  1.00  0.00    -0.256 C  
BRANCH  13  14
HETATM   14  O   UNL     1     -10.489   9.510  70.165  1.00  0.00    -0.217 OA 
BRANCH  14  15
HETATM   15  C   UNL     1     -10.016   9.079  71.366  1.00  0.00    -0.318 C  
HETATM   16  C   UNL     1     -11.113   8.446  72.169  1.00  0.00    -0.415 C  
HETATM   17  O   UNL     1      -8.854   9.140  71.741  1.00  0.00    -0.341 OA 
ENDBRANCH  14  15
ENDBRANCH  13  14
ENDBRANCH   4  13
BRANCH   8  18
HETATM   18  N   UNL     1     -10.002  15.435  67.182  1.00  0.00    -0.232 N  
HETATM   19  H   UNL     1      -9.357  15.015  67.851  1.00  0.00     0.000 HD 
HETATM   20  C   UNL     1      -9.470  16.265  66.224  1.00  0.00    -0.316 C  
HETATM   21  O   UNL     1     -10.142  16.790  65.342  1.00  0.00    -0.587 OA 
BRANCH  20  22
HETATM   22  CA  UNL     1      -7.939  16.461  66.381  1.00  0.00    -0.294 C  
HETATM   23  H2  UNL     1      -7.638  14.476  67.002  1.00  0.00     0.000 HD 
HETATM   24  N   UNL     1      -7.399  15.420  67.303  1.00  0.00    -0.208 NA 
HETATM   25  H1  UNL     1      -6.393  15.549  67.407  1.00  0.00     0.000 HD 
BRANCH  22  26
HETATM   26  C   UNL     1      -7.604  17.864  66.853  1.00  0.00    -0.236 A  
HETATM   27  C   UNL     1      -7.003  18.764  65.959  1.00  0.00    -0.302 A  
HETATM   28  C   UNL     1      -6.673  20.060  66.363  1.00  0.00    -0.235 A  
HETATM   29  C   UNL     1      -6.948  20.477  67.663  1.00  0.00    -0.364 A  
HETATM   30  C   UNL     1      -7.565  19.606  68.556  1.00  0.00    -0.372 A  
HETATM   31  C   UNL     1      -7.898  18.311  68.153  1.00  0.00    -0.299 A  
ENDBRANCH  22  26
ENDBRANCH  20  22
ENDBRANCH   8  18
TORSDOF 6
ENDMDL
MODEL       24
REMARK 921   NORMALIZED FREE ENERGY PREDICTED BY IDOCK:   -6.16 KCAL/MOL
REMARK 922        TOTAL FREE ENERGY PREDICTED BY IDOCK:   -9.36 KCAL/MOL
REMARK 923 INTER-LIGAND FREE ENERGY PREDICTED BY IDOCK:   -8.40 KCAL/MOL
REMARK 924 INTRA-LIGAND FREE ENERGY PREDICTED BY IDOCK:   -0.96 KCAL/MOL
REMARK 927      BINDING AFFINITY PREDICTED BY RF-SCORE:    0.00 PKD
ROOT
HETATM    1  C   UNL     1     -11.384  11.523  67.482  1.00  0.00    -0.299 C  
HETATM    2  S   UNL     1      -9.689  11.334  66.886  1.00  0.00    -0.195 SA 
HETATM    3  C   UNL     1      -9.559   9.624  67.431  1.00  0.00    -0.148 C  
HETATM    4  C   UNL     1     -10.047   9.351  68.842  1.00  0.00    -0.201 C  
HETATM    5  OXT UNL     1     -10.678   8.985  71.630  1.00  0.00    -0.321 OA 
HETATM    6  CA  UNL     1     -10.909  10.161  69.527  1.00  0.00    -0.255 C  
HETATM    7  N   UNL     1     -11.424  11.270  68.910  1.00  0.00    -0.267 N  
HETATM    8  CA  UNL     1     -11.812  12.993  67.805  1.00  0.00    -0.347 C  
HETATM    9  C   UNL     1     -11.223   9.870  70.987  1.00  0.00    -0.364 C  
HETATM   10  O   UNL     1     -12.206  10.587  71.561  1.00  0.00    -0.355 OA 
HETATM   11  O   UNL     1     -12.492  12.771  70.314  1.00  0.00    -0.219 OA 
HETATM   12  C   UNL     1     -12.047  12.419  69.245  1.00  0.00    -0.165 C  
ENDROOT
BRANCH   4  13
HETATM   13  C   UNL     1      -9.381   8.106  69.430  1.00  0.00    -0.155 C  
BRANCH  13  14
HETATM   14  O   UNL     1      -9.841   6.921  68.744  1.00  0.00    -0.146 OA 
BRANCH  14  15
HETATM   15  C   UNL     1     -10.691   6.110  69.431  1.00  0.00    -0.320 C  
HETATM   16  C   UNL     1     -10.049   4.783  69.705  1.00  0.00    -0.289 C  
HETATM   17  O   UNL     1     -11.807   6.415  69.827  1.00  0.00    -0.357 OA 
ENDBRANCH  14  15
ENDBRANCH  13  14
ENDBRANCH   4  13
BRANCH   8  18
HETATM   18  N   UNL     1     -10.732  14.000  67.695  1.00  0.00    -0.255 N  
HETATM   19  H   UNL     1      -9.845  13.698  67.291  1.00  0.00     0.000 HD 
HETATM   20  C   UNL     1     -10.832  15.311  68.097  1.00  0.00    -0.273 C  
HETATM   21  O   UNL     1     -11.862  15.796  68.554  1.00  0.00    -0.363 OA 
BRANCH  20  22
HETATM   22  CA  UNL     1      -9.510  16.100  67.908  1.00  0.00    -0.214 C  
HETATM   23  H2  UNL     1      -8.489  14.948  69.339  1.00  0.00     0.000 HD 
HETATM   24  N   UNL     1      -8.655  15.929  69.118  1.00  0.00    -0.242 NA 
HETATM   25  H1  UNL     1      -7.786  16.448  68.994  1.00  0.00     0.000 HD 
BRANCH  22  26
HETATM   26  C   UNL     1      -9.775  17.563  67.604  1.00  0.00    -0.275 A  
HETATM   27  C   UNL     1      -9.707  18.503  68.644  1.00  0.00    -0.398 A  
HETATM   28  C   UNL     1      -9.954  19.857  68.401  1.00  0.00    -0.531 A  
HETATM   29  C   UNL     1     -10.261  20.290  67.114  1.00  0.00    -0.500 A  
HETATM   30  C   UNL     1     -10.310  19.376  66.066  1.00  0.00    -0.584 A  
HETATM   31  C   UNL     1     -10.061  18.022  66.307  1.00  0.00    -0.363 A  
ENDBRANCH  22  26
ENDBRANCH  20  22
ENDBRANCH   8  18
TORSDOF 6
ENDMDL
MODEL       25
REMARK 921   NORMALIZED FREE ENERGY PREDICTED BY IDOCK:   -6.09 KCAL/MOL
REMARK 922        TOTAL FREE ENERGY PREDICTED BY IDOCK:   -9.26 KCAL/MOL
REMARK 923 INTER-LIGAND FREE ENERGY PREDICTED BY IDOCK:   -8.32 KCAL/MOL
REMARK 924 INTRA-LIGAND FREE ENERGY PREDICTED BY IDOCK:   -0.93 KCAL/MOL
REMARK 927      BINDING AFFINITY PREDICTED BY RF-SCORE:    0.00 PKD
ROOT
HETATM    1  C   UNL     1      -9.523  10.172  69.667  1.00  0.00    -0.200 C  
HETATM    2  S   UNL     1     -10.917  10.059  70.813  1.00  0.00    -0.233 SA 
HETATM    3  C   UNL     1     -10.904   8.260  70.841  1.00  0.00    -0.230 C  
HETATM    4  C   UNL     1     -10.805   7.588  69.483  1.00  0.00    -0.184 C  
HETATM    5  OXT UNL     1     -10.952   6.399  66.863  1.00  0.00    -0.370 OA 
HETATM    6  CA  UNL     1     -10.329   8.198  68.357  1.00  0.00    -0.199 C  
HETATM    7  N   UNL     1      -9.854   9.481  68.436  1.00  0.00    -0.154 N  
HETATM    8  CA  UNL     1      -9.464  11.490  68.826  1.00  0.00    -0.089 C  
HETATM    9  C   UNL     1     -10.404   7.481  67.018  1.00  0.00    -0.324 C  
HETATM   10  O   UNL     1      -9.766   8.047  65.978  1.00  0.00    -0.102 OA 
HETATM   11  O   UNL     1      -9.509  10.529  66.400  1.00  0.00    -0.164 OA 
HETATM   12  C   UNL     1      -9.560  10.505  67.609  1.00  0.00    -0.157 C  
ENDROOT
BRANCH   4  13
HETATM   13  C   UNL     1     -11.390   6.175  69.519  1.00  0.00    -0.356 C  
BRANCH  13  14
HETATM   14  O   UNL     1     -10.685   5.365  70.484  1.00  0.00    -0.263 OA 
BRANCH  14  15
HETATM   15  C   UNL     1      -9.443   4.936  70.129  1.00  0.00    -0.172 C  
HETATM   16  C   UNL     1      -9.534   3.730  69.243  1.00  0.00    -0.252 C  
HETATM   17  O   UNL     1      -8.387   5.472  70.434  1.00  0.00    -0.107 OA 
ENDBRANCH  14  15
ENDBRANCH  13  14
ENDBRANCH   4  13
BRANCH   8  18
HETATM   18  N   UNL     1     -10.622  12.396  68.996  1.00  0.00    -0.410 N  
HETATM   19  H   UNL     1     -11.533  11.971  69.170  1.00  0.00     0.000 HD 
HETATM   20  C   UNL     1     -10.565  13.769  68.939  1.00  0.00    -0.205 C  
HETATM   21  O   UNL     1      -9.519  14.390  68.781  1.00  0.00    -0.205 OA 
BRANCH  20  22
HETATM   22  CA  UNL     1     -11.956  14.436  69.096  1.00  0.00    -0.322 C  
HETATM   23  H2  UNL     1     -11.802  15.443  67.257  1.00  0.00     0.000 HD 
HETATM   24  N   UNL     1     -12.023  15.650  68.231  1.00  0.00    -0.428 NA 
HETATM   25  H1  UNL     1     -12.937  16.089  68.335  1.00  0.00     0.000 HD 
BRANCH  22  26
HETATM   26  C   UNL     1     -12.257  14.759  70.548  1.00  0.00    -0.385 A  
HETATM   27  C   UNL     1     -13.148  13.942  71.262  1.00  0.00    -0.385 A  
HETATM   28  C   UNL     1     -13.454  14.215  72.597  1.00  0.00    -0.634 A  
HETATM   29  C   UNL     1     -12.867  15.302  73.240  1.00  0.00    -0.634 A  
HETATM   30  C   UNL     1     -11.963  16.109  72.555  1.00  0.00    -0.660 A  
HETATM   31  C   UNL     1     -11.654  15.835  71.221  1.00  0.00    -0.499 A  
ENDBRANCH  22  26
ENDBRANCH  20  22
ENDBRANCH   8  18
TORSDOF 6
ENDMDL
MODEL       26
REMARK 921   NORMALIZED FREE ENERGY PREDICTED BY IDOCK:   -6.09 KCAL/MOL
REMARK 922        TOTAL FREE ENERGY PREDICTED BY IDOCK:   -9.26 KCAL/MOL
REMARK 923 INTER-LIGAND FREE ENERGY PREDICTED BY IDOCK:   -8.64 KCAL/MOL
REMARK 924 INTRA-LIGAND FREE ENERGY PREDICTED BY IDOCK:   -0.62 KCAL/MOL
REMARK 927      BINDING AFFINITY PREDICTED BY RF-SCORE:    0.00 PKD
ROOT
HETATM    1  C   UNL     1     -10.092  11.342  69.328  1.00  0.00     0.009 C  
HETATM    2  S   UNL     1     -10.967  12.723  68.558  1.00  0.00    -0.270 SA 
HETATM    3  C   UNL     1     -11.772  13.224  70.087  1.00  0.00    -0.184 C  
HETATM    4  C   UNL     1     -12.403  12.101  70.889  1.00  0.00    -0.370 C  
HETATM    5  OXT UNL     1     -13.855   9.970  72.174  1.00  0.00    -0.254 OA 
HETATM    6  CA  UNL     1     -12.063  10.784  70.766  1.00  0.00    -0.372 C  
HETATM    7  N   UNL     1     -11.054  10.426  69.910  1.00  0.00    -0.284 N  
HETATM    8  CA  UNL     1      -9.691  10.186  68.353  1.00  0.00    -0.147 C  
HETATM    9  C   UNL     1     -12.855   9.723  71.516  1.00  0.00    -0.405 C  
HETATM   10  O   UNL     1     -12.373   8.467  71.501  1.00  0.00    -0.298 OA 
HETATM   11  O   UNL     1     -10.895   8.158  69.470  1.00  0.00    -0.213 OA 
HETATM   12  C   UNL     1     -10.587   9.316  69.302  1.00  0.00    -0.222 C  
ENDROOT
BRANCH   4  13
HETATM   13  C   UNL     1     -13.529  12.623  71.784  1.00  0.00    -0.221 C  
BRANCH  13  14
HETATM   14  O   UNL     1     -13.051  13.706  72.611  1.00  0.00    -0.447 OA 
BRANCH  14  15
HETATM   15  C   UNL     1     -13.594  14.932  72.384  1.00  0.00    -0.450 C  
HETATM   16  C   UNL     1     -13.167  15.904  73.443  1.00  0.00    -0.668 C  
HETATM   17  O   UNL     1     -14.294  15.239  71.429  1.00  0.00    -0.510 OA 
ENDBRANCH  14  15
ENDBRANCH  13  14
ENDBRANCH   4  13
BRANCH   8  18
HETATM   18  N   UNL     1     -10.195  10.330  66.968  1.00  0.00    -0.217 N  
HETATM   19  H   UNL     1     -11.205  10.386  66.837  1.00  0.00     0.000 HD 
HETATM   20  C   UNL     1      -9.405  10.394  65.845  1.00  0.00    -0.182 C  
HETATM   21  O   UNL     1      -8.179  10.382  65.885  1.00  0.00    -0.139 OA 
BRANCH  20  22
HETATM   22  CA  UNL     1     -10.229  10.484  64.534  1.00  0.00    -0.285 C  
HETATM   23  H2  UNL     1      -8.903   9.236  63.485  1.00  0.00     0.000 HD 
HETATM   24  N   UNL     1      -9.354  10.144  63.375  1.00  0.00    -0.288 NA 
HETATM   25  H1  UNL     1      -9.896  10.203  62.513  1.00  0.00     0.000 HD 
BRANCH  22  26
HETATM   26  C   UNL     1     -10.874  11.848  64.375  1.00  0.00    -0.384 A  
HETATM   27  C   UNL     1     -12.034  11.972  63.594  1.00  0.00    -0.612 A  
HETATM   28  C   UNL     1     -12.648  13.215  63.420  1.00  0.00    -0.172 A  
HETATM   29  C   UNL     1     -12.117  14.348  64.031  1.00  0.00    -0.312 A  
HETATM   30  C   UNL     1     -10.981  14.240  64.828  1.00  0.00    -0.408 A  
HETATM   31  C   UNL     1     -10.368  12.998  65.005  1.00  0.00    -0.336 A  
ENDBRANCH  22  26
ENDBRANCH  20  22
ENDBRANCH   8  18
TORSDOF 6
ENDMDL
MODEL       27
REMARK 921   NORMALIZED FREE ENERGY PREDICTED BY IDOCK:   -6.05 KCAL/MOL
REMARK 922        TOTAL FREE ENERGY PREDICTED BY IDOCK:   -9.21 KCAL/MOL
REMARK 923 INTER-LIGAND FREE ENERGY PREDICTED BY IDOCK:   -8.25 KCAL/MOL
REMARK 924 INTRA-LIGAND FREE ENERGY PREDICTED BY IDOCK:   -0.96 KCAL/MOL
REMARK 927      BINDING AFFINITY PREDICTED BY RF-SCORE:    0.00 PKD
ROOT
HETATM    1  C   UNL     1     -11.277  13.405  67.704  1.00  0.00    -0.276 C  
HETATM    2  S   UNL     1      -9.636  13.963  68.216  1.00  0.00    -0.217 SA 
HETATM    3  C   UNL     1      -9.981  15.693  67.864  1.00  0.00    -0.223 C  
HETATM    4  C   UNL     1     -10.642  15.966  66.525  1.00  0.00    -0.297 C  
HETATM    5  OXT UNL     1     -11.582  16.425  63.841  1.00  0.00    -1.100 OA 
HETATM    6  CA  UNL     1     -11.332  15.033  65.804  1.00  0.00    -0.279 C  
HETATM    7  N   UNL     1     -11.501  13.775  66.319  1.00  0.00    -0.325 N  
HETATM    8  CA  UNL     1     -11.353  11.912  67.241  1.00  0.00    -0.329 C  
HETATM    9  C   UNL     1     -11.834  15.372  64.408  1.00  0.00    -0.256 C  
HETATM   10  O   UNL     1     -12.654  14.487  63.815  1.00  0.00    -0.825 OA 
HETATM   11  O   UNL     1     -12.281  12.193  64.819  1.00  0.00    -0.360 OA 
HETATM   12  C   UNL     1     -11.847  12.542  65.893  1.00  0.00    -0.430 C  
ENDROOT
BRANCH   4  13
HETATM   13  C   UNL     1     -10.358  17.391  66.046  1.00  0.00    -0.304 C  
BRANCH  13  14
HETATM   14  O   UNL     1      -8.935  17.600  65.910  1.00  0.00    -0.519 OA 
BRANCH  14  15
HETATM   15  C   UNL     1      -8.481  18.864  66.131  1.00  0.00    -0.183 C  
HETATM   16  C   UNL     1      -9.252  19.516  67.239  1.00  0.00    -0.391 C  
HETATM   17  O   UNL     1      -7.544  19.398  65.555  1.00  0.00    -0.434 OA 
ENDBRANCH  14  15
ENDBRANCH  13  14
ENDBRANCH   4  13
BRANCH   8  18
HETATM   18  N   UNL     1     -10.052  11.209  67.170  1.00  0.00    -0.186 N  
HETATM   19  H   UNL     1      -9.212  11.780  67.077  1.00  0.00     0.000 HD 
HETATM   20  C   UNL     1      -9.889   9.845  67.219  1.00  0.00    -0.182 C  
HETATM   21  O   UNL     1     -10.821   9.063  67.375  1.00  0.00    -0.230 OA 
BRANCH  20  22
HETATM   22  CA  UNL     1      -8.409   9.410  67.060  1.00  0.00    -0.127 C  
HETATM   23  H2  UNL     1      -8.869   7.372  67.283  1.00  0.00     0.000 HD 
HETATM   24  N   UNL     1      -8.221   8.060  67.665  1.00  0.00    -0.123 NA 
HETATM   25  H1  UNL     1      -7.248   7.774  67.561  1.00  0.00     0.000 HD 
BRANCH  22  26
HETATM   26  C   UNL     1      -7.461  10.434  67.656  1.00  0.00    -0.089 A  
HETATM   27  C   UNL     1      -7.346  10.532  69.052  1.00  0.00    -0.103 A  
HETATM   28  C   UNL     1      -6.489  11.469  69.635  1.00  0.00    -0.129 A  
HETATM   29  C   UNL     1      -5.729  12.315  68.831  1.00  0.00    -0.060 A  
HETATM   30  C   UNL     1      -5.813  12.216  67.445  1.00  0.00    -0.137 A  
HETATM   31  C   UNL     1      -6.667  11.278  66.861  1.00  0.00    -0.135 A  
ENDBRANCH  22  26
ENDBRANCH  20  22
ENDBRANCH   8  18
TORSDOF 6
ENDMDL
MODEL       28
REMARK 921   NORMALIZED FREE ENERGY PREDICTED BY IDOCK:   -6.00 KCAL/MOL
REMARK 922        TOTAL FREE ENERGY PREDICTED BY IDOCK:   -9.14 KCAL/MOL
REMARK 923 INTER-LIGAND FREE ENERGY PREDICTED BY IDOCK:   -8.10 KCAL/MOL
REMARK 924 INTRA-LIGAND FREE ENERGY PREDICTED BY IDOCK:   -1.03 KCAL/MOL
REMARK 927      BINDING AFFINITY PREDICTED BY RF-SCORE:    0.00 PKD
ROOT
HETATM    1  C   UNL     1      -8.552  14.193  66.598  1.00  0.00     0.035 C  
HETATM    2  S   UNL     1      -7.762  14.218  68.223  1.00  0.00    -0.149 SA 
HETATM    3  C   UNL     1      -8.018  12.461  68.510  1.00  0.00    -0.110 C  
HETATM    4  C   UNL     1      -9.413  11.947  68.201  1.00  0.00    -0.195 C  
HETATM    5  OXT UNL     1     -12.159  11.126  67.911  1.00  0.00    -0.627 OA 
HETATM    6  CA  UNL     1     -10.300  12.581  67.378  1.00  0.00    -0.216 C  
HETATM    7  N   UNL     1      -9.919  13.729  66.734  1.00  0.00    -0.263 N  
HETATM    8  CA  UNL     1      -9.141  15.564  66.127  1.00  0.00    -0.324 C  
HETATM    9  C   UNL     1     -11.722  12.055  67.247  1.00  0.00    -0.269 C  
HETATM   10  O   UNL     1     -12.498  12.604  66.296  1.00  0.00    -0.483 OA 
HETATM   11  O   UNL     1     -11.642  14.922  65.749  1.00  0.00    -0.325 OA 
HETATM   12  C   UNL     1     -10.491  14.766  66.089  1.00  0.00    -0.304 C  
ENDROOT
BRANCH   4  13
HETATM   13  C   UNL     1      -9.728  10.680  68.998  1.00  0.00    -0.202 C  
BRANCH  13  14
HETATM   14  O   UNL     1      -8.871   9.597  68.577  1.00  0.00    -0.122 OA 
BRANCH  14  15
HETATM   15  C   UNL     1      -9.141   9.041  67.365  1.00  0.00    -0.131 C  
HETATM   16  C   UNL     1     -10.373   8.189  67.437  1.00  0.00    -0.351 C  
HETATM   17  O   UNL     1      -8.515   9.235  66.333  1.00  0.00    -0.120 OA 
ENDBRANCH  14  15
ENDBRANCH  13  14
ENDBRANCH   4  13
BRANCH   8  18
HETATM   18  N   UNL     1      -9.079  16.651  67.130  1.00  0.00    -0.211 N  
HETATM   19  H   UNL     1      -8.524  16.487  67.969  1.00  0.00     0.000 HD 
HETATM   20  C   UNL     1      -9.712  17.866  67.015  1.00  0.00    -0.298 C  
HETATM   21  O   UNL     1     -10.368  18.191  66.032  1.00  0.00    -0.478 OA 
BRANCH  20  22
HETATM   22  CA  UNL     1      -9.505  18.771  68.257  1.00  0.00    -0.349 C  
HETATM   23  H2  UNL     1     -11.564  19.137  68.471  1.00  0.00     0.000 HD 
HETATM   24  N   UNL     1     -10.691  19.661  68.425  1.00  0.00    -0.379 NA 
HETATM   25  H1  UNL     1     -10.554  20.257  69.241  1.00  0.00     0.000 HD 
BRANCH  22  26
HETATM   26  C   UNL     1      -8.214  19.562  68.160  1.00  0.00    -0.352 A  
HETATM   27  C   UNL     1      -7.269  19.464  69.194  1.00  0.00    -0.377 A  
HETATM   28  C   UNL     1      -6.073  20.185  69.140  1.00  0.00    -0.356 A  
HETATM   29  C   UNL     1      -5.801  21.006  68.048  1.00  0.00    -0.395 A  
HETATM   30  C   UNL     1      -6.716  21.097  67.003  1.00  0.00    -0.388 A  
HETATM   31  C   UNL     1      -7.910  20.375  67.054  1.00  0.00    -0.365 A  
ENDBRANCH  22  26
ENDBRANCH  20  22
ENDBRANCH   8  18
TORSDOF 6
ENDMDL
MODEL       29
REMARK 921   NORMALIZED FREE ENERGY PREDICTED BY IDOCK:   -5.99 KCAL/MOL
REMARK 922        TOTAL FREE ENERGY PREDICTED BY IDOCK:   -9.13 KCAL/MOL
REMARK 923 INTER-LIGAND FREE ENERGY PREDICTED BY IDOCK:   -8.05 KCAL/MOL
REMARK 924 INTRA-LIGAND FREE ENERGY PREDICTED BY IDOCK:   -1.08 KCAL/MOL
REMARK 927      BINDING AFFINITY PREDICTED BY RF-SCORE:    0.00 PKD
ROOT
HETATM    1  C   UNL     1      -9.315   9.999  68.777  1.00  0.00    -0.162 C  
HETATM    2  S   UNL     1     -10.880  10.880  68.979  1.00  0.00    -0.248 SA 
HETATM    3  C   UNL     1     -11.295  10.038  70.514  1.00  0.00    -0.335 C  
HETATM    4  C   UNL     1     -11.113   8.531  70.500  1.00  0.00    -0.265 C  
HETATM    5  OXT UNL     1     -11.058   5.659  70.282  1.00  0.00    -0.278 OA 
HETATM    6  CA  UNL     1     -10.311   7.863  69.618  1.00  0.00    -0.216 C  
HETATM    7  N   UNL     1      -9.571   8.573  68.710  1.00  0.00    -0.148 N  
HETATM    8  CA  UNL     1      -8.797   9.901  67.303  1.00  0.00    -0.132 C  
HETATM    9  C   UNL     1     -10.309   6.342  69.599  1.00  0.00    -0.215 C  
HETATM   10  O   UNL     1      -9.378   5.735  68.841  1.00  0.00    -0.120 OA 
HETATM   11  O   UNL     1      -8.627   7.314  67.011  1.00  0.00    -0.119 OA 
HETATM   12  C   UNL     1      -8.899   8.357  67.560  1.00  0.00    -0.135 C  
ENDROOT
BRANCH   4  13
HETATM   13  C   UNL     1     -12.009   7.854  71.537  1.00  0.00    -0.301 C  
BRANCH  13  14
HETATM   14  O   UNL     1     -11.484   8.061  72.866  1.00  0.00    -0.411 OA 
BRANCH  14  15
HETATM   15  C   UNL     1     -10.624   7.117  73.336  1.00  0.00    -0.382 C  
HETATM   16  C   UNL     1      -9.285   7.723  73.632  1.00  0.00    -0.344 C  
HETATM   17  O   UNL     1     -10.895   5.943  73.545  1.00  0.00    -0.265 OA 
ENDBRANCH  14  15
ENDBRANCH  13  14
ENDBRANCH   4  13
BRANCH   8  18
HETATM   18  N   UNL     1      -9.721  10.433  66.276  1.00  0.00    -0.195 N  
HETATM   19  H   UNL     1     -10.600  10.838  66.597  1.00  0.00     0.000 HD 
HETATM   20  C   UNL     1      -9.484  10.423  64.922  1.00  0.00    -0.265 C  
HETATM   21  O   UNL     1      -8.444  10.004  64.426  1.00  0.00    -0.151 OA 
BRANCH  20  22
HETATM   22  CA  UNL     1     -10.668  10.997  64.101  1.00  0.00    -0.274 C  
HETATM   23  H2  UNL     1     -10.009  10.101  62.318  1.00  0.00     0.000 HD 
HETATM   24  N   UNL     1     -10.303  11.017  62.654  1.00  0.00    -0.733 NA 
HETATM   25  H1  UNL     1     -11.081  11.395  62.114  1.00  0.00     0.000 HD 
BRANCH  22  26
HETATM   26  C   UNL     1     -11.077  12.370  64.600  1.00  0.00    -0.348 A  
HETATM   27  C   UNL     1     -10.184  13.445  64.460  1.00  0.00    -0.321 A  
HETATM   28  C   UNL     1     -10.525  14.721  64.916  1.00  0.00    -0.398 A  
HETATM   29  C   UNL     1     -11.766  14.942  65.509  1.00  0.00    -0.211 A  
HETATM   30  C   UNL     1     -12.672  13.894  65.635  1.00  0.00    -0.534 A  
HETATM   31  C   UNL     1     -12.334  12.618  65.177  1.00  0.00    -0.547 A  
ENDBRANCH  22  26
ENDBRANCH  20  22
ENDBRANCH   8  18
TORSDOF 6
ENDMDL
MODEL       30
REMARK 921   NORMALIZED FREE ENERGY PREDICTED BY IDOCK:   -5.99 KCAL/MOL
REMARK 922        TOTAL FREE ENERGY PREDICTED BY IDOCK:   -9.12 KCAL/MOL
REMARK 923 INTER-LIGAND FREE ENERGY PREDICTED BY IDOCK:   -9.38 KCAL/MOL
REMARK 924 INTRA-LIGAND FREE ENERGY PREDICTED BY IDOCK:    0.25 KCAL/MOL
REMARK 927      BINDING AFFINITY PREDICTED BY RF-SCORE:    0.00 PKD
ROOT
HETATM    1  C   UNL     1      -9.936  14.575  66.778  1.00  0.00    -0.264 C  
HETATM    2  S   UNL     1      -9.405  13.685  68.258  1.00  0.00    -0.186 SA 
HETATM    3  C   UNL     1      -8.394  12.514  67.340  1.00  0.00    -0.182 C  
HETATM    4  C   UNL     1      -9.055  11.903  66.117  1.00  0.00    -0.162 C  
HETATM    5  OXT UNL     1     -10.491  10.547  64.020  1.00  0.00    -0.226 OA 
HETATM    6  CA  UNL     1     -10.122  12.453  65.465  1.00  0.00    -0.267 C  
HETATM    7  N   UNL     1     -10.618  13.659  65.884  1.00  0.00    -0.284 N  
HETATM    8  CA  UNL     1     -11.295  15.338  66.915  1.00  0.00    -0.209 C  
HETATM    9  C   UNL     1     -10.796  11.687  64.336  1.00  0.00    -0.339 C  
HETATM   10  O   UNL     1     -11.723  12.342  63.614  1.00  0.00    -0.429 OA 
HETATM   11  O   UNL     1     -12.674  14.241  64.991  1.00  0.00    -0.625 OA 
HETATM   12  C   UNL     1     -11.734  14.403  65.736  1.00  0.00    -0.362 C  
ENDROOT
BRANCH   4  13
HETATM   13  C   UNL     1      -8.431  10.550  65.767  1.00  0.00    -0.175 C  
BRANCH  13  14
HETATM   14  O   UNL     1      -8.710   9.586  66.806  1.00  0.00    -0.126 OA 
BRANCH  14  15
HETATM   15  C   UNL     1      -9.195   8.380  66.404  1.00  0.00    -0.201 C  
HETATM   16  C   UNL     1     -10.551   8.133  66.996  1.00  0.00    -0.346 C  
HETATM   17  O   UNL     1      -8.648   7.611  65.628  1.00  0.00    -0.148 OA 
ENDBRANCH  14  15
ENDBRANCH  13  14
ENDBRANCH   4  13
BRANCH   8  18
HETATM   18  N   UNL     1     -12.011  15.119  68.193  1.00  0.00    -0.521 N  
HETATM   19  H   UNL     1     -12.752  14.419  68.205  1.00  0.00     0.000 HD 
HETATM   20  C   UNL     1     -11.752  15.788  69.366  1.00  0.00    -0.370 C  
HETATM   21  O   UNL     1     -10.855  16.616  69.482  1.00  0.00    -0.321 OA 
BRANCH  20  22
HETATM   22  CA  UNL     1     -12.710  15.380  70.515  1.00  0.00    -0.405 C  
HETATM   23  H2  UNL     1     -12.369  17.160  71.579  1.00  0.00     0.000 HD 
HETATM   24  N   UNL     1     -12.368  16.153  71.744  1.00  0.00    -0.587 NA 
HETATM   25  H1  UNL     1     -12.998  15.885  72.499  1.00  0.00     0.000 HD 
BRANCH  22  26
HETATM   26  C   UNL     1     -12.677  13.883  70.762  1.00  0.00    -0.383 A  
HETATM   27  C   UNL     1     -13.408  13.348  71.835  1.00  0.00    -0.539 A  
HETATM   28  C   UNL     1     -13.392  11.975  72.096  1.00  0.00    -0.396 A  
HETATM   29  C   UNL     1     -12.655  11.118  71.282  1.00  0.00    -0.503 A  
HETATM   30  C   UNL     1     -11.944  11.628  70.200  1.00  0.00    -0.441 A  
HETATM   31  C   UNL     1     -11.960  13.000  69.937  1.00  0.00    -0.381 A  
ENDBRANCH  22  26
ENDBRANCH  20  22
ENDBRANCH   8  18
TORSDOF 6
ENDMDL
MODEL       31
REMARK 921   NORMALIZED FREE ENERGY PREDICTED BY IDOCK:   -5.97 KCAL/MOL
REMARK 922        TOTAL FREE ENERGY PREDICTED BY IDOCK:   -9.10 KCAL/MOL
REMARK 923 INTER-LIGAND FREE ENERGY PREDICTED BY IDOCK:   -9.36 KCAL/MOL
REMARK 924 INTRA-LIGAND FREE ENERGY PREDICTED BY IDOCK:    0.26 KCAL/MOL
REMARK 927      BINDING AFFINITY PREDICTED BY RF-SCORE:    0.00 PKD
ROOT
HETATM    1  C   UNL     1     -10.416  14.103  67.009  1.00  0.00    -0.271 C  
HETATM    2  S   UNL     1      -9.821  12.780  68.088  1.00  0.00    -0.226 SA 
HETATM    3  C   UNL     1      -8.887  11.970  66.782  1.00  0.00    -0.198 C  
HETATM    4  C   UNL     1      -9.626  11.788  65.469  1.00  0.00    -0.222 C  
HETATM    5  OXT UNL     1     -11.204  11.186  63.134  1.00  0.00    -0.041 OA 
HETATM    6  CA  UNL     1     -10.717  12.520  65.093  1.00  0.00    -0.292 C  
HETATM    7  N   UNL     1     -11.165  13.526  65.909  1.00  0.00    -0.299 N  
HETATM    8  CA  UNL     1     -11.751  14.780  67.466  1.00  0.00    -0.348 C  
HETATM    9  C   UNL     1     -11.468  12.163  63.820  1.00  0.00    -0.465 C  
HETATM   10  O   UNL     1     -12.420  13.017  63.404  1.00  0.00    -0.710 OA 
HETATM   11  O   UNL     1     -13.256  14.367  65.375  1.00  0.00    -0.607 OA 
HETATM   12  C   UNL     1     -12.273  14.278  66.075  1.00  0.00    -0.404 C  
ENDROOT
BRANCH   4  13
HETATM   13  C   UNL     1      -9.050  10.622  64.663  1.00  0.00    -0.211 C  
BRANCH  13  14
HETATM   14  O   UNL     1      -9.721   9.392  65.013  1.00  0.00    -0.184 OA 
BRANCH  14  15
HETATM   15  C   UNL     1      -9.183   8.673  66.035  1.00  0.00    -0.216 C  
HETATM   16  C   UNL     1     -10.259   8.163  66.946  1.00  0.00    -0.387 C  
HETATM   17  O   UNL     1      -7.997   8.419  66.184  1.00  0.00    -0.095 OA 
ENDBRANCH  14  15
ENDBRANCH  13  14
ENDBRANCH   4  13
BRANCH   8  18
HETATM   18  N   UNL     1     -12.398  14.159  68.644  1.00  0.00    -0.543 N  
HETATM   19  H   UNL     1     -13.174  13.519  68.474  1.00  0.00     0.000 HD 
HETATM   20  C   UNL     1     -12.034  14.380  69.951  1.00  0.00    -0.335 C  
HETATM   21  O   UNL     1     -11.090  15.093  70.274  1.00  0.00    -0.250 OA 
BRANCH  20  22
HETATM   22  CA  UNL     1     -12.941  13.632  70.963  1.00  0.00    -0.232 C  
HETATM   23  H2  UNL     1     -13.017  15.272  72.275  1.00  0.00     0.000 HD 
HETATM   24  N   UNL     1     -12.819  14.272  72.305  1.00  0.00    -0.343 NA 
HETATM   25  H1  UNL     1     -13.416  13.781  72.970  1.00  0.00     0.000 HD 
BRANCH  22  26
HETATM   26  C   UNL     1     -12.617  12.151  71.011  1.00  0.00    -0.359 A  
HETATM   27  C   UNL     1     -13.306  11.326  71.915  1.00  0.00    -0.413 A  
HETATM   28  C   UNL     1     -13.027   9.960  71.992  1.00  0.00    -0.518 A  
HETATM   29  C   UNL     1     -12.062   9.397  71.160  1.00  0.00    -0.406 A  
HETATM   30  C   UNL     1     -11.386  10.194  70.241  1.00  0.00    -0.387 A  
HETATM   31  C   UNL     1     -11.666  11.560  70.162  1.00  0.00    -0.395 A  
ENDBRANCH  22  26
ENDBRANCH  20  22
ENDBRANCH   8  18
TORSDOF 6
ENDMDL
MODEL       32
REMARK 921   NORMALIZED FREE ENERGY PREDICTED BY IDOCK:   -5.93 KCAL/MOL
REMARK 922        TOTAL FREE ENERGY PREDICTED BY IDOCK:   -9.05 KCAL/MOL
REMARK 923 INTER-LIGAND FREE ENERGY PREDICTED BY IDOCK:   -8.31 KCAL/MOL
REMARK 924 INTRA-LIGAND FREE ENERGY PREDICTED BY IDOCK:   -0.74 KCAL/MOL
REMARK 927      BINDING AFFINITY PREDICTED BY RF-SCORE:    0.00 PKD
ROOT
HETATM    1  C   UNL     1     -11.518  13.515  66.748  1.00  0.00    -0.346 C  
HETATM    2  S   UNL     1     -11.173  12.440  68.160  1.00  0.00    -0.289 SA 
HETATM    3  C   UNL     1     -11.963  13.539  69.345  1.00  0.00    -0.330 C  
HETATM    4  C   UNL     1     -11.588  15.005  69.224  1.00  0.00    -0.338 C  
HETATM    5  OXT UNL     1     -10.573  17.700  69.143  1.00  0.00    -0.260 OA 
HETATM    6  CA  UNL     1     -11.066  15.574  68.097  1.00  0.00    -0.325 C  
HETATM    7  N   UNL     1     -10.907  14.812  66.970  1.00  0.00    -0.308 N  
HETATM    8  CA  UNL     1     -10.545  13.346  65.534  1.00  0.00    -0.290 C  
HETATM    9  C   UNL     1     -10.593  17.020  68.128  1.00  0.00    -0.369 C  
HETATM   10  O   UNL     1     -10.254  17.583  66.954  1.00  0.00    -0.309 OA 
HETATM   11  O   UNL     1      -9.611  15.772  65.308  1.00  0.00    -0.331 OA 
HETATM   12  C   UNL     1     -10.238  14.861  65.800  1.00  0.00    -0.336 C  
ENDROOT
BRANCH   4  13
HETATM   13  C   UNL     1     -11.785  15.740  70.551  1.00  0.00    -0.377 C  
BRANCH  13  14
HETATM   14  O   UNL     1     -11.751  14.805  71.652  1.00  0.00    -0.348 OA 
BRANCH  14  15
HETATM   15  C   UNL     1     -12.559  15.080  72.711  1.00  0.00    -0.390 C  
HETATM   16  C   UNL     1     -13.933  15.458  72.243  1.00  0.00    -0.661 C  
HETATM   17  O   UNL     1     -12.249  14.990  73.890  1.00  0.00    -0.533 OA 
ENDBRANCH  14  15
ENDBRANCH  13  14
ENDBRANCH   4  13
BRANCH   8  18
HETATM   18  N   UNL     1      -9.410  12.423  65.763  1.00  0.00    -0.440 N  
HETATM   19  H   UNL     1      -8.606  12.782  66.278  1.00  0.00     0.000 HD 
HETATM   20  C   UNL     1      -9.357  11.117  65.335  1.00  0.00    -0.219 C  
HETATM   21  O   UNL     1     -10.282  10.566  64.748  1.00  0.00    -0.341 OA 
BRANCH  20  22
HETATM   22  CA  UNL     1      -8.011  10.427  65.676  1.00  0.00    -0.153 C  
HETATM   23  H2  UNL     1      -7.372  12.024  66.883  1.00  0.00     0.000 HD 
HETATM   24  N   UNL     1      -7.023  11.456  66.111  1.00  0.00    -0.371 NA 
HETATM   25  H1  UNL     1      -6.138  11.003  66.335  1.00  0.00     0.000 HD 
BRANCH  22  26
HETATM   26  C   UNL     1      -7.496   9.607  64.508  1.00  0.00    -0.128 A  
HETATM   27  C   UNL     1      -7.781   8.233  64.454  1.00  0.00    -0.125 A  
HETATM   28  C   UNL     1      -7.314   7.447  63.398  1.00  0.00    -0.087 A  
HETATM   29  C   UNL     1      -6.566   8.025  62.375  1.00  0.00    -0.086 A  
HETATM   30  C   UNL     1      -6.293   9.389  62.399  1.00  0.00    -0.096 A  
HETATM   31  C   UNL     1      -6.761  10.177  63.454  1.00  0.00    -0.128 A  
ENDBRANCH  22  26
ENDBRANCH  20  22
ENDBRANCH   8  18
TORSDOF 6
ENDMDL
MODEL       33
REMARK 921   NORMALIZED FREE ENERGY PREDICTED BY IDOCK:   -5.92 KCAL/MOL
REMARK 922        TOTAL FREE ENERGY PREDICTED BY IDOCK:   -9.03 KCAL/MOL
REMARK 923 INTER-LIGAND FREE ENERGY PREDICTED BY IDOCK:   -8.01 KCAL/MOL
REMARK 924 INTRA-LIGAND FREE ENERGY PREDICTED BY IDOCK:   -1.02 KCAL/MOL
REMARK 927      BINDING AFFINITY PREDICTED BY RF-SCORE:    0.00 PKD
ROOT
HETATM    1  C   UNL     1      -9.556  10.788  69.075  1.00  0.00    -0.180 C  
HETATM    2  S   UNL     1      -9.006   9.120  69.500  1.00  0.00    -0.159 SA 
HETATM    3  C   UNL     1      -7.886   9.000  68.098  1.00  0.00    -0.100 C  
HETATM    4  C   UNL     1      -8.463   9.439  66.764  1.00  0.00    -0.129 C  
HETATM    5  OXT UNL     1      -9.732   9.970  64.233  1.00  0.00    -0.296 OA 
HETATM    6  CA  UNL     1      -9.547  10.259  66.629  1.00  0.00    -0.175 C  
HETATM    7  N   UNL     1     -10.142  10.779  67.748  1.00  0.00    -0.170 N  
HETATM    8  CA  UNL     1     -10.971  11.178  69.618  1.00  0.00    -0.192 C  
HETATM    9  C   UNL     1     -10.129  10.524  65.248  1.00  0.00    -0.300 C  
HETATM   10  O   UNL     1     -11.079  11.471  65.150  1.00  0.00    -0.271 OA 
HETATM   11  O   UNL     1     -12.207  11.765  67.397  1.00  0.00    -0.501 OA 
HETATM   12  C   UNL     1     -11.304  11.368  68.097  1.00  0.00    -0.304 C  
ENDROOT
BRANCH   4  13
HETATM   13  C   UNL     1      -7.732   8.773  65.597  1.00  0.00    -0.091 C  
BRANCH  13  14
HETATM   14  O   UNL     1      -7.478   7.382  65.892  1.00  0.00    -0.076 OA 
BRANCH  14  15
HETATM   15  C   UNL     1      -8.445   6.496  65.531  1.00  0.00    -0.136 C  
HETATM   16  C   UNL     1      -8.107   5.849  64.222  1.00  0.00    -0.119 C  
HETATM   17  O   UNL     1      -9.436   6.210  66.189  1.00  0.00    -0.147 OA 
ENDBRANCH  14  15
ENDBRANCH  13  14
ENDBRANCH   4  13
BRANCH   8  18
HETATM   18  N   UNL     1     -11.706  10.084  70.293  1.00  0.00    -0.331 N  
HETATM   19  H   UNL     1     -11.470   9.127  70.034  1.00  0.00     0.000 HD 
HETATM   20  C   UNL     1     -12.684  10.262  71.243  1.00  0.00    -0.421 C  
HETATM   21  O   UNL     1     -13.019  11.364  71.664  1.00  0.00    -0.448 OA 
BRANCH  20  22
HETATM   22  CA  UNL     1     -13.310   8.924  71.718  1.00  0.00    -0.386 C  
HETATM   23  H2  UNL     1     -14.727   9.892  72.932  1.00  0.00     0.000 HD 
HETATM   24  N   UNL     1     -14.035   9.146  73.003  1.00  0.00    -1.110 NA 
HETATM   25  H1  UNL     1     -14.447   8.267  73.315  1.00  0.00     0.000 HD 
BRANCH  22  26
HETATM   26  C   UNL     1     -12.263   7.833  71.841  1.00  0.00    -0.341 A  
HETATM   27  C   UNL     1     -11.407   7.825  72.955  1.00  0.00    -0.406 A  
HETATM   28  C   UNL     1     -10.426   6.841  73.095  1.00  0.00    -0.296 A  
HETATM   29  C   UNL     1     -10.293   5.845  72.130  1.00  0.00    -0.241 A  
HETATM   30  C   UNL     1     -11.148   5.823  71.032  1.00  0.00    -0.264 A  
HETATM   31  C   UNL     1     -12.131   6.806  70.892  1.00  0.00    -0.421 A  
ENDBRANCH  22  26
ENDBRANCH  20  22
ENDBRANCH   8  18
TORSDOF 6
ENDMDL
MODEL       34
REMARK 921   NORMALIZED FREE ENERGY PREDICTED BY IDOCK:   -5.91 KCAL/MOL
REMARK 922        TOTAL FREE ENERGY PREDICTED BY IDOCK:   -9.02 KCAL/MOL
REMARK 923 INTER-LIGAND FREE ENERGY PREDICTED BY IDOCK:   -8.22 KCAL/MOL
REMARK 924 INTRA-LIGAND FREE ENERGY PREDICTED BY IDOCK:   -0.80 KCAL/MOL
REMARK 927      BINDING AFFINITY PREDICTED BY RF-SCORE:    0.00 PKD
ROOT
HETATM    1  C   UNL     1     -12.074  13.554  67.162  1.00  0.00    -0.340 C  
HETATM    2  S   UNL     1     -10.862  13.308  68.480  1.00  0.00    -0.271 SA 
HETATM    3  C   UNL     1     -10.897  15.029  69.000  1.00  0.00    -0.242 C  
HETATM    4  C   UNL     1     -10.806  16.050  67.880  1.00  0.00    -0.333 C  
HETATM    5  OXT UNL     1     -10.294  17.907  65.738  1.00  0.00    -0.577 OA 
HETATM    6  CA  UNL     1     -11.108  15.787  66.574  1.00  0.00    -0.079 C  
HETATM    7  N   UNL     1     -11.576  14.546  66.228  1.00  0.00    -0.363 N  
HETATM    8  CA  UNL     1     -11.998  12.520  65.990  1.00  0.00    -0.392 C  
HETATM    9  C   UNL     1     -10.847  16.841  65.509  1.00  0.00    -0.129 C  
HETATM   10  O   UNL     1     -11.323  16.601  64.274  1.00  0.00    -1.116 OA 
HETATM   11  O   UNL     1     -11.612  14.107  63.955  1.00  0.00    -0.280 OA 
HETATM   12  C   UNL     1     -11.737  13.797  65.118  1.00  0.00    -0.343 C  
ENDROOT
BRANCH   4  13
HETATM   13  C   UNL     1     -10.247  17.381  68.386  1.00  0.00    -0.362 C  
BRANCH  13  14
HETATM   14  O   UNL     1      -8.827  17.270  68.626  1.00  0.00    -0.266 OA 
BRANCH  14  15
HETATM   15  C   UNL     1      -8.097  18.411  68.503  1.00  0.00    -0.319 C  
HETATM   16  C   UNL     1      -6.789  18.131  67.825  1.00  0.00    -0.202 C  
HETATM   17  O   UNL     1      -8.455  19.530  68.843  1.00  0.00    -0.358 OA 
ENDBRANCH  14  15
ENDBRANCH  13  14
ENDBRANCH   4  13
BRANCH   8  18
HETATM   18  N   UNL     1     -10.867  11.567  66.067  1.00  0.00    -0.286 N  
HETATM   19  H   UNL     1     -10.488  11.358  66.991  1.00  0.00     0.000 HD 
HETATM   20  C   UNL     1     -10.288  10.941  64.988  1.00  0.00    -0.288 C  
HETATM   21  O   UNL     1     -10.689  11.081  63.838  1.00  0.00    -0.369 OA 
BRANCH  20  22
HETATM   22  CA  UNL     1      -9.085  10.047  65.386  1.00  0.00    -0.193 C  
HETATM   23  H2  UNL     1      -9.897   8.349  64.451  1.00  0.00     0.000 HD 
HETATM   24  N   UNL     1      -9.500   8.615  65.352  1.00  0.00    -0.436 NA 
HETATM   25  H1  UNL     1      -8.709   8.027  65.613  1.00  0.00     0.000 HD 
BRANCH  22  26
HETATM   26  C   UNL     1      -8.523  10.441  66.739  1.00  0.00    -0.125 A  
HETATM   27  C   UNL     1      -7.695  11.571  66.836  1.00  0.00    -0.157 A  
HETATM   28  C   UNL     1      -7.154  11.957  68.065  1.00  0.00    -0.084 A  
HETATM   29  C   UNL     1      -7.441  11.225  69.215  1.00  0.00    -0.040 A  
HETATM   30  C   UNL     1      -8.279  10.116  69.142  1.00  0.00    -0.145 A  
HETATM   31  C   UNL     1      -8.823   9.731  67.914  1.00  0.00    -0.122 A  
ENDBRANCH  22  26
ENDBRANCH  20  22
ENDBRANCH   8  18
TORSDOF 6
ENDMDL
MODEL       35
REMARK 921   NORMALIZED FREE ENERGY PREDICTED BY IDOCK:   -5.89 KCAL/MOL
REMARK 922        TOTAL FREE ENERGY PREDICTED BY IDOCK:   -9.00 KCAL/MOL
REMARK 923 INTER-LIGAND FREE ENERGY PREDICTED BY IDOCK:   -8.27 KCAL/MOL
REMARK 924 INTRA-LIGAND FREE ENERGY PREDICTED BY IDOCK:   -0.73 KCAL/MOL
REMARK 927      BINDING AFFINITY PREDICTED BY RF-SCORE:    0.00 PKD
ROOT
HETATM    1  C   UNL     1     -11.157  16.526  67.619  1.00  0.00    -0.127 C  
HETATM    2  S   UNL     1     -10.147  16.282  66.140  1.00  0.00    -0.362 SA 
HETATM    3  C   UNL     1     -11.211  14.991  65.478  1.00  0.00    -0.344 C  
HETATM    4  C   UNL     1     -11.624  13.916  66.467  1.00  0.00    -0.385 C  
HETATM    5  OXT UNL     1     -12.083  11.750  68.310  1.00  0.00    -0.525 OA 
HETATM    6  CA  UNL     1     -11.602  14.071  67.824  1.00  0.00    -0.345 C  
HETATM    7  N   UNL     1     -11.239  15.280  68.358  1.00  0.00    -0.293 N  
HETATM    8  CA  UNL     1     -10.397  17.121  68.850  1.00  0.00    -0.348 C  
HETATM    9  C   UNL     1     -11.901  12.884  68.728  1.00  0.00    -0.315 C  
HETATM   10  O   UNL     1     -12.040  13.129  70.043  1.00  0.00    -0.325 OA 
HETATM   11  O   UNL     1     -10.813  15.263  70.634  1.00  0.00    -0.300 OA 
HETATM   12  C   UNL     1     -10.841  15.786  69.543  1.00  0.00    -0.287 C  
ENDROOT
BRANCH   4  13
HETATM   13  C   UNL     1     -11.979  12.611  65.752  1.00  0.00    -0.446 C  
BRANCH  13  14
HETATM   14  O   UNL     1     -10.820  12.079  65.074  1.00  0.00    -0.286 OA 
BRANCH  14  15
HETATM   15  C   UNL     1     -10.948  11.846  63.740  1.00  0.00    -0.425 C  
HETATM   16  C   UNL     1     -12.375  12.008  63.310  1.00  0.00    -0.553 C  
HETATM   17  O   UNL     1     -10.035  11.590  62.967  1.00  0.00    -0.365 OA 
ENDBRANCH  14  15
ENDBRANCH  13  14
ENDBRANCH   4  13
BRANCH   8  18
HETATM   18  N   UNL     1      -8.936  17.282  68.667  1.00  0.00    -0.274 N  
HETATM   19  H   UNL     1      -8.368  16.435  68.640  1.00  0.00     0.000 HD 
HETATM   20  C   UNL     1      -8.286  18.485  68.532  1.00  0.00    -0.334 C  
HETATM   21  O   UNL     1      -8.870  19.563  68.505  1.00  0.00    -0.350 OA 
BRANCH  20  22
HETATM   22  CA  UNL     1      -6.747  18.328  68.417  1.00  0.00    -0.226 C  
HETATM   23  H2  UNL     1      -6.613  19.718  66.846  1.00  0.00     0.000 HD 
HETATM   24  N   UNL     1      -6.304  18.770  67.063  1.00  0.00    -0.179 NA 
HETATM   25  H1  UNL     1      -5.293  18.667  66.988  1.00  0.00     0.000 HD 
BRANCH  22  26
HETATM   26  C   UNL     1      -6.310  16.907  68.720  1.00  0.00    -0.168 A  
HETATM   27  C   UNL     1      -6.158  15.996  67.663  1.00  0.00    -0.180 A  
HETATM   28  C   UNL     1      -5.765  14.678  67.907  1.00  0.00    -0.129 A  
HETATM   29  C   UNL     1      -5.508  14.255  69.209  1.00  0.00    -0.081 A  
HETATM   30  C   UNL     1      -5.630  15.151  70.267  1.00  0.00    -0.136 A  
HETATM   31  C   UNL     1      -6.020  16.470  70.024  1.00  0.00    -0.179 A  
ENDBRANCH  22  26
ENDBRANCH  20  22
ENDBRANCH   8  18
TORSDOF 6
ENDMDL
MODEL       36
REMARK 921   NORMALIZED FREE ENERGY PREDICTED BY IDOCK:   -5.86 KCAL/MOL
REMARK 922        TOTAL FREE ENERGY PREDICTED BY IDOCK:   -8.95 KCAL/MOL
REMARK 923 INTER-LIGAND FREE ENERGY PREDICTED BY IDOCK:   -8.01 KCAL/MOL
REMARK 924 INTRA-LIGAND FREE ENERGY PREDICTED BY IDOCK:   -0.93 KCAL/MOL
REMARK 927      BINDING AFFINITY PREDICTED BY RF-SCORE:    0.00 PKD
ROOT
HETATM    1  C   UNL     1      -9.448  10.989  67.716  1.00  0.00    -0.162 C  
HETATM    2  S   UNL     1     -11.170  10.698  68.179  1.00  0.00    -0.281 SA 
HETATM    3  C   UNL     1     -11.808  11.967  67.075  1.00  0.00    -0.176 C  
HETATM    4  C   UNL     1     -11.081  13.299  67.124  1.00  0.00    -0.308 C  
HETATM    5  OXT UNL     1      -9.866  15.881  67.520  1.00  0.00    -0.227 OA 
HETATM    6  CA  UNL     1      -9.809  13.463  67.593  1.00  0.00    -0.226 C  
HETATM    7  N   UNL     1      -9.097  12.367  68.005  1.00  0.00    -0.190 N  
HETATM    8  CA  UNL     1      -8.393  10.571  68.794  1.00  0.00    -0.136 C  
HETATM    9  C   UNL     1      -9.225  14.861  67.730  1.00  0.00    -0.186 C  
HETATM   10  O   UNL     1      -7.917  14.958  68.026  1.00  0.00    -0.117 OA 
HETATM   11  O   UNL     1      -7.159  12.837  69.181  1.00  0.00    -0.068 OA 
HETATM   12  C   UNL     1      -7.998  12.088  68.736  1.00  0.00    -0.014 C  
ENDROOT
BRANCH   4  13
HETATM   13  C   UNL     1     -11.987  14.443  66.666  1.00  0.00    -0.392 C  
BRANCH  13  14
HETATM   14  O   UNL     1     -12.803  14.022  65.551  1.00  0.00    -0.615 OA 
BRANCH  14  15
HETATM   15  C   UNL     1     -12.371  14.378  64.311  1.00  0.00    -0.373 C  
HETATM   16  C   UNL     1     -11.954  13.169  63.529  1.00  0.00    -0.580 C  
HETATM   17  O   UNL     1     -12.363  15.512  63.855  1.00  0.00    -0.653 OA 
ENDBRANCH  14  15
ENDBRANCH  13  14
ENDBRANCH   4  13
BRANCH   8  18
HETATM   18  N   UNL     1      -8.960  10.116  70.084  1.00  0.00    -0.349 N  
HETATM   19  H   UNL     1      -9.407  10.816  70.676  1.00  0.00     0.000 HD 
HETATM   20  C   UNL     1      -8.930   8.821  70.544  1.00  0.00    -0.177 C  
HETATM   21  O   UNL     1      -8.461   7.890  69.899  1.00  0.00    -0.125 OA 
BRANCH  20  22
HETATM   22  CA  UNL     1      -9.553   8.671  71.957  1.00  0.00    -0.314 C  
HETATM   23  H2  UNL     1      -7.797   7.842  72.762  1.00  0.00     0.000 HD 
HETATM   24  N   UNL     1      -8.796   7.639  72.724  1.00  0.00    -0.140 NA 
HETATM   25  H1  UNL     1      -9.205   7.541  73.653  1.00  0.00     0.000 HD 
BRANCH  22  26
HETATM   26  C   UNL     1     -11.033   8.346  71.881  1.00  0.00    -0.375 A  
HETATM   27  C   UNL     1     -11.439   7.004  71.810  1.00  0.00    -0.301 A  
HETATM   28  C   UNL     1     -12.793   6.669  71.731  1.00  0.00    -0.231 A  
HETATM   29  C   UNL     1     -13.760   7.671  71.730  1.00  0.00    -0.408 A  
HETATM   30  C   UNL     1     -13.378   9.006  71.822  1.00  0.00    -0.453 A  
HETATM   31  C   UNL     1     -12.025   9.342  71.905  1.00  0.00    -0.433 A  
ENDBRANCH  22  26
ENDBRANCH  20  22
ENDBRANCH   8  18
TORSDOF 6
ENDMDL
MODEL       37
REMARK 921   NORMALIZED FREE ENERGY PREDICTED BY IDOCK:   -5.78 KCAL/MOL
REMARK 922        TOTAL FREE ENERGY PREDICTED BY IDOCK:   -8.84 KCAL/MOL
REMARK 923 INTER-LIGAND FREE ENERGY PREDICTED BY IDOCK:   -7.99 KCAL/MOL
REMARK 924 INTRA-LIGAND FREE ENERGY PREDICTED BY IDOCK:   -0.85 KCAL/MOL
REMARK 927      BINDING AFFINITY PREDICTED BY RF-SCORE:    0.00 PKD
ROOT
HETATM    1  C   UNL     1     -11.662  11.999  68.159  1.00  0.00    -0.333 C  
HETATM    2  S   UNL     1     -11.887  11.516  69.886  1.00  0.00    -0.361 SA 
HETATM    3  C   UNL     1     -12.596  13.098  70.364  1.00  0.00    -0.116 C  
HETATM    4  C   UNL     1     -11.849  14.323  69.867  1.00  0.00    -0.382 C  
HETATM    5  OXT UNL     1     -10.195  16.577  69.173  1.00  0.00    -0.263 OA 
HETATM    6  CA  UNL     1     -10.986  14.320  68.808  1.00  0.00    -0.255 C  
HETATM    7  N   UNL     1     -10.802  13.165  68.094  1.00  0.00    -0.243 N  
HETATM    8  CA  UNL     1     -10.540  11.220  67.395  1.00  0.00    -0.224 C  
HETATM    9  C   UNL     1     -10.182  15.569  68.481  1.00  0.00    -0.215 C  
HETATM   10  O   UNL     1      -9.485  15.572  67.331  1.00  0.00    -0.209 OA 
HETATM   11  O   UNL     1      -9.002  13.186  66.637  1.00  0.00    -0.210 OA 
HETATM   12  C   UNL     1      -9.922  12.649  67.211  1.00  0.00    -0.212 C  
ENDROOT
BRANCH   4  13
HETATM   13  C   UNL     1     -12.116  15.536  70.760  1.00  0.00    -0.390 C  
BRANCH  13  14
HETATM   14  O   UNL     1     -11.570  15.317  72.080  1.00  0.00    -0.401 OA 
BRANCH  14  15
HETATM   15  C   UNL     1     -12.439  15.416  73.122  1.00  0.00    -0.456 C  
HETATM   16  C   UNL     1     -13.825  15.709  72.630  1.00  0.00    -0.648 C  
HETATM   17  O   UNL     1     -12.164  15.244  74.301  1.00  0.00    -0.630 OA 
ENDBRANCH  14  15
ENDBRANCH  13  14
ENDBRANCH   4  13
BRANCH   8  18
HETATM   18  N   UNL     1      -9.743  10.290  68.227  1.00  0.00    -0.140 N  
HETATM   19  H   UNL     1      -9.103  10.698  68.908  1.00  0.00     0.000 HD 
HETATM   20  C   UNL     1      -9.800   8.919  68.152  1.00  0.00    -0.167 C  
HETATM   21  O   UNL     1     -10.564   8.319  67.403  1.00  0.00    -0.284 OA 
BRANCH  20  22
HETATM   22  CA  UNL     1      -8.800   8.222  69.111  1.00  0.00    -0.143 C  
HETATM   23  H2  UNL     1      -7.523   7.652  67.541  1.00  0.00     0.000 HD 
HETATM   24  N   UNL     1      -7.988   7.231  68.345  1.00  0.00    -0.122 NA 
HETATM   25  H1  UNL     1      -7.331   6.773  68.976  1.00  0.00     0.000 HD 
BRANCH  22  26
HETATM   26  C   UNL     1      -9.512   7.581  70.287  1.00  0.00    -0.165 A  
HETATM   27  C   UNL     1      -9.653   8.306  71.482  1.00  0.00    -0.247 A  
HETATM   28  C   UNL     1     -10.296   7.743  72.587  1.00  0.00    -0.352 A  
HETATM   29  C   UNL     1     -10.815   6.453  72.511  1.00  0.00    -0.268 A  
HETATM   30  C   UNL     1     -10.706   5.729  71.327  1.00  0.00    -0.323 A  
HETATM   31  C   UNL     1     -10.066   6.291  70.220  1.00  0.00    -0.226 A  
ENDBRANCH  22  26
ENDBRANCH  20  22
ENDBRANCH   8  18
TORSDOF 6
ENDMDL
MODEL       38
REMARK 921   NORMALIZED FREE ENERGY PREDICTED BY IDOCK:   -5.76 KCAL/MOL
REMARK 922        TOTAL FREE ENERGY PREDICTED BY IDOCK:   -8.82 KCAL/MOL
REMARK 923 INTER-LIGAND FREE ENERGY PREDICTED BY IDOCK:   -7.71 KCAL/MOL
REMARK 924 INTRA-LIGAND FREE ENERGY PREDICTED BY IDOCK:   -1.12 KCAL/MOL
REMARK 927      BINDING AFFINITY PREDICTED BY RF-SCORE:    0.00 PKD
ROOT
HETATM    1  C   UNL     1     -11.302  14.276  67.304  1.00  0.00    -0.334 C  
HETATM    2  S   UNL     1     -11.498  14.594  65.536  1.00  0.00    -0.329 SA 
HETATM    3  C   UNL     1     -11.137  12.895  65.066  1.00  0.00    -0.292 C  
HETATM    4  C   UNL     1      -9.922  12.278  65.735  1.00  0.00    -0.273 C  
HETATM    5  OXT UNL     1      -7.424  11.303  66.787  1.00  0.00    -0.138 OA 
HETATM    6  CA  UNL     1      -9.372  12.734  66.899  1.00  0.00    -0.234 C  
HETATM    7  N   UNL     1      -9.963  13.780  67.559  1.00  0.00    -0.230 N  
HETATM    8  CA  UNL     1     -10.923  15.527  68.164  1.00  0.00    -0.312 C  
HETATM    9  C   UNL     1      -8.072  12.132  67.410  1.00  0.00    -0.171 C  
HETATM   10  O   UNL     1      -7.668  12.488  68.642  1.00  0.00    -0.120 OA 
HETATM   11  O   UNL     1      -8.689  14.725  69.246  1.00  0.00    -0.130 OA 
HETATM   12  C   UNL     1      -9.655  14.676  68.520  1.00  0.00    -0.221 C  
ENDROOT
BRANCH   4  13
HETATM   13  C   UNL     1      -9.341  11.143  64.891  1.00  0.00    -0.194 C  
BRANCH  13  14
HETATM   14  O   UNL     1     -10.119   9.939  65.067  1.00  0.00    -0.286 OA 
BRANCH  14  15
HETATM   15  C   UNL     1      -9.565   8.961  65.834  1.00  0.00    -0.223 C  
HETATM   16  C   UNL     1     -10.275   8.856  67.150  1.00  0.00    -0.339 C  
HETATM   17  O   UNL     1      -8.650   8.222  65.500  1.00  0.00    -0.157 OA 
ENDBRANCH  14  15
ENDBRANCH  13  14
ENDBRANCH   4  13
BRANCH   8  18
HETATM   18  N   UNL     1     -10.658  16.762  67.392  1.00  0.00    -0.315 N  
HETATM   19  H   UNL     1     -10.732  16.708  66.376  1.00  0.00     0.000 HD 
HETATM   20  C   UNL     1     -10.320  17.977  67.940  1.00  0.00    -0.392 C  
HETATM   21  O   UNL     1     -10.246  18.170  69.148  1.00  0.00    -0.344 OA 
BRANCH  20  22
HETATM   22  CA  UNL     1     -10.046  19.064  66.868  1.00  0.00    -0.371 C  
HETATM   23  H2  UNL     1     -11.621  18.408  65.642  1.00  0.00     0.000 HD 
HETATM   24  N   UNL     1     -10.629  18.633  65.565  1.00  0.00    -0.550 NA 
HETATM   25  H1  UNL     1     -10.449  19.347  64.860  1.00  0.00     0.000 HD 
BRANCH  22  26
HETATM   26  C   UNL     1      -8.564  19.368  66.751  1.00  0.00    -0.336 A  
HETATM   27  C   UNL     1      -8.080  20.608  67.197  1.00  0.00    -0.308 A  
HETATM   28  C   UNL     1      -6.723  20.924  67.096  1.00  0.00    -0.410 A  
HETATM   29  C   UNL     1      -5.829  20.001  66.558  1.00  0.00    -0.182 A  
HETATM   30  C   UNL     1      -6.287  18.758  66.133  1.00  0.00    -0.227 A  
HETATM   31  C   UNL     1      -7.643  18.439  66.235  1.00  0.00    -0.289 A  
ENDBRANCH  22  26
ENDBRANCH  20  22
ENDBRANCH   8  18
TORSDOF 6
ENDMDL
MODEL       39
REMARK 921   NORMALIZED FREE ENERGY PREDICTED BY IDOCK:   -5.69 KCAL/MOL
REMARK 922        TOTAL FREE ENERGY PREDICTED BY IDOCK:   -8.73 KCAL/MOL
REMARK 923 INTER-LIGAND FREE ENERGY PREDICTED BY IDOCK:   -7.91 KCAL/MOL
REMARK 924 INTRA-LIGAND FREE ENERGY PREDICTED BY IDOCK:   -0.82 KCAL/MOL
REMARK 927      BINDING AFFINITY PREDICTED BY RF-SCORE:    0.00 PKD
ROOT
HETATM    1  C   UNL     1      -9.639  10.787  68.646  1.00  0.00    -0.187 C  
HETATM    2  S   UNL     1      -9.272   9.018  68.632  1.00  0.00    -0.136 SA 
HETATM    3  C   UNL     1      -8.496   9.068  67.010  1.00  0.00    -0.120 C  
HETATM    4  C   UNL     1      -9.263   9.831  65.945  1.00  0.00    -0.236 C  
HETATM    5  OXT UNL     1     -10.932  11.004  63.911  1.00  0.00    -0.307 OA 
HETATM    6  CA  UNL     1     -10.215  10.774  66.211  1.00  0.00    -0.245 C  
HETATM    7  N   UNL     1     -10.481  11.114  67.511  1.00  0.00    -0.195 N  
HETATM    8  CA  UNL     1     -10.837  11.208  69.562  1.00  0.00    -0.188 C  
HETATM    9  C   UNL     1     -11.023  11.377  65.072  1.00  0.00    -0.204 C  
HETATM   10  O   UNL     1     -11.818  12.422  65.364  1.00  0.00    -0.387 OA 
HETATM   11  O   UNL     1     -12.401  12.370  67.827  1.00  0.00    -0.281 OA 
HETATM   12  C   UNL     1     -11.443  11.741  68.218  1.00  0.00    -0.307 C  
ENDROOT
BRANCH   4  13
HETATM   13  C   UNL     1      -8.898   9.343  64.542  1.00  0.00    -0.198 C  
BRANCH  13  14
HETATM   14  O   UNL     1      -7.463   9.313  64.379  1.00  0.00    -0.101 OA 
BRANCH  14  15
HETATM   15  C   UNL     1      -6.960   9.952  63.288  1.00  0.00    -0.126 C  
HETATM   16  C   UNL     1      -5.515   9.604  63.092  1.00  0.00    -0.082 C  
HETATM   17  O   UNL     1      -7.589  10.674  62.528  1.00  0.00    -0.146 OA 
ENDBRANCH  14  15
ENDBRANCH  13  14
ENDBRANCH   4  13
BRANCH   8  18
HETATM   18  N   UNL     1     -11.574  10.086  70.186  1.00  0.00    -0.326 N  
HETATM   19  H   UNL     1     -11.279   9.138  69.950  1.00  0.00     0.000 HD 
HETATM   20  C   UNL     1     -12.626  10.223  71.060  1.00  0.00    -0.390 C  
HETATM   21  O   UNL     1     -13.037  11.310  71.450  1.00  0.00    -0.388 OA 
BRANCH  20  22
HETATM   22  CA  UNL     1     -13.229   8.861  71.494  1.00  0.00    -0.327 C  
HETATM   23  H2  UNL     1     -14.758   9.770  72.613  1.00  0.00     0.000 HD 
HETATM   24  N   UNL     1     -14.044   9.052  72.729  1.00  0.00    -1.035 NA 
HETATM   25  H1  UNL     1     -14.440   8.156  73.014  1.00  0.00     0.000 HD 
BRANCH  22  26
HETATM   26  C   UNL     1     -12.150   7.811  71.684  1.00  0.00    -0.335 A  
HETATM   27  C   UNL     1     -11.907   6.882  70.660  1.00  0.00    -0.418 A  
HETATM   28  C   UNL     1     -10.927   5.897  70.806  1.00  0.00    -0.343 A  
HETATM   29  C   UNL     1     -10.170   5.833  71.973  1.00  0.00    -0.245 A  
HETATM   30  C   UNL     1     -10.381   6.760  72.990  1.00  0.00    -0.252 A  
HETATM   31  C   UNL     1     -11.358   7.747  72.844  1.00  0.00    -0.406 A  
ENDBRANCH  22  26
ENDBRANCH  20  22
ENDBRANCH   8  18
TORSDOF 6
ENDMDL
MODEL       40
REMARK 921   NORMALIZED FREE ENERGY PREDICTED BY IDOCK:   -5.69 KCAL/MOL
REMARK 922        TOTAL FREE ENERGY PREDICTED BY IDOCK:   -8.72 KCAL/MOL
REMARK 923 INTER-LIGAND FREE ENERGY PREDICTED BY IDOCK:   -7.92 KCAL/MOL
REMARK 924 INTRA-LIGAND FREE ENERGY PREDICTED BY IDOCK:   -0.80 KCAL/MOL
REMARK 927      BINDING AFFINITY PREDICTED BY RF-SCORE:    0.00 PKD
ROOT
HETATM    1  C   UNL     1      -9.036  10.875  68.429  1.00  0.00    -0.154 C  
HETATM    2  S   UNL     1      -8.776  10.167  66.787  1.00  0.00    -0.125 SA 
HETATM    3  C   UNL     1      -8.804  11.765  65.960  1.00  0.00    -0.057 C  
HETATM    4  C   UNL     1      -9.938  12.688  66.367  1.00  0.00    -0.262 C  
HETATM    5  OXT UNL     1     -12.298  14.237  66.945  1.00  0.00    -0.408 OA 
HETATM    6  CA  UNL     1     -10.638  12.577  67.535  1.00  0.00    -0.220 C  
HETATM    7  N   UNL     1     -10.284  11.614  68.443  1.00  0.00    -0.202 N  
HETATM    8  CA  UNL     1      -9.683   9.906  69.473  1.00  0.00    -0.220 C  
HETATM    9  C   UNL     1     -11.848  13.466  67.781  1.00  0.00    -0.358 C  
HETATM   10  O   UNL     1     -12.391  13.442  69.011  1.00  0.00    -0.216 OA 
HETATM   11  O   UNL     1     -11.816  11.252  70.141  1.00  0.00    -0.310 OA 
HETATM   12  C   UNL     1     -10.807  10.998  69.523  1.00  0.00    -0.216 C  
ENDROOT
BRANCH   4  13
HETATM   13  C   UNL     1     -10.255  13.698  65.262  1.00  0.00    -0.323 C  
BRANCH  13  14
HETATM   14  O   UNL     1     -10.677  13.014  64.063  1.00  0.00    -0.400 OA 
BRANCH  14  15
HETATM   15  C   UNL     1     -11.976  13.174  63.694  1.00  0.00    -0.514 C  
HETATM   16  C   UNL     1     -12.650  11.843  63.540  1.00  0.00    -0.579 C  
HETATM   17  O   UNL     1     -12.553  14.243  63.552  1.00  0.00    -0.814 OA 
ENDBRANCH  14  15
ENDBRANCH  13  14
ENDBRANCH   4  13
BRANCH   8  18
HETATM   18  N   UNL     1     -10.103   8.592  68.933  1.00  0.00    -0.197 N  
HETATM   19  H   UNL     1     -11.024   8.534  68.498  1.00  0.00     0.000 HD 
HETATM   20  C   UNL     1      -9.347   7.445  68.974  1.00  0.00    -0.145 C  
HETATM   21  O   UNL     1      -8.210   7.407  69.430  1.00  0.00    -0.127 OA 
BRANCH  20  22
HETATM   22  CA  UNL     1     -10.086   6.217  68.381  1.00  0.00    -0.158 C  
HETATM   23  H2  UNL     1     -11.646   7.392  67.606  1.00  0.00     0.000 HD 
HETATM   24  N   UNL     1     -11.524   6.555  68.177  1.00  0.00    -0.579 NA 
HETATM   25  H1  UNL     1     -12.010   5.748  67.787  1.00  0.00     0.000 HD 
BRANCH  22  26
HETATM   26  C   UNL     1      -9.913   4.989  69.256  1.00  0.00    -0.277 A  
HETATM   27  C   UNL     1     -10.207   5.075  70.626  1.00  0.00    -0.306 A  
HETATM   28  C   UNL     1     -10.051   3.966  71.462  1.00  0.00    -0.148 A  
HETATM   29  C   UNL     1      -9.608   2.754  70.938  1.00  0.00    -0.202 A  
HETATM   30  C   UNL     1      -9.334   2.644  69.578  1.00  0.00    -0.184 A  
HETATM   31  C   UNL     1      -9.492   3.751  68.741  1.00  0.00    -0.220 A  
ENDBRANCH  22  26
ENDBRANCH  20  22
ENDBRANCH   8  18
TORSDOF 6
ENDMDL
MODEL       41
REMARK 921   NORMALIZED FREE ENERGY PREDICTED BY IDOCK:   -5.69 KCAL/MOL
REMARK 922        TOTAL FREE ENERGY PREDICTED BY IDOCK:   -8.72 KCAL/MOL
REMARK 923 INTER-LIGAND FREE ENERGY PREDICTED BY IDOCK:   -7.97 KCAL/MOL
REMARK 924 INTRA-LIGAND FREE ENERGY PREDICTED BY IDOCK:   -0.75 KCAL/MOL
REMARK 927      BINDING AFFINITY PREDICTED BY RF-SCORE:    0.00 PKD
ROOT
HETATM    1  C   UNL     1     -10.537  12.901  66.341  1.00  0.00    -0.271 C  
HETATM    2  S   UNL     1     -11.877  13.824  67.126  1.00  0.00    -0.411 SA 
HETATM    3  C   UNL     1     -11.216  15.428  66.652  1.00  0.00    -0.175 C  
HETATM    4  C   UNL     1      -9.731  15.620  66.903  1.00  0.00    -0.240 C  
HETATM    5  OXT UNL     1      -6.996  16.018  67.716  1.00  0.00    -0.121 OA 
HETATM    6  CA  UNL     1      -8.839  14.596  67.054  1.00  0.00    -0.241 C  
HETATM    7  N   UNL     1      -9.270  13.302  66.923  1.00  0.00    -0.236 N  
HETATM    8  CA  UNL     1     -10.275  11.477  66.935  1.00  0.00    -0.217 C  
HETATM    9  C   UNL     1      -7.399  14.897  67.442  1.00  0.00    -0.193 C  
HETATM   10  O   UNL     1      -6.523  13.877  67.404  1.00  0.00    -0.299 OA 
HETATM   11  O   UNL     1      -7.773  11.689  67.642  1.00  0.00    -0.119 OA 
HETATM   12  C   UNL     1      -8.849  12.058  67.228  1.00  0.00    -0.183 C  
ENDROOT
BRANCH   4  13
HETATM   13  C   UNL     1      -9.381  17.101  67.056  1.00  0.00    -0.243 C  
BRANCH  13  14
HETATM   14  O   UNL     1     -10.565  17.914  66.910  1.00  0.00    -0.338 OA 
BRANCH  14  15
HETATM   15  C   UNL     1     -10.371  19.252  66.755  1.00  0.00    -0.432 C  
HETATM   16  C   UNL     1     -10.029  19.891  68.067  1.00  0.00    -0.556 C  
HETATM   17  O   UNL     1     -10.413  19.863  65.697  1.00  0.00    -0.477 OA 
ENDBRANCH  14  15
ENDBRANCH  13  14
ENDBRANCH   4  13
BRANCH   8  18
HETATM   18  N   UNL     1     -11.078  11.140  68.133  1.00  0.00    -0.241 N  
HETATM   19  H   UNL     1     -11.757  11.830  68.455  1.00  0.00     0.000 HD 
HETATM   20  C   UNL     1     -10.979   9.968  68.844  1.00  0.00    -0.207 C  
HETATM   21  O   UNL     1     -10.232   9.050  68.523  1.00  0.00    -0.189 OA 
BRANCH  20  22
HETATM   22  CA  UNL     1     -11.910   9.937  70.084  1.00  0.00    -0.124 C  
HETATM   23  H2  UNL     1     -12.003  12.033  70.204  1.00  0.00     0.000 HD 
HETATM   24  N   UNL     1     -11.811  11.236  70.810  1.00  0.00    -0.397 NA 
HETATM   25  H1  UNL     1     -12.423  11.215  71.626  1.00  0.00     0.000 HD 
BRANCH  22  26
HETATM   26  C   UNL     1     -11.594   8.759  70.986  1.00  0.00    -0.337 A  
HETATM   27  C   UNL     1     -10.515   8.849  71.880  1.00  0.00    -0.415 A  
HETATM   28  C   UNL     1     -10.191   7.780  72.720  1.00  0.00    -0.360 A  
HETATM   29  C   UNL     1     -10.946   6.611  72.684  1.00  0.00    -0.288 A  
HETATM   30  C   UNL     1     -12.034   6.512  71.821  1.00  0.00    -0.394 A  
HETATM   31  C   UNL     1     -12.361   7.581  70.984  1.00  0.00    -0.265 A  
ENDBRANCH  22  26
ENDBRANCH  20  22
ENDBRANCH   8  18
TORSDOF 6
ENDMDL
MODEL       42
REMARK 921   NORMALIZED FREE ENERGY PREDICTED BY IDOCK:   -5.68 KCAL/MOL
REMARK 922        TOTAL FREE ENERGY PREDICTED BY IDOCK:   -8.70 KCAL/MOL
REMARK 923 INTER-LIGAND FREE ENERGY PREDICTED BY IDOCK:   -7.66 KCAL/MOL
REMARK 924 INTRA-LIGAND FREE ENERGY PREDICTED BY IDOCK:   -1.04 KCAL/MOL
REMARK 927      BINDING AFFINITY PREDICTED BY RF-SCORE:    0.00 PKD
ROOT
HETATM    1  C   UNL     1     -11.812  12.619  66.443  1.00  0.00    -0.402 C  
HETATM    2  S   UNL     1     -10.313  12.402  65.457  1.00  0.00    -0.276 SA 
HETATM    3  C   UNL     1     -10.278  10.618  65.682  1.00  0.00    -0.253 C  
HETATM    4  C   UNL     1     -10.489  10.137  67.106  1.00  0.00    -0.305 C  
HETATM    5  OXT UNL     1     -10.563   9.328  69.871  1.00  0.00    -0.208 OA 
HETATM    6  CA  UNL     1     -11.085  10.878  68.087  1.00  0.00    -0.280 C  
HETATM    7  N   UNL     1     -11.583  12.118  67.785  1.00  0.00    -0.334 N  
HETATM    8  CA  UNL     1     -11.985  14.038  67.082  1.00  0.00    -0.430 C  
HETATM    9  C   UNL     1     -11.120  10.356  69.516  1.00  0.00    -0.264 C  
HETATM   10  O   UNL     1     -11.869  11.036  70.403  1.00  0.00    -0.317 OA 
HETATM   11  O   UNL     1     -12.147  13.424  69.612  1.00  0.00    -0.312 OA 
HETATM   12  C   UNL     1     -11.980  13.235  68.428  1.00  0.00    -0.301 C  
ENDROOT
BRANCH   4  13
HETATM   13  C   UNL     1      -9.868   8.756  67.324  1.00  0.00    -0.201 C  
BRANCH  13  14
HETATM   14  O   UNL     1     -10.782   7.722  66.897  1.00  0.00    -0.345 OA 
BRANCH  14  15
HETATM   15  C   UNL     1     -10.412   6.438  67.153  1.00  0.00    -0.277 C  
HETATM   16  C   UNL     1      -9.430   6.386  68.284  1.00  0.00    -0.121 C  
HETATM   17  O   UNL     1     -10.845   5.443  66.589  1.00  0.00    -0.277 OA 
ENDBRANCH  14  15
ENDBRANCH  13  14
ENDBRANCH   4  13
BRANCH   8  18
HETATM   18  N   UNL     1     -10.839  14.956  66.890  1.00  0.00    -0.313 N  
HETATM   19  H   UNL     1     -10.161  14.720  66.165  1.00  0.00     0.000 HD 
HETATM   20  C   UNL     1     -10.617  16.102  67.616  1.00  0.00    -0.315 C  
HETATM   21  O   UNL     1     -11.387  16.508  68.480  1.00  0.00    -0.356 OA 
BRANCH  20  22
HETATM   22  CA  UNL     1      -9.299  16.818  67.221  1.00  0.00    -0.231 C  
HETATM   23  H2  UNL     1      -9.980  17.237  65.277  1.00  0.00     0.000 HD 
HETATM   24  N   UNL     1      -9.166  16.827  65.735  1.00  0.00    -0.518 NA 
HETATM   25  H1  UNL     1      -8.300  17.298  65.476  1.00  0.00     0.000 HD 
BRANCH  22  26
HETATM   26  C   UNL     1      -8.098  16.180  67.893  1.00  0.00    -0.152 A  
HETATM   27  C   UNL     1      -6.899  16.048  67.173  1.00  0.00    -0.223 A  
HETATM   28  C   UNL     1      -5.776  15.458  67.758  1.00  0.00    -0.138 A  
HETATM   29  C   UNL     1      -5.832  15.001  69.072  1.00  0.00    -0.096 A  
HETATM   30  C   UNL     1      -7.004  15.145  69.809  1.00  0.00    -0.174 A  
HETATM   31  C   UNL     1      -8.127  15.737  69.226  1.00  0.00    -0.241 A  
ENDBRANCH  22  26
ENDBRANCH  20  22
ENDBRANCH   8  18
TORSDOF 6
ENDMDL
MODEL       43
REMARK 921   NORMALIZED FREE ENERGY PREDICTED BY IDOCK:   -5.66 KCAL/MOL
REMARK 922        TOTAL FREE ENERGY PREDICTED BY IDOCK:   -8.68 KCAL/MOL
REMARK 923 INTER-LIGAND FREE ENERGY PREDICTED BY IDOCK:   -7.53 KCAL/MOL
REMARK 924 INTRA-LIGAND FREE ENERGY PREDICTED BY IDOCK:   -1.14 KCAL/MOL
REMARK 927      BINDING AFFINITY PREDICTED BY RF-SCORE:    0.00 PKD
ROOT
HETATM    1  C   UNL     1      -8.209  14.792  69.413  1.00  0.00    -0.012 C  
HETATM    2  S   UNL     1      -9.674  15.808  69.116  1.00  0.00    -0.265 SA 
HETATM    3  C   UNL     1     -10.773  14.393  68.954  1.00  0.00    -0.253 C  
HETATM    4  C   UNL     1     -10.265  13.273  68.063  1.00  0.00    -0.240 C  
HETATM    5  OXT UNL     1      -9.382  11.356  66.102  1.00  0.00    -0.203 OA 
HETATM    6  CA  UNL     1      -8.951  13.084  67.740  1.00  0.00    -0.191 C  
HETATM    7  N   UNL     1      -8.000  13.908  68.282  1.00  0.00    -0.139 N  
HETATM    8  CA  UNL     1      -6.848  15.469  69.042  1.00  0.00    -0.139 C  
HETATM    9  C   UNL     1      -8.565  12.017  66.726  1.00  0.00    -0.177 C  
HETATM   10  O   UNL     1      -7.255  11.752  66.577  1.00  0.00    -0.038 OA 
HETATM   11  O   UNL     1      -5.903  13.762  67.309  1.00  0.00    -0.326 OA 
HETATM   12  C   UNL     1      -6.713  14.250  68.065  1.00  0.00    -0.148 C  
ENDROOT
BRANCH   4  13
HETATM   13  C   UNL     1     -11.421  12.444  67.501  1.00  0.00    -0.346 C  
BRANCH  13  14
HETATM   14  O   UNL     1     -12.263  11.967  68.573  1.00  0.00    -0.391 OA 
BRANCH  14  15
HETATM   15  C   UNL     1     -11.785  10.926  69.307  1.00  0.00    -0.324 C  
HETATM   16  C   UNL     1     -12.369  10.941  70.688  1.00  0.00    -0.470 C  
HETATM   17  O   UNL     1     -11.026  10.055  68.905  1.00  0.00    -0.225 OA 
ENDBRANCH  14  15
ENDBRANCH  13  14
ENDBRANCH   4  13
BRANCH   8  18
HETATM   18  N   UNL     1      -6.963  16.792  68.387  1.00  0.00    -0.164 N  
HETATM   19  H   UNL     1      -7.419  16.829  67.476  1.00  0.00     0.000 HD 
HETATM   20  C   UNL     1      -6.501  17.975  68.914  1.00  0.00    -0.229 C  
HETATM   21  O   UNL     1      -5.977  18.058  70.020  1.00  0.00    -0.237 OA 
BRANCH  20  22
HETATM   22  CA  UNL     1      -6.715  19.181  67.963  1.00  0.00    -0.235 C  
HETATM   23  H2  UNL     1      -5.184  20.304  68.864  1.00  0.00     0.000 HD 
HETATM   24  N   UNL     1      -6.161  20.414  68.594  1.00  0.00    -0.309 NA 
HETATM   25  H1  UNL     1      -6.303  21.207  67.969  1.00  0.00     0.000 HD 
BRANCH  22  26
HETATM   26  C   UNL     1      -8.178  19.343  67.593  1.00  0.00    -0.329 A  
HETATM   27  C   UNL     1      -9.124  19.556  68.608  1.00  0.00    -0.396 A  
HETATM   28  C   UNL     1     -10.479  19.701  68.303  1.00  0.00    -0.453 A  
HETATM   29  C   UNL     1     -10.907  19.646  66.979  1.00  0.00    -0.518 A  
HETATM   30  C   UNL     1      -9.981  19.459  65.957  1.00  0.00    -0.441 A  
HETATM   31  C   UNL     1      -8.624  19.317  66.260  1.00  0.00    -0.335 A  
ENDBRANCH  22  26
ENDBRANCH  20  22
ENDBRANCH   8  18
TORSDOF 6
ENDMDL
MODEL       44
REMARK 921   NORMALIZED FREE ENERGY PREDICTED BY IDOCK:   -5.65 KCAL/MOL
REMARK 922        TOTAL FREE ENERGY PREDICTED BY IDOCK:   -8.66 KCAL/MOL
REMARK 923 INTER-LIGAND FREE ENERGY PREDICTED BY IDOCK:   -7.86 KCAL/MOL
REMARK 924 INTRA-LIGAND FREE ENERGY PREDICTED BY IDOCK:   -0.80 KCAL/MOL
REMARK 927      BINDING AFFINITY PREDICTED BY RF-SCORE:    0.00 PKD
ROOT
HETATM    1  C   UNL     1     -12.340  12.951  66.774  1.00  0.00     0.061 C  
HETATM    2  S   UNL     1     -11.730  11.937  68.139  1.00  0.00    -0.286 SA 
HETATM    3  C   UNL     1     -12.011  13.214  69.375  1.00  0.00    -0.291 C  
HETATM    4  C   UNL     1     -11.519  14.601  69.001  1.00  0.00    -0.317 C  
HETATM    5  OXT UNL     1     -10.265  17.114  68.359  1.00  0.00    -0.297 OA 
HETATM    6  CA  UNL     1     -11.282  15.013  67.720  1.00  0.00    -0.321 C  
HETATM    7  N   UNL     1     -11.545  14.161  66.680  1.00  0.00    -0.366 N  
HETATM    8  CA  UNL     1     -11.786  12.565  65.363  1.00  0.00    -0.428 C  
HETATM    9  C   UNL     1     -10.657  16.376  67.466  1.00  0.00    -0.309 C  
HETATM   10  O   UNL     1     -10.608  16.805  66.192  1.00  0.00    -0.294 OA 
HETATM   11  O   UNL     1     -10.683  14.813  64.632  1.00  0.00    -0.379 OA 
HETATM   12  C   UNL     1     -11.242  14.035  65.371  1.00  0.00    -0.319 C  
ENDROOT
BRANCH   4  13
HETATM   13  C   UNL     1     -11.238  15.444  70.246  1.00  0.00    -0.309 C  
BRANCH  13  14
HETATM   14  O   UNL     1     -12.425  16.163  70.644  1.00  0.00    -0.213 OA 
BRANCH  14  15
HETATM   15  C   UNL     1     -12.867  15.956  71.913  1.00  0.00    -0.393 C  
HETATM   16  C   UNL     1     -14.182  15.236  71.904  1.00  0.00    -0.681 C  
HETATM   17  O   UNL     1     -12.271  16.257  72.937  1.00  0.00    -0.493 OA 
ENDBRANCH  14  15
ENDBRANCH  13  14
ENDBRANCH   4  13
BRANCH   8  18
HETATM   18  N   UNL     1     -10.749  11.508  65.364  1.00  0.00    -0.285 N  
HETATM   19  H   UNL     1     -10.725  10.872  66.160  1.00  0.00     0.000 HD 
HETATM   20  C   UNL     1      -9.815  11.319  64.372  1.00  0.00    -0.269 C  
HETATM   21  O   UNL     1      -9.778  11.993  63.349  1.00  0.00    -0.345 OA 
BRANCH  20  22
HETATM   22  CA  UNL     1      -8.826  10.167  64.690  1.00  0.00    -0.196 C  
HETATM   23  H2  UNL     1     -10.368   8.755  64.905  1.00  0.00     0.000 HD 
HETATM   24  N   UNL     1      -9.547   9.081  65.415  1.00  0.00    -0.460 NA 
HETATM   25  H1  UNL     1      -8.897   8.324  65.625  1.00  0.00     0.000 HD 
BRANCH  22  26
HETATM   26  C   UNL     1      -7.624  10.667  65.470  1.00  0.00    -0.072 A  
HETATM   27  C   UNL     1      -6.335  10.447  64.959  1.00  0.00    -0.095 A  
HETATM   28  C   UNL     1      -5.206  10.886  65.655  1.00  0.00    -0.138 A  
HETATM   29  C   UNL     1      -5.350  11.559  66.866  1.00  0.00    -0.118 A  
HETATM   30  C   UNL     1      -6.621  11.806  67.376  1.00  0.00    -0.118 A  
HETATM   31  C   UNL     1      -7.751  11.370  66.680  1.00  0.00    -0.129 A  
ENDBRANCH  22  26
ENDBRANCH  20  22
ENDBRANCH   8  18
TORSDOF 6
ENDMDL
MODEL       45
REMARK 921   NORMALIZED FREE ENERGY PREDICTED BY IDOCK:   -5.62 KCAL/MOL
REMARK 922        TOTAL FREE ENERGY PREDICTED BY IDOCK:   -8.62 KCAL/MOL
REMARK 923 INTER-LIGAND FREE ENERGY PREDICTED BY IDOCK:   -7.90 KCAL/MOL
REMARK 924 INTRA-LIGAND FREE ENERGY PREDICTED BY IDOCK:   -0.72 KCAL/MOL
REMARK 927      BINDING AFFINITY PREDICTED BY RF-SCORE:    0.00 PKD
ROOT
HETATM    1  C   UNL     1     -11.647  10.304  69.121  1.00  0.00    -0.099 C  
HETATM    2  S   UNL     1      -9.874  10.329  68.775  1.00  0.00    -0.190 SA 
HETATM    3  C   UNL     1      -9.647   8.590  69.179  1.00  0.00    -0.167 C  
HETATM    4  C   UNL     1     -10.300   8.132  70.470  1.00  0.00    -0.211 C  
HETATM    5  OXT UNL     1     -11.280   7.426  73.086  1.00  0.00    -0.335 OA 
HETATM    6  CA  UNL     1     -11.329   8.787  71.086  1.00  0.00    -0.285 C  
HETATM    7  N   UNL     1     -11.863   9.903  70.498  1.00  0.00    -0.276 N  
HETATM    8  CA  UNL     1     -12.266  11.690  69.504  1.00  0.00    -0.193 C  
HETATM    9  C   UNL     1     -11.816   8.321  72.450  1.00  0.00    -0.396 C  
HETATM   10  O   UNL     1     -12.940   8.884  72.929  1.00  0.00    -0.330 OA 
HETATM   11  O   UNL     1     -13.269  11.151  71.852  1.00  0.00    -0.470 OA 
HETATM   12  C   UNL     1     -12.643  10.952  70.835  1.00  0.00    -0.397 C  
ENDROOT
BRANCH   4  13
HETATM   13  C   UNL     1      -9.599   6.897  71.039  1.00  0.00    -0.170 C  
BRANCH  13  14
HETATM   14  O   UNL     1     -10.188   5.693  70.500  1.00  0.00    -0.200 OA 
BRANCH  14  15
HETATM   15  C   UNL     1      -9.977   4.545  71.198  1.00  0.00    -0.187 C  
HETATM   16  C   UNL     1      -9.516   3.448  70.285  1.00  0.00    -0.247 C  
HETATM   17  O   UNL     1     -10.089   4.413  72.409  1.00  0.00    -0.169 OA 
ENDBRANCH  14  15
ENDBRANCH  13  14
ENDBRANCH   4  13
BRANCH   8  18
HETATM   18  N   UNL     1     -11.290  12.794  69.649  1.00  0.00    -0.478 N  
HETATM   19  H   UNL     1     -10.673  12.775  70.461  1.00  0.00     0.000 HD 
HETATM   20  C   UNL     1     -11.153  13.844  68.773  1.00  0.00    -0.265 C  
HETATM   21  O   UNL     1     -11.807  13.948  67.742  1.00  0.00    -0.344 OA 
BRANCH  20  22
HETATM   22  CA  UNL     1     -10.085  14.873  69.231  1.00  0.00    -0.195 C  
HETATM   23  H2  UNL     1     -10.527  14.591  71.266  1.00  0.00     0.000 HD 
HETATM   24  N   UNL     1     -10.420  15.357  70.601  1.00  0.00    -0.438 NA 
HETATM   25  H1  UNL     1      -9.719  16.033  70.902  1.00  0.00     0.000 HD 
BRANCH  22  26
HETATM   26  C   UNL     1      -9.957  16.017  68.243  1.00  0.00    -0.220 A  
HETATM   27  C   UNL     1      -9.103  15.876  67.137  1.00  0.00    -0.226 A  
HETATM   28  C   UNL     1      -8.954  16.913  66.212  1.00  0.00    -0.305 A  
HETATM   29  C   UNL     1      -9.664  18.101  66.375  1.00  0.00    -0.329 A  
HETATM   30  C   UNL     1     -10.533  18.249  67.452  1.00  0.00    -0.430 A  
HETATM   31  C   UNL     1     -10.684  17.212  68.375  1.00  0.00    -0.347 A  
ENDBRANCH  22  26
ENDBRANCH  20  22
ENDBRANCH   8  18
TORSDOF 6
ENDMDL
MODEL       46
REMARK 921   NORMALIZED FREE ENERGY PREDICTED BY IDOCK:   -5.61 KCAL/MOL
REMARK 922        TOTAL FREE ENERGY PREDICTED BY IDOCK:   -8.62 KCAL/MOL
REMARK 923 INTER-LIGAND FREE ENERGY PREDICTED BY IDOCK:   -7.75 KCAL/MOL
REMARK 924 INTRA-LIGAND FREE ENERGY PREDICTED BY IDOCK:   -0.87 KCAL/MOL
REMARK 927      BINDING AFFINITY PREDICTED BY RF-SCORE:    0.00 PKD
ROOT
HETATM    1  C   UNL     1     -11.336  15.200  67.201  1.00  0.00    -0.290 C  
HETATM    2  S   UNL     1      -9.985  14.315  66.391  1.00  0.00    -0.302 SA 
HETATM    3  C   UNL     1     -10.767  12.705  66.574  1.00  0.00    -0.250 C  
HETATM    4  C   UNL     1     -11.331  12.409  67.952  1.00  0.00    -0.344 C  
HETATM    5  OXT UNL     1     -12.073  11.798  70.668  1.00  0.00    -0.368 OA 
HETATM    6  CA  UNL     1     -11.648  13.366  68.874  1.00  0.00    -0.314 C  
HETATM    7  N   UNL     1     -11.508  14.689  68.547  1.00  0.00    -0.287 N  
HETATM    8  CA  UNL     1     -10.937  16.567  67.849  1.00  0.00    -0.288 C  
HETATM    9  C   UNL     1     -12.075  12.956  70.276  1.00  0.00    -0.302 C  
HETATM   10  O   UNL     1     -12.543  13.921  71.086  1.00  0.00    -0.334 OA 
HETATM   11  O   UNL     1     -11.645  16.163  70.328  1.00  0.00    -0.337 OA 
HETATM   12  C   UNL     1     -11.444  15.885  69.167  1.00  0.00    -0.377 C  
ENDROOT
BRANCH   4  13
HETATM   13  C   UNL     1     -11.413  10.903  68.206  1.00  0.00    -0.305 C  
BRANCH  13  14
HETATM   14  O   UNL     1     -10.131  10.283  67.966  1.00  0.00    -0.153 OA 
BRANCH  14  15
HETATM   15  C   UNL     1      -9.208  10.386  68.960  1.00  0.00    -0.187 C  
HETATM   16  C   UNL     1      -9.605   9.547  70.138  1.00  0.00    -0.290 C  
HETATM   17  O   UNL     1      -8.167  11.024  68.906  1.00  0.00    -0.145 OA 
ENDBRANCH  14  15
ENDBRANCH  13  14
ENDBRANCH   4  13
BRANCH   8  18
HETATM   18  N   UNL     1      -9.490  16.879  67.816  1.00  0.00    -0.234 N  
HETATM   19  H   UNL     1      -8.893  16.421  68.504  1.00  0.00     0.000 HD 
HETATM   20  C   UNL     1      -8.890  17.741  66.929  1.00  0.00    -0.248 C  
HETATM   21  O   UNL     1      -9.500  18.313  66.032  1.00  0.00    -0.501 OA 
BRANCH  20  22
HETATM   22  CA  UNL     1      -7.370  17.906  67.186  1.00  0.00    -0.190 C  
HETATM   23  H2  UNL     1      -7.600  17.808  69.273  1.00  0.00     0.000 HD 
HETATM   24  N   UNL     1      -7.154  18.403  68.575  1.00  0.00    -0.263 NA 
HETATM   25  H1  UNL     1      -6.154  18.511  68.745  1.00  0.00     0.000 HD 
BRANCH  22  26
HETATM   26  C   UNL     1      -6.726  18.813  66.154  1.00  0.00    -0.264 A  
HETATM   27  C   UNL     1      -6.796  20.205  66.326  1.00  0.00    -0.267 A  
HETATM   28  C   UNL     1      -6.222  21.070  65.391  1.00  0.00    -0.220 A  
HETATM   29  C   UNL     1      -5.562  20.556  64.277  1.00  0.00    -0.262 A  
HETATM   30  C   UNL     1      -5.464  19.179  64.102  1.00  0.00    -0.308 A  
HETATM   31  C   UNL     1      -6.035  18.313  65.038  1.00  0.00    -0.114 A  
ENDBRANCH  22  26
ENDBRANCH  20  22
ENDBRANCH   8  18
TORSDOF 6
ENDMDL
MODEL       47
REMARK 921   NORMALIZED FREE ENERGY PREDICTED BY IDOCK:   -5.60 KCAL/MOL
REMARK 922        TOTAL FREE ENERGY PREDICTED BY IDOCK:   -8.60 KCAL/MOL
REMARK 923 INTER-LIGAND FREE ENERGY PREDICTED BY IDOCK:   -7.79 KCAL/MOL
REMARK 924 INTRA-LIGAND FREE ENERGY PREDICTED BY IDOCK:   -0.81 KCAL/MOL
REMARK 927      BINDING AFFINITY PREDICTED BY RF-SCORE:    0.00 PKD
ROOT
HETATM    1  C   UNL     1      -7.833   9.305  67.314  1.00  0.00    -0.099 C  
HETATM    2  S   UNL     1      -9.433   8.642  66.797  1.00  0.00    -0.210 SA 
HETATM    3  C   UNL     1      -9.593   9.778  65.411  1.00  0.00    -0.292 C  
HETATM    4  C   UNL     1      -9.286  11.232  65.722  1.00  0.00    -0.245 C  
HETATM    5  OXT UNL     1      -9.014  14.000  66.472  1.00  0.00    -0.202 OA 
HETATM    6  CA  UNL     1      -8.539  11.648  66.787  1.00  0.00    -0.180 C  
HETATM    7  N   UNL     1      -7.973  10.717  67.618  1.00  0.00    -0.106 N  
HETATM    8  CA  UNL     1      -7.484   9.090  68.823  1.00  0.00    -0.076 C  
HETATM    9  C   UNL     1      -8.410  13.134  67.088  1.00  0.00    -0.140 C  
HETATM   10  O   UNL     1      -7.526  13.498  68.034  1.00  0.00    -0.109 OA 
HETATM   11  O   UNL     1      -7.130  11.554  69.605  1.00  0.00    -0.053 OA 
HETATM   12  C   UNL     1      -7.424  10.656  68.849  1.00  0.00    -0.108 C  
ENDROOT
BRANCH   4  13
HETATM   13  C   UNL     1      -9.995  12.170  64.744  1.00  0.00    -0.200 C  
BRANCH  13  14
HETATM   14  O   UNL     1     -11.427  12.007  64.841  1.00  0.00    -0.324 OA 
BRANCH  14  15
HETATM   15  C   UNL     1     -12.188  13.078  64.489  1.00  0.00    -0.416 C  
HETATM   16  C   UNL     1     -12.491  13.927  65.687  1.00  0.00    -0.538 C  
HETATM   17  O   UNL     1     -12.544  13.361  63.354  1.00  0.00    -0.738 OA 
ENDBRANCH  14  15
ENDBRANCH  13  14
ENDBRANCH   4  13
BRANCH   8  18
HETATM   18  N   UNL     1      -8.563   8.486  69.638  1.00  0.00    -0.129 N  
HETATM   19  H   UNL     1      -9.284   7.956  69.147  1.00  0.00     0.000 HD 
HETATM   20  C   UNL     1      -8.669   8.585  71.005  1.00  0.00    -0.173 C  
HETATM   21  O   UNL     1      -7.838   9.157  71.702  1.00  0.00    -0.340 OA 
BRANCH  20  22
HETATM   22  CA  UNL     1      -9.943   7.897  71.560  1.00  0.00    -0.173 C  
HETATM   23  H2  UNL     1      -9.435   6.036  70.725  1.00  0.00     0.000 HD 
HETATM   24  N   UNL     1     -10.232   6.671  70.761  1.00  0.00    -0.195 NA 
HETATM   25  H1  UNL     1     -11.070   6.219  71.126  1.00  0.00     0.000 HD 
BRANCH  22  26
HETATM   26  C   UNL     1     -11.124   8.849  71.583  1.00  0.00    -0.420 A  
HETATM   27  C   UNL     1     -11.041  10.063  70.882  1.00  0.00    -0.385 A  
HETATM   28  C   UNL     1     -12.107  10.966  70.889  1.00  0.00    -0.455 A  
HETATM   29  C   UNL     1     -13.273  10.665  71.588  1.00  0.00    -0.495 A  
HETATM   30  C   UNL     1     -13.382   9.456  72.269  1.00  0.00    -0.539 A  
HETATM   31  C   UNL     1     -12.318   8.551  72.261  1.00  0.00    -0.450 A  
ENDBRANCH  22  26
ENDBRANCH  20  22
ENDBRANCH   8  18
TORSDOF 6
ENDMDL
MODEL       48
REMARK 921   NORMALIZED FREE ENERGY PREDICTED BY IDOCK:   -5.54 KCAL/MOL
REMARK 922        TOTAL FREE ENERGY PREDICTED BY IDOCK:   -8.52 KCAL/MOL
REMARK 923 INTER-LIGAND FREE ENERGY PREDICTED BY IDOCK:   -7.63 KCAL/MOL
REMARK 924 INTRA-LIGAND FREE ENERGY PREDICTED BY IDOCK:   -0.89 KCAL/MOL
REMARK 927      BINDING AFFINITY PREDICTED BY RF-SCORE:    0.00 PKD
ROOT
HETATM    1  C   UNL     1     -10.365  13.347  68.078  1.00  0.00    -0.241 C  
HETATM    2  S   UNL     1     -11.401  13.678  66.635  1.00  0.00    -0.339 SA 
HETATM    3  C   UNL     1     -11.366  11.972  66.066  1.00  0.00    -0.343 C  
HETATM    4  C   UNL     1      -9.997  11.318  66.051  1.00  0.00    -0.273 C  
HETATM    5  OXT UNL     1      -7.332  10.268  65.739  1.00  0.00    -0.128 OA 
HETATM    6  CA  UNL     1      -8.930  11.753  66.787  1.00  0.00    -0.196 C  
HETATM    7  N   UNL     1      -9.089  12.812  67.641  1.00  0.00    -0.184 N  
HETATM    8  CA  UNL     1      -9.576  14.583  68.625  1.00  0.00    -0.219 C  
HETATM    9  C   UNL     1      -7.564  11.112  66.592  1.00  0.00    -0.147 C  
HETATM   10  O   UNL     1      -6.594  11.452  67.459  1.00  0.00    -0.066 OA 
HETATM   11  O   UNL     1      -7.122  13.713  68.467  1.00  0.00    -0.092 OA 
HETATM   12  C   UNL     1      -8.322  13.695  68.315  1.00  0.00    -0.165 C  
ENDROOT
BRANCH   4  13
HETATM   13  C   UNL     1      -9.940  10.170  65.042  1.00  0.00    -0.305 C  
BRANCH  13  14
HETATM   14  O   UNL     1     -10.205  10.660  63.710  1.00  0.00    -0.320 OA 
BRANCH  14  15
HETATM   15  C   UNL     1      -9.170  10.621  62.828  1.00  0.00    -0.311 C  
HETATM   16  C   UNL     1      -8.863   9.206  62.437  1.00  0.00    -0.212 C  
HETATM   17  O   UNL     1      -8.588  11.591  62.363  1.00  0.00    -0.298 OA 
ENDBRANCH  14  15
ENDBRANCH  13  14
ENDBRANCH   4  13
BRANCH   8  18
HETATM   18  N   UNL     1      -9.695  15.814  67.810  1.00  0.00    -0.215 N  
HETATM   19  H   UNL     1      -9.224  15.828  66.906  1.00  0.00     0.000 HD 
HETATM   20  C   UNL     1     -10.393  16.939  68.180  1.00  0.00    -0.336 C  
HETATM   21  O   UNL     1     -11.035  17.019  69.222  1.00  0.00    -0.214 OA 
BRANCH  20  22
HETATM   22  CA  UNL     1     -10.280  18.084  67.141  1.00  0.00    -0.360 C  
HETATM   23  H2  UNL     1     -11.191  16.948  65.626  1.00  0.00     0.000 HD 
HETATM   24  N   UNL     1     -10.354  17.513  65.764  1.00  0.00    -0.603 NA 
HETATM   25  H1  UNL     1     -10.280  18.266  65.081  1.00  0.00     0.000 HD 
BRANCH  22  26
HETATM   26  C   UNL     1      -9.017  18.900  67.347  1.00  0.00    -0.297 A  
HETATM   27  C   UNL     1      -8.429  18.944  68.621  1.00  0.00    -0.381 A  
HETATM   28  C   UNL     1      -7.271  19.691  68.848  1.00  0.00    -0.381 A  
HETATM   29  C   UNL     1      -6.679  20.397  67.803  1.00  0.00    -0.330 A  
HETATM   30  C   UNL     1      -7.235  20.346  66.529  1.00  0.00    -0.299 A  
HETATM   31  C   UNL     1      -8.391  19.597  66.299  1.00  0.00    -0.372 A  
ENDBRANCH  22  26
ENDBRANCH  20  22
ENDBRANCH   8  18
TORSDOF 6
ENDMDL
MODEL       49
REMARK 921   NORMALIZED FREE ENERGY PREDICTED BY IDOCK:   -5.53 KCAL/MOL
REMARK 922        TOTAL FREE ENERGY PREDICTED BY IDOCK:   -8.50 KCAL/MOL
REMARK 923 INTER-LIGAND FREE ENERGY PREDICTED BY IDOCK:   -7.77 KCAL/MOL
REMARK 924 INTRA-LIGAND FREE ENERGY PREDICTED BY IDOCK:   -0.73 KCAL/MOL
REMARK 927      BINDING AFFINITY PREDICTED BY RF-SCORE:    0.00 PKD
ROOT
HETATM    1  C   UNL     1     -12.024  13.578  68.680  1.00  0.00    -0.343 C  
HETATM    2  S   UNL     1     -10.878  14.387  69.820  1.00  0.00     0.032 SA 
HETATM    3  C   UNL     1     -11.137  16.021  69.113  1.00  0.00    -0.317 C  
HETATM    4  C   UNL     1     -11.089  16.090  67.598  1.00  0.00    -0.243 C  
HETATM    5  OXT UNL     1     -10.651  16.191  64.752  1.00  0.00    -0.630 OA 
HETATM    6  CA  UNL     1     -11.276  15.017  66.773  1.00  0.00    -0.322 C  
HETATM    7  N   UNL     1     -11.580  13.796  67.316  1.00  0.00    -0.341 N  
HETATM    8  CA  UNL     1     -11.758  12.054  68.446  1.00  0.00    -0.332 C  
HETATM    9  C   UNL     1     -11.067  15.167  65.274  1.00  0.00    -0.383 C  
HETATM   10  O   UNL     1     -11.434  14.135  64.493  1.00  0.00    -0.379 OA 
HETATM   11  O   UNL     1     -11.423  12.004  65.859  1.00  0.00    -0.350 OA 
HETATM   12  C   UNL     1     -11.587  12.497  66.951  1.00  0.00    -0.370 C  
ENDROOT
BRANCH   4  13
HETATM   13  C   UNL     1     -10.715  17.493  67.117  1.00  0.00    -0.191 C  
BRANCH  13  14
HETATM   14  O   UNL     1     -10.354  18.328  68.239  1.00  0.00    -0.367 OA 
BRANCH  14  15
HETATM   15  C   UNL     1      -9.340  19.213  68.039  1.00  0.00    -0.324 C  
HETATM   16  C   UNL     1      -9.818  20.394  67.249  1.00  0.00    -0.597 C  
HETATM   17  O   UNL     1      -8.203  19.109  68.476  1.00  0.00    -0.339 OA 
ENDBRANCH  14  15
ENDBRANCH  13  14
ENDBRANCH   4  13
BRANCH   8  18
HETATM   18  N   UNL     1     -10.536  11.523  69.091  1.00  0.00    -0.369 N  
HETATM   19  H   UNL     1      -9.776  12.179  69.274  1.00  0.00     0.000 HD 
HETATM   20  C   UNL     1     -10.346  10.214  69.463  1.00  0.00    -0.240 C  
HETATM   21  O   UNL     1     -11.206   9.348  69.334  1.00  0.00    -0.137 OA 
BRANCH  20  22
HETATM   22  CA  UNL     1      -8.938   9.956  70.060  1.00  0.00    -0.169 C  
HETATM   23  H2  UNL     1      -8.266  11.892  69.592  1.00  0.00     0.000 HD 
HETATM   24  N   UNL     1      -7.967  10.924  69.472  1.00  0.00    -0.373 NA 
HETATM   25  H1  UNL     1      -7.041  10.755  69.864  1.00  0.00     0.000 HD 
BRANCH  22  26
HETATM   26  C   UNL     1      -8.500   8.518  69.850  1.00  0.00    -0.125 A  
HETATM   27  C   UNL     1      -7.865   8.162  68.650  1.00  0.00    -0.114 A  
HETATM   28  C   UNL     1      -7.457   6.846  68.421  1.00  0.00    -0.098 A  
HETATM   29  C   UNL     1      -7.668   5.870  69.392  1.00  0.00    -0.093 A  
HETATM   30  C   UNL     1      -8.275   6.210  70.598  1.00  0.00    -0.121 A  
HETATM   31  C   UNL     1      -8.682   7.526  70.829  1.00  0.00    -0.140 A  
ENDBRANCH  22  26
ENDBRANCH  20  22
ENDBRANCH   8  18
TORSDOF 6
ENDMDL
MODEL       50
REMARK 921   NORMALIZED FREE ENERGY PREDICTED BY IDOCK:   -5.52 KCAL/MOL
REMARK 922        TOTAL FREE ENERGY PREDICTED BY IDOCK:   -8.49 KCAL/MOL
REMARK 923 INTER-LIGAND FREE ENERGY PREDICTED BY IDOCK:   -7.53 KCAL/MOL
REMARK 924 INTRA-LIGAND FREE ENERGY PREDICTED BY IDOCK:   -0.96 KCAL/MOL
REMARK 927      BINDING AFFINITY PREDICTED BY RF-SCORE:    0.00 PKD
ROOT
HETATM    1  C   UNL     1      -9.661   9.552  68.864  1.00  0.00    -0.156 C  
HETATM    2  S   UNL     1      -8.159   9.822  69.832  1.00  0.00    -0.188 SA 
HETATM    3  C   UNL     1      -8.599   8.604  71.080  1.00  0.00    -0.181 C  
HETATM    4  C   UNL     1     -10.023   8.686  71.597  1.00  0.00    -0.353 C  
HETATM    5  OXT UNL     1     -12.623   9.122  72.760  1.00  0.00    -0.234 OA 
HETATM    6  CA  UNL     1     -11.049   9.294  70.930  1.00  0.00    -0.306 C  
HETATM    7  N   UNL     1     -10.822   9.828  69.689  1.00  0.00    -0.240 N  
HETATM    8  CA  UNL     1     -10.099  10.761  67.972  1.00  0.00    -0.176 C  
HETATM    9  C   UNL     1     -12.406   9.444  71.601  1.00  0.00    -0.385 C  
HETATM   10  O   UNL     1     -13.424   9.887  70.842  1.00  0.00    -0.334 OA 
HETATM   11  O   UNL     1     -12.503  11.203  68.885  1.00  0.00    -0.460 OA 
HETATM   12  C   UNL     1     -11.407  10.692  68.834  1.00  0.00    -0.274 C  
ENDROOT
BRANCH   4  13
HETATM   13  C   UNL     1     -10.142   8.083  72.998  1.00  0.00    -0.281 C  
BRANCH  13  14
HETATM   14  O   UNL     1      -9.947   6.653  72.946  1.00  0.00    -0.165 OA 
BRANCH  14  15
HETATM   15  C   UNL     1     -10.826   5.945  72.186  1.00  0.00    -0.241 C  
HETATM   16  C   UNL     1     -10.098   5.109  71.177  1.00  0.00    -0.291 C  
HETATM   17  O   UNL     1     -12.041   5.935  72.320  1.00  0.00    -0.275 OA 
ENDBRANCH  14  15
ENDBRANCH  13  14
ENDBRANCH   4  13
BRANCH   8  18
HETATM   18  N   UNL     1      -9.295  11.992  68.143  1.00  0.00    -0.195 N  
HETATM   19  H   UNL     1      -8.797  12.111  69.025  1.00  0.00     0.000 HD 
HETATM   20  C   UNL     1      -9.168  12.988  67.204  1.00  0.00    -0.226 C  
HETATM   21  O   UNL     1      -9.683  12.932  66.092  1.00  0.00    -0.266 OA 
BRANCH  20  22
HETATM   22  CA  UNL     1      -8.306  14.177  67.702  1.00  0.00    -0.182 C  
HETATM   23  H2  UNL     1      -7.427  13.041  69.236  1.00  0.00     0.000 HD 
HETATM   24  N   UNL     1      -7.901  13.937  69.117  1.00  0.00    -0.337 NA 
HETATM   25  H1  UNL     1      -7.335  14.719  69.445  1.00  0.00     0.000 HD 
BRANCH  22  26
HETATM   26  C   UNL     1      -9.036  15.498  67.539  1.00  0.00    -0.196 A  
HETATM   27  C   UNL     1      -9.728  16.039  68.634  1.00  0.00    -0.217 A  
HETATM   28  C   UNL     1     -10.417  17.249  68.517  1.00  0.00    -0.375 A  
HETATM   29  C   UNL     1     -10.416  17.939  67.308  1.00  0.00    -0.373 A  
HETATM   30  C   UNL     1      -9.715  17.430  66.218  1.00  0.00    -0.276 A  
HETATM   31  C   UNL     1      -9.023  16.222  66.335  1.00  0.00    -0.343 A  
ENDBRANCH  22  26
ENDBRANCH  20  22
ENDBRANCH   8  18
TORSDOF 6
ENDMDL
MODEL       51
REMARK 921   NORMALIZED FREE ENERGY PREDICTED BY IDOCK:   -5.51 KCAL/MOL
REMARK 922        TOTAL FREE ENERGY PREDICTED BY IDOCK:   -8.48 KCAL/MOL
REMARK 923 INTER-LIGAND FREE ENERGY PREDICTED BY IDOCK:   -7.80 KCAL/MOL
REMARK 924 INTRA-LIGAND FREE ENERGY PREDICTED BY IDOCK:   -0.69 KCAL/MOL
REMARK 927      BINDING AFFINITY PREDICTED BY RF-SCORE:    0.00 PKD
ROOT
HETATM    1  C   UNL     1     -11.696  12.004  65.680  1.00  0.00    -0.246 C  
HETATM    2  S   UNL     1     -10.300  11.914  64.536  1.00  0.00    -0.310 SA 
HETATM    3  C   UNL     1     -10.050  10.151  64.788  1.00  0.00    -0.180 C  
HETATM    4  C   UNL     1     -10.051   9.693  66.236  1.00  0.00    -0.322 C  
HETATM    5  OXT UNL     1      -9.734   8.965  69.005  1.00  0.00    -0.165 OA 
HETATM    6  CA  UNL     1     -10.612  10.398  67.263  1.00  0.00    -0.267 C  
HETATM    7  N   UNL     1     -11.268  11.570  66.996  1.00  0.00    -0.302 N  
HETATM    8  CA  UNL     1     -11.947  13.416  66.308  1.00  0.00    -0.411 C  
HETATM    9  C   UNL     1     -10.434   9.918  68.696  1.00  0.00    -0.206 C  
HETATM   10  O   UNL     1     -11.149  10.543  69.649  1.00  0.00    -0.244 OA 
HETATM   11  O   UNL     1     -11.764  12.865  68.851  1.00  0.00    -0.289 OA 
HETATM   12  C   UNL     1     -11.710  12.658  67.660  1.00  0.00    -0.361 C  
ENDROOT
BRANCH   4  13
HETATM   13  C   UNL     1      -9.266   8.391  66.407  1.00  0.00    -0.201 C  
BRANCH  13  14
HETATM   14  O   UNL     1      -7.968   8.503  65.785  1.00  0.00    -0.099 OA 
BRANCH  14  15
HETATM   15  C   UNL     1      -6.998   9.127  66.506  1.00  0.00    -0.080 C  
HETATM   16  C   UNL     1      -5.677   8.442  66.318  1.00  0.00    -0.043 C  
HETATM   17  O   UNL     1      -7.144  10.136  67.180  1.00  0.00    -0.087 OA 
ENDBRANCH  14  15
ENDBRANCH  13  14
ENDBRANCH   4  13
BRANCH   8  18
HETATM   18  N   UNL     1     -10.933  14.441  65.972  1.00  0.00    -0.310 N  
HETATM   19  H   UNL     1     -10.391  14.307  65.119  1.00  0.00     0.000 HD 
HETATM   20  C   UNL     1     -10.667  15.561  66.723  1.00  0.00    -0.305 C  
HETATM   21  O   UNL     1     -11.286  15.849  67.742  1.00  0.00    -0.326 OA 
BRANCH  20  22
HETATM   22  CA  UNL     1      -9.508  16.413  66.142  1.00  0.00    -0.329 C  
HETATM   23  H2  UNL     1      -8.118  14.847  66.329  1.00  0.00     0.000 HD 
HETATM   24  N   UNL     1      -8.203  15.834  66.575  1.00  0.00    -0.280 NA 
HETATM   25  H1  UNL     1      -7.441  16.393  66.193  1.00  0.00     0.000 HD 
BRANCH  22  26
HETATM   26  C   UNL     1      -9.638  17.872  66.538  1.00  0.00    -0.318 A  
HETATM   27  C   UNL     1      -8.839  18.375  67.577  1.00  0.00    -0.267 A  
HETATM   28  C   UNL     1      -8.939  19.711  67.973  1.00  0.00    -0.381 A  
HETATM   29  C   UNL     1      -9.831  20.565  67.329  1.00  0.00    -0.581 A  
HETATM   30  C   UNL     1     -10.614  20.090  66.281  1.00  0.00    -0.462 A  
HETATM   31  C   UNL     1     -10.513  18.755  65.883  1.00  0.00    -0.424 A  
ENDBRANCH  22  26
ENDBRANCH  20  22
ENDBRANCH   8  18
TORSDOF 6
ENDMDL
MODEL       52
REMARK 921   NORMALIZED FREE ENERGY PREDICTED BY IDOCK:   -5.50 KCAL/MOL
REMARK 922        TOTAL FREE ENERGY PREDICTED BY IDOCK:   -8.47 KCAL/MOL
REMARK 923 INTER-LIGAND FREE ENERGY PREDICTED BY IDOCK:   -9.15 KCAL/MOL
REMARK 924 INTRA-LIGAND FREE ENERGY PREDICTED BY IDOCK:    0.68 KCAL/MOL
REMARK 927      BINDING AFFINITY PREDICTED BY RF-SCORE:    0.00 PKD
ROOT
HETATM    1  C   UNL     1      -9.380  14.582  65.790  1.00  0.00     0.000 C  
HETATM    2  S   UNL     1      -9.163  13.394  67.134  1.00  0.00    -0.247 SA 
HETATM    3  C   UNL     1      -9.069  11.977  66.030  1.00  0.00    -0.092 C  
HETATM    4  C   UNL     1     -10.135  11.921  64.950  1.00  0.00    -0.296 C  
HETATM    5  OXT UNL     1     -12.378  11.717  63.154  1.00  0.00    -0.465 OA 
HETATM    6  CA  UNL     1     -10.848  13.004  64.518  1.00  0.00    -0.372 C  
HETATM    7  N   UNL     1     -10.571  14.242  65.034  1.00  0.00    -0.401 N  
HETATM    8  CA  UNL     1     -10.103  15.911  66.190  1.00  0.00    -0.315 C  
HETATM    9  C   UNL     1     -11.991  12.814  63.532  1.00  0.00    -0.555 C  
HETATM   10  O   UNL     1     -12.542  13.921  63.004  1.00  0.00    -0.694 OA 
HETATM   11  O   UNL     1     -12.135  15.881  64.554  1.00  0.00    -0.136 OA 
HETATM   12  C   UNL     1     -11.144  15.461  65.108  1.00  0.00    -0.394 C  
ENDROOT
BRANCH   4  13
HETATM   13  C   UNL     1     -10.371  10.486  64.476  1.00  0.00    -0.205 C  
BRANCH  13  14
HETATM   14  O   UNL     1      -9.583  10.212  63.297  1.00  0.00    -0.301 OA 
BRANCH  14  15
HETATM   15  C   UNL     1      -8.475   9.443  63.469  1.00  0.00    -0.201 C  
HETATM   16  C   UNL     1      -7.319   9.998  62.691  1.00  0.00    -0.133 C  
HETATM   17  O   UNL     1      -8.391   8.460  64.192  1.00  0.00    -0.153 OA 
ENDBRANCH  14  15
ENDBRANCH  13  14
ENDBRANCH   4  13
BRANCH   8  18
HETATM   18  N   UNL     1     -10.615  15.952  67.579  1.00  0.00    -0.309 N  
HETATM   19  H   UNL     1     -10.124  16.549  68.245  1.00  0.00     0.000 HD 
HETATM   20  C   UNL     1     -11.702  15.249  68.040  1.00  0.00    -0.251 C  
HETATM   21  O   UNL     1     -12.395  14.537  67.320  1.00  0.00    -0.276 OA 
BRANCH  20  22
HETATM   22  CA  UNL     1     -11.953  15.455  69.557  1.00  0.00    -0.334 C  
HETATM   23  H2  UNL     1     -10.516  16.982  69.698  1.00  0.00     0.000 HD 
HETATM   24  N   UNL     1     -10.763  16.112  70.170  1.00  0.00    -0.315 NA 
HETATM   25  H1  UNL     1     -10.927  16.248  71.167  1.00  0.00     0.000 HD 
BRANCH  22  26
HETATM   26  C   UNL     1     -12.295  14.147  70.246  1.00  0.00    -0.421 A  
HETATM   27  C   UNL     1     -13.129  14.164  71.375  1.00  0.00    -0.428 A  
HETATM   28  C   UNL     1     -13.457  12.979  72.039  1.00  0.00    -0.584 A  
HETATM   29  C   UNL     1     -12.963  11.761  71.578  1.00  0.00    -0.446 A  
HETATM   30  C   UNL     1     -12.154  11.722  70.447  1.00  0.00    -0.440 A  
HETATM   31  C   UNL     1     -11.828  12.906  69.781  1.00  0.00    -0.380 A  
ENDBRANCH  22  26
ENDBRANCH  20  22
ENDBRANCH   8  18
TORSDOF 6
ENDMDL
MODEL       53
REMARK 921   NORMALIZED FREE ENERGY PREDICTED BY IDOCK:   -5.50 KCAL/MOL
REMARK 922        TOTAL FREE ENERGY PREDICTED BY IDOCK:   -8.47 KCAL/MOL
REMARK 923 INTER-LIGAND FREE ENERGY PREDICTED BY IDOCK:   -7.70 KCAL/MOL
REMARK 924 INTRA-LIGAND FREE ENERGY PREDICTED BY IDOCK:   -0.77 KCAL/MOL
REMARK 927      BINDING AFFINITY PREDICTED BY RF-SCORE:    0.00 PKD
ROOT
HETATM    1  C   UNL     1      -8.487  14.260  68.941  1.00  0.00    -0.031 C  
HETATM    2  S   UNL     1      -9.405  15.759  69.360  1.00  0.00    -0.240 SA 
HETATM    3  C   UNL     1     -10.590  14.890  70.398  1.00  0.00     0.047 C  
HETATM    4  C   UNL     1     -11.172  13.622  69.800  1.00  0.00    -0.092 C  
HETATM    5  OXT UNL     1     -12.472  11.424  68.465  1.00  0.00    -0.388 OA 
HETATM    6  CA  UNL     1     -10.591  12.912  68.788  1.00  0.00    -0.190 C  
HETATM    7  N   UNL     1      -9.378  13.315  68.294  1.00  0.00    -0.215 N  
HETATM    8  CA  UNL     1      -7.695  14.324  67.593  1.00  0.00    -0.177 C  
HETATM    9  C   UNL     1     -11.327  11.735  68.166  1.00  0.00    -0.284 C  
HETATM   10  O   UNL     1     -10.643  10.965  67.301  1.00  0.00    -0.221 OA 
HETATM   11  O   UNL     1      -8.738  12.305  66.310  1.00  0.00    -0.089 OA 
HETATM   12  C   UNL     1      -8.607  13.108  67.206  1.00  0.00    -0.210 C  
ENDROOT
BRANCH   4  13
HETATM   13  C   UNL     1     -12.535  13.293  70.413  1.00  0.00    -0.225 C  
BRANCH  13  14
HETATM   14  O   UNL     1     -13.210  14.506  70.812  1.00  0.00    -0.364 OA 
BRANCH  14  15
HETATM   15  C   UNL     1     -13.745  14.523  72.063  1.00  0.00    -0.436 C  
HETATM   16  C   UNL     1     -13.484  15.840  72.731  1.00  0.00    -0.659 C  
HETATM   17  O   UNL     1     -14.396  13.624  72.575  1.00  0.00    -0.707 OA 
ENDBRANCH  14  15
ENDBRANCH  13  14
ENDBRANCH   4  13
BRANCH   8  18
HETATM   18  N   UNL     1      -7.911  15.553  66.795  1.00  0.00    -0.260 N  
HETATM   19  H   UNL     1      -8.788  15.633  66.281  1.00  0.00     0.000 HD 
HETATM   20  C   UNL     1      -7.019  16.594  66.695  1.00  0.00    -0.208 C  
HETATM   21  O   UNL     1      -5.955  16.627  67.304  1.00  0.00    -0.134 OA 
BRANCH  20  22
HETATM   22  CA  UNL     1      -7.506  17.712  65.737  1.00  0.00    -0.008 C  
HETATM   23  H2  UNL     1      -5.649  17.835  64.761  1.00  0.00     0.000 HD 
HETATM   24  N   UNL     1      -6.327  18.454  65.203  1.00  0.00    -0.395 NA 
HETATM   25  H1  UNL     1      -6.647  19.190  64.573  1.00  0.00     0.000 HD 
BRANCH  22  26
HETATM   26  C   UNL     1      -8.496  18.638  66.419  1.00  0.00    -0.286 A  
HETATM   27  C   UNL     1      -9.826  18.220  66.583  1.00  0.00    -0.354 A  
HETATM   28  C   UNL     1     -10.765  19.051  67.200  1.00  0.00    -0.541 A  
HETATM   29  C   UNL     1     -10.385  20.306  67.669  1.00  0.00    -0.409 A  
HETATM   30  C   UNL     1      -9.066  20.727  67.536  1.00  0.00    -0.280 A  
HETATM   31  C   UNL     1      -8.125  19.897  66.923  1.00  0.00    -0.346 A  
ENDBRANCH  22  26
ENDBRANCH  20  22
ENDBRANCH   8  18
TORSDOF 6
ENDMDL
MODEL       54
REMARK 921   NORMALIZED FREE ENERGY PREDICTED BY IDOCK:   -5.49 KCAL/MOL
REMARK 922        TOTAL FREE ENERGY PREDICTED BY IDOCK:   -8.45 KCAL/MOL
REMARK 923 INTER-LIGAND FREE ENERGY PREDICTED BY IDOCK:   -7.48 KCAL/MOL
REMARK 924 INTRA-LIGAND FREE ENERGY PREDICTED BY IDOCK:   -0.96 KCAL/MOL
REMARK 927      BINDING AFFINITY PREDICTED BY RF-SCORE:    0.00 PKD
ROOT
HETATM    1  C   UNL     1     -10.430   6.938  71.796  1.00  0.00    -0.203 C  
HETATM    2  S   UNL     1     -11.406   6.568  70.320  1.00  0.00    -0.415 SA 
HETATM    3  C   UNL     1     -10.403   5.146  69.865  1.00  0.00    -0.277 C  
HETATM    4  C   UNL     1      -8.902   5.365  69.913  1.00  0.00    -0.140 C  
HETATM    5  OXT UNL     1      -6.091   5.962  69.706  1.00  0.00    -0.023 OA 
HETATM    6  CA  UNL     1      -8.293   6.354  70.632  1.00  0.00    -0.133 C  
HETATM    7  N   UNL     1      -9.053   7.185  71.413  1.00  0.00    -0.143 N  
HETATM    8  CA  UNL     1     -10.487   8.428  72.271  1.00  0.00    -0.337 C  
HETATM    9  C   UNL     1      -6.793   6.574  70.499  1.00  0.00    -0.062 C  
HETATM   10  O   UNL     1      -6.217   7.437  71.355  1.00  0.00    -0.036 OA 
HETATM   11  O   UNL     1      -7.958   9.066  72.204  1.00  0.00    -0.356 OA 
HETATM   12  C   UNL     1      -8.938   8.375  72.037  1.00  0.00    -0.223 C  
ENDROOT
BRANCH   4  13
HETATM   13  C   UNL     1      -8.170   4.397  68.982  1.00  0.00    -0.079 C  
BRANCH  13  14
HETATM   14  O   UNL     1      -8.745   4.442  67.658  1.00  0.00    -0.102 OA 
BRANCH  14  15
HETATM   15  C   UNL     1      -8.376   5.486  66.868  1.00  0.00    -0.108 C  
HETATM   16  C   UNL     1      -7.000   5.268  66.314  1.00  0.00    -0.067 C  
HETATM   17  O   UNL     1      -9.070   6.453  66.589  1.00  0.00    -0.136 OA 
ENDBRANCH  14  15
ENDBRANCH  13  14
ENDBRANCH   4  13
BRANCH   8  18
HETATM   18  N   UNL     1     -11.230   9.344  71.376  1.00  0.00    -0.358 N  
HETATM   19  H   UNL     1     -10.736   9.712  70.562  1.00  0.00     0.000 HD 
HETATM   20  C   UNL     1     -12.534   9.738  71.557  1.00  0.00    -0.403 C  
HETATM   21  O   UNL     1     -13.238   9.327  72.472  1.00  0.00    -0.437 OA 
BRANCH  20  22
HETATM   22  CA  UNL     1     -13.011  10.751  70.483  1.00  0.00    -0.184 C  
HETATM   23  H2  UNL     1     -12.376   9.532  68.893  1.00  0.00     0.000 HD 
HETATM   24  N   UNL     1     -12.283  10.498  69.206  1.00  0.00    -0.669 NA 
HETATM   25  H1  UNL     1     -12.596  11.164  68.500  1.00  0.00     0.000 HD 
BRANCH  22  26
HETATM   26  C   UNL     1     -12.842  12.183  70.956  1.00  0.00    -0.258 A  
HETATM   27  C   UNL     1     -13.528  12.612  72.104  1.00  0.00    -0.561 A  
HETATM   28  C   UNL     1     -13.402  13.926  72.562  1.00  0.00    -0.656 A  
HETATM   29  C   UNL     1     -12.582  14.826  71.886  1.00  0.00    -0.404 A  
HETATM   30  C   UNL     1     -11.876  14.412  70.760  1.00  0.00    -0.349 A  
HETATM   31  C   UNL     1     -11.999  13.097  70.302  1.00  0.00    -0.366 A  
ENDBRANCH  22  26
ENDBRANCH  20  22
ENDBRANCH   8  18
TORSDOF 6
ENDMDL
MODEL       55
REMARK 921   NORMALIZED FREE ENERGY PREDICTED BY IDOCK:   -5.44 KCAL/MOL
REMARK 922        TOTAL FREE ENERGY PREDICTED BY IDOCK:   -8.38 KCAL/MOL
REMARK 923 INTER-LIGAND FREE ENERGY PREDICTED BY IDOCK:   -7.20 KCAL/MOL
REMARK 924 INTRA-LIGAND FREE ENERGY PREDICTED BY IDOCK:   -1.18 KCAL/MOL
REMARK 927      BINDING AFFINITY PREDICTED BY RF-SCORE:    0.00 PKD
ROOT
HETATM    1  C   UNL     1      -8.465  12.019  66.903  1.00  0.00    -0.172 C  
HETATM    2  S   UNL     1      -7.399  12.436  68.302  1.00  0.00    -0.122 SA 
HETATM    3  C   UNL     1      -6.573  10.838  68.304  1.00  0.00    -0.058 C  
HETATM    4  C   UNL     1      -7.488   9.631  68.206  1.00  0.00    -0.077 C  
HETATM    5  OXT UNL     1      -9.306   7.400  68.354  1.00  0.00    -0.144 OA 
HETATM    6  CA  UNL     1      -8.765   9.673  67.721  1.00  0.00    -0.122 C  
HETATM    7  N   UNL     1      -9.262  10.853  67.236  1.00  0.00    -0.151 N  
HETATM    8  CA  UNL     1      -9.805  12.824  66.830  1.00  0.00    -0.236 C  
HETATM    9  C   UNL     1      -9.645   8.434  67.797  1.00  0.00    -0.156 C  
HETATM   10  O   UNL     1     -10.824   8.474  67.150  1.00  0.00    -0.216 OA 
HETATM   11  O   UNL     1     -11.549  10.884  66.875  1.00  0.00    -0.327 OA 
HETATM   12  C   UNL     1     -10.457  11.401  66.930  1.00  0.00    -0.240 C  
ENDROOT
BRANCH   4  13
HETATM   13  C   UNL     1      -6.831   8.385  68.803  1.00  0.00    -0.062 C  
BRANCH  13  14
HETATM   14  O   UNL     1      -6.591   8.572  70.214  1.00  0.00    -0.037 OA 
BRANCH  14  15
HETATM   15  C   UNL     1      -7.255   7.739  71.061  1.00  0.00    -0.054 C  
HETATM   16  C   UNL     1      -8.425   8.442  71.684  1.00  0.00    -0.213 C  
HETATM   17  O   UNL     1      -6.988   6.564  71.264  1.00  0.00    -0.071 OA 
ENDBRANCH  14  15
ENDBRANCH  13  14
ENDBRANCH   4  13
BRANCH   8  18
HETATM   18  N   UNL     1     -10.064  13.718  67.981  1.00  0.00    -0.238 N  
HETATM   19  H   UNL     1      -9.313  13.842  68.660  1.00  0.00     0.000 HD 
HETATM   20  C   UNL     1     -11.239  14.395  68.205  1.00  0.00    -0.275 C  
HETATM   21  O   UNL     1     -12.193  14.357  67.435  1.00  0.00    -0.364 OA 
BRANCH  20  22
HETATM   22  CA  UNL     1     -11.225  15.204  69.528  1.00  0.00    -0.273 C  
HETATM   23  H2  UNL     1      -9.153  15.543  69.426  1.00  0.00     0.000 HD 
HETATM   24  N   UNL     1      -9.844  15.203  70.094  1.00  0.00    -0.483 NA 
HETATM   25  H1  UNL     1      -9.834  15.735  70.964  1.00  0.00     0.000 HD 
BRANCH  22  26
HETATM   26  C   UNL     1     -12.242  14.669  70.519  1.00  0.00    -0.389 A  
HETATM   27  C   UNL     1     -13.153  15.556  71.114  1.00  0.00    -0.573 A  
HETATM   28  C   UNL     1     -14.097  15.098  72.037  1.00  0.00    -0.659 A  
HETATM   29  C   UNL     1     -14.150  13.746  72.369  1.00  0.00    -0.593 A  
HETATM   30  C   UNL     1     -13.270  12.849  71.772  1.00  0.00    -0.479 A  
HETATM   31  C   UNL     1     -12.327  13.305  70.847  1.00  0.00    -0.413 A  
ENDBRANCH  22  26
ENDBRANCH  20  22
ENDBRANCH   8  18
TORSDOF 6
ENDMDL
MODEL       56
REMARK 921   NORMALIZED FREE ENERGY PREDICTED BY IDOCK:   -5.43 KCAL/MOL
REMARK 922        TOTAL FREE ENERGY PREDICTED BY IDOCK:   -8.38 KCAL/MOL
REMARK 923 INTER-LIGAND FREE ENERGY PREDICTED BY IDOCK:   -7.56 KCAL/MOL
REMARK 924 INTRA-LIGAND FREE ENERGY PREDICTED BY IDOCK:   -0.82 KCAL/MOL
REMARK 927      BINDING AFFINITY PREDICTED BY RF-SCORE:    0.00 PKD
ROOT
HETATM    1  C   UNL     1     -11.853  15.083  68.970  1.00  0.00    -0.300 C  
HETATM    2  S   UNL     1     -10.682  15.313  70.327  1.00  0.00    -0.215 SA 
HETATM    3  C   UNL     1     -10.071  16.882  69.696  1.00  0.00     0.018 C  
HETATM    4  C   UNL     1      -9.739  16.903  68.214  1.00  0.00    -0.256 C  
HETATM    5  OXT UNL     1      -8.823  16.763  65.487  1.00  0.00    -0.354 OA 
HETATM    6  CA  UNL     1     -10.236  16.015  67.303  1.00  0.00    -0.277 C  
HETATM    7  N   UNL     1     -11.134  15.063  67.711  1.00  0.00    -0.299 N  
HETATM    8  CA  UNL     1     -12.250  13.597  68.682  1.00  0.00    -0.154 C  
HETATM    9  C   UNL     1      -9.729  16.037  65.869  1.00  0.00    -0.343 C  
HETATM   10  O   UNL     1     -10.373  15.266  64.975  1.00  0.00    -0.388 OA 
HETATM   11  O   UNL     1     -11.534  13.370  66.184  1.00  0.00    -0.311 OA 
HETATM   12  C   UNL     1     -11.648  13.898  67.266  1.00  0.00    -0.365 C  
ENDROOT
BRANCH   4  13
HETATM   13  C   UNL     1      -8.710  17.988  67.891  1.00  0.00    -0.257 C  
BRANCH  13  14
HETATM   14  O   UNL     1      -7.372  17.491  68.112  1.00  0.00    -0.204 OA 
BRANCH  14  15
HETATM   15  C   UNL     1      -6.630  18.134  69.054  1.00  0.00    -0.250 C  
HETATM   16  C   UNL     1      -6.186  17.177  70.119  1.00  0.00     0.094 C  
HETATM   17  O   UNL     1      -6.312  19.314  69.031  1.00  0.00    -0.250 OA 
ENDBRANCH  14  15
ENDBRANCH  13  14
ENDBRANCH   4  13
BRANCH   8  18
HETATM   18  N   UNL     1     -11.516  12.586  69.478  1.00  0.00    -0.418 N  
HETATM   19  H   UNL     1     -10.958  12.919  70.264  1.00  0.00     0.000 HD 
HETATM   20  C   UNL     1     -11.529  11.233  69.238  1.00  0.00    -0.301 C  
HETATM   21  O   UNL     1     -12.198  10.715  68.350  1.00  0.00    -0.372 OA 
BRANCH  20  22
HETATM   22  CA  UNL     1     -10.612  10.441  70.207  1.00  0.00    -0.123 C  
HETATM   23  H2  UNL     1      -8.908  10.739  69.013  1.00  0.00     0.000 HD 
HETATM   24  N   UNL     1      -9.401   9.973  69.471  1.00  0.00    -0.220 NA 
HETATM   25  H1  UNL     1      -8.799   9.453  70.108  1.00  0.00     0.000 HD 
BRANCH  22  26
HETATM   26  C   UNL     1     -11.356   9.292  70.861  1.00  0.00    -0.373 A  
HETATM   27  C   UNL     1     -10.934   7.975  70.619  1.00  0.00    -0.250 A  
HETATM   28  C   UNL     1     -11.601   6.893  71.198  1.00  0.00    -0.363 A  
HETATM   29  C   UNL     1     -12.692   7.113  72.036  1.00  0.00    -0.229 A  
HETATM   30  C   UNL     1     -13.110   8.412  72.306  1.00  0.00    -0.316 A  
HETATM   31  C   UNL     1     -12.442   9.495  71.729  1.00  0.00    -0.484 A  
ENDBRANCH  22  26
ENDBRANCH  20  22
ENDBRANCH   8  18
TORSDOF 6
ENDMDL
MODEL       57
REMARK 921   NORMALIZED FREE ENERGY PREDICTED BY IDOCK:   -5.42 KCAL/MOL
REMARK 922        TOTAL FREE ENERGY PREDICTED BY IDOCK:   -8.35 KCAL/MOL
REMARK 923 INTER-LIGAND FREE ENERGY PREDICTED BY IDOCK:   -7.42 KCAL/MOL
REMARK 924 INTRA-LIGAND FREE ENERGY PREDICTED BY IDOCK:   -0.93 KCAL/MOL
REMARK 927      BINDING AFFINITY PREDICTED BY RF-SCORE:    0.00 PKD
ROOT
HETATM    1  C   UNL     1      -9.460   9.058  71.158  1.00  0.00    -0.278 C  
HETATM    2  S   UNL     1     -11.198   9.401  71.515  1.00  0.00    -0.362 SA 
HETATM    3  C   UNL     1     -11.412   7.920  72.513  1.00  0.00    -0.398 C  
HETATM    4  C   UNL     1     -10.858   6.642  71.909  1.00  0.00    -0.267 C  
HETATM    5  OXT UNL     1     -10.084   4.223  70.549  1.00  0.00    -0.191 OA 
HETATM    6  CA  UNL     1      -9.902   6.605  70.933  1.00  0.00    -0.183 C  
HETATM    7  N   UNL     1      -9.350   7.777  70.487  1.00  0.00    -0.163 N  
HETATM    8  CA  UNL     1      -8.913   9.711  69.845  1.00  0.00    -0.221 C  
HETATM    9  C   UNL     1      -9.519   5.277  70.297  1.00  0.00    -0.168 C  
HETATM   10  O   UNL     1      -8.456   5.271  69.474  1.00  0.00    -0.093 OA 
HETATM   11  O   UNL     1      -8.098   7.599  68.548  1.00  0.00    -0.121 OA 
HETATM   12  C   UNL     1      -8.630   8.223  69.437  1.00  0.00    -0.134 C  
ENDROOT
BRANCH   4  13
HETATM   13  C   UNL     1     -11.571   5.409  72.466  1.00  0.00    -0.159 C  
BRANCH  13  14
HETATM   14  O   UNL     1     -11.091   5.110  73.795  1.00  0.00    -0.297 OA 
BRANCH  14  15
HETATM   15  C   UNL     1     -10.416   3.939  73.950  1.00  0.00    -0.198 C  
HETATM   16  C   UNL     1     -11.280   2.777  73.561  1.00  0.00    -0.300 C  
HETATM   17  O   UNL     1      -9.252   3.825  74.306  1.00  0.00    -0.089 OA 
ENDBRANCH  14  15
ENDBRANCH  13  14
ENDBRANCH   4  13
BRANCH   8  18
HETATM   18  N   UNL     1      -9.926  10.409  69.022  1.00  0.00    -0.204 N  
HETATM   19  H   UNL     1     -10.848   9.979  68.943  1.00  0.00     0.000 HD 
HETATM   20  C   UNL     1      -9.720  11.594  68.355  1.00  0.00    -0.199 C  
HETATM   21  O   UNL     1      -8.669  12.222  68.414  1.00  0.00    -0.182 OA 
BRANCH  20  22
HETATM   22  CA  UNL     1     -10.954  12.041  67.530  1.00  0.00    -0.253 C  
HETATM   23  H2  UNL     1     -12.311  11.366  68.986  1.00  0.00     0.000 HD 
HETATM   24  N   UNL     1     -12.155  11.280  67.982  1.00  0.00    -0.657 NA 
HETATM   25  H1  UNL     1     -12.966  11.575  67.439  1.00  0.00     0.000 HD 
BRANCH  22  26
HETATM   26  C   UNL     1     -10.713  11.884  66.040  1.00  0.00    -0.326 A  
HETATM   27  C   UNL     1     -11.250  12.832  65.154  1.00  0.00    -0.327 A  
HETATM   28  C   UNL     1     -11.055  12.713  63.776  1.00  0.00    -0.504 A  
HETATM   29  C   UNL     1     -10.312  11.651  63.265  1.00  0.00    -0.444 A  
HETATM   30  C   UNL     1      -9.752  10.715  64.130  1.00  0.00    -0.378 A  
HETATM   31  C   UNL     1      -9.944  10.835  65.508  1.00  0.00    -0.321 A  
ENDBRANCH  22  26
ENDBRANCH  20  22
ENDBRANCH   8  18
TORSDOF 6
ENDMDL
MODEL       58
REMARK 921   NORMALIZED FREE ENERGY PREDICTED BY IDOCK:   -5.41 KCAL/MOL
REMARK 922        TOTAL FREE ENERGY PREDICTED BY IDOCK:   -8.34 KCAL/MOL
REMARK 923 INTER-LIGAND FREE ENERGY PREDICTED BY IDOCK:   -7.39 KCAL/MOL
REMARK 924 INTRA-LIGAND FREE ENERGY PREDICTED BY IDOCK:   -0.95 KCAL/MOL
REMARK 927      BINDING AFFINITY PREDICTED BY RF-SCORE:    0.00 PKD
ROOT
HETATM    1  C   UNL     1      -8.143   9.154  68.390  1.00  0.00    -0.104 C  
HETATM    2  S   UNL     1      -7.954   9.824  70.058  1.00  0.00    -0.183 SA 
HETATM    3  C   UNL     1      -7.698   8.209  70.808  1.00  0.00    -0.080 C  
HETATM    4  C   UNL     1      -8.678   7.130  70.383  1.00  0.00    -0.150 C  
HETATM    5  OXT UNL     1     -10.770   5.243  69.782  1.00  0.00    -0.286 OA 
HETATM    6  CA  UNL     1      -9.420   7.176  69.236  1.00  0.00    -0.152 C  
HETATM    7  N   UNL     1      -9.254   8.222  68.368  1.00  0.00    -0.136 N  
HETATM    8  CA  UNL     1      -8.970  10.049  67.407  1.00  0.00    -0.131 C  
HETATM    9  C   UNL     1     -10.476   6.112  68.974  1.00  0.00    -0.248 C  
HETATM   10  O   UNL     1     -11.052   6.100  67.759  1.00  0.00    -0.326 OA 
HETATM   11  O   UNL     1     -10.873   8.402  66.722  1.00  0.00    -0.172 OA 
HETATM   12  C   UNL     1      -9.902   8.791  67.330  1.00  0.00    -0.201 C  
ENDROOT
BRANCH   4  13
HETATM   13  C   UNL     1      -8.794   6.035  71.444  1.00  0.00    -0.136 C  
BRANCH  13  14
HETATM   14  O   UNL     1      -9.281   6.590  72.685  1.00  0.00    -0.139 OA 
BRANCH  14  15
HETATM   15  C   UNL     1     -10.631   6.611  72.855  1.00  0.00    -0.245 C  
HETATM   16  C   UNL     1     -11.136   5.252  73.239  1.00  0.00    -0.376 C  
HETATM   17  O   UNL     1     -11.348   7.597  72.766  1.00  0.00    -0.356 OA 
ENDBRANCH  14  15
ENDBRANCH  13  14
ENDBRANCH   4  13
BRANCH   8  18
HETATM   18  N   UNL     1      -9.582  11.251  68.018  1.00  0.00    -0.174 N  
HETATM   19  H   UNL     1      -9.179  11.595  68.889  1.00  0.00     0.000 HD 
HETATM   20  C   UNL     1     -10.652  11.940  67.499  1.00  0.00    -0.219 C  
HETATM   21  O   UNL     1     -11.188  11.646  66.436  1.00  0.00    -0.313 OA 
BRANCH  20  22
HETATM   22  CA  UNL     1     -11.101  13.120  68.400  1.00  0.00    -0.268 C  
HETATM   23  H2  UNL     1      -9.408  14.271  67.925  1.00  0.00     0.000 HD 
HETATM   24  N   UNL     1      -9.915  13.954  68.751  1.00  0.00    -0.366 NA 
HETATM   25  H1  UNL     1     -10.210  14.730  69.343  1.00  0.00     0.000 HD 
BRANCH  22  26
HETATM   26  C   UNL     1     -11.833  12.629  69.636  1.00  0.00    -0.379 A  
HETATM   27  C   UNL     1     -12.354  13.566  70.543  1.00  0.00    -0.412 A  
HETATM   28  C   UNL     1     -13.025  13.148  71.695  1.00  0.00    -0.429 A  
HETATM   29  C   UNL     1     -13.193  11.790  71.951  1.00  0.00    -0.468 A  
HETATM   30  C   UNL     1     -12.704  10.847  71.051  1.00  0.00    -0.505 A  
HETATM   31  C   UNL     1     -12.035  11.263  69.898  1.00  0.00    -0.440 A  
ENDBRANCH  22  26
ENDBRANCH  20  22
ENDBRANCH   8  18
TORSDOF 6
ENDMDL
MODEL       59
REMARK 921   NORMALIZED FREE ENERGY PREDICTED BY IDOCK:   -5.41 KCAL/MOL
REMARK 922        TOTAL FREE ENERGY PREDICTED BY IDOCK:   -8.34 KCAL/MOL
REMARK 923 INTER-LIGAND FREE ENERGY PREDICTED BY IDOCK:   -7.28 KCAL/MOL
REMARK 924 INTRA-LIGAND FREE ENERGY PREDICTED BY IDOCK:   -1.06 KCAL/MOL
REMARK 927      BINDING AFFINITY PREDICTED BY RF-SCORE:    0.00 PKD
ROOT
HETATM    1  C   UNL     1     -12.184  11.120  68.743  1.00  0.00    -0.010 C  
HETATM    2  S   UNL     1     -11.341  12.201  67.565  1.00  0.00    -0.346 SA 
HETATM    3  C   UNL     1     -10.840  10.845  66.494  1.00  0.00    -0.171 C  
HETATM    4  C   UNL     1     -10.233   9.647  67.201  1.00  0.00    -0.305 C  
HETATM    5  OXT UNL     1      -8.794   7.568  68.581  1.00  0.00    -0.128 OA 
HETATM    6  CA  UNL     1     -10.416   9.362  68.525  1.00  0.00    -0.208 C  
HETATM    7  N   UNL     1     -11.238  10.160  69.277  1.00  0.00    -0.219 N  
HETATM    8  CA  UNL     1     -12.310  11.693  70.194  1.00  0.00    -0.219 C  
HETATM    9  C   UNL     1      -9.649   8.216  69.167  1.00  0.00    -0.157 C  
HETATM   10  O   UNL     1      -9.995   7.866  70.418  1.00  0.00    -0.190 OA 
HETATM   11  O   UNL     1     -11.099   9.834  71.566  1.00  0.00    -0.343 OA 
HETATM   12  C   UNL     1     -11.491  10.412  70.578  1.00  0.00    -0.345 C  
ENDROOT
BRANCH   4  13
HETATM   13  C   UNL     1      -9.319   8.854  66.265  1.00  0.00    -0.219 C  
BRANCH  13  14
HETATM   14  O   UNL     1      -8.278   9.707  65.740  1.00  0.00    -0.116 OA 
BRANCH  14  15
HETATM   15  C   UNL     1      -8.060   9.647  64.398  1.00  0.00    -0.141 C  
HETATM   16  C   UNL     1      -6.606   9.845  64.090  1.00  0.00    -0.126 C  
HETATM   17  O   UNL     1      -8.905   9.414  63.546  1.00  0.00    -0.223 OA 
ENDBRANCH  14  15
ENDBRANCH  13  14
ENDBRANCH   4  13
BRANCH   8  18
HETATM   18  N   UNL     1     -11.613  12.979  70.423  1.00  0.00    -0.511 N  
HETATM   19  H   UNL     1     -10.608  13.009  70.250  1.00  0.00     0.000 HD 
HETATM   20  C   UNL     1     -12.217  14.137  70.853  1.00  0.00    -0.363 C  
HETATM   21  O   UNL     1     -13.424  14.231  71.050  1.00  0.00    -0.326 OA 
BRANCH  20  22
HETATM   22  CA  UNL     1     -11.211  15.300  71.057  1.00  0.00    -0.335 C  
HETATM   23  H2  UNL     1     -12.384  16.198  72.552  1.00  0.00     0.000 HD 
HETATM   24  N   UNL     1     -11.912  16.457  71.686  1.00  0.00    -0.657 NA 
HETATM   25  H1  UNL     1     -11.251  17.221  71.820  1.00  0.00     0.000 HD 
BRANCH  22  26
HETATM   26  C   UNL     1     -10.536  15.687  69.755  1.00  0.00    -0.308 A  
HETATM   27  C   UNL     1     -11.315  16.198  68.704  1.00  0.00    -0.365 A  
HETATM   28  C   UNL     1     -10.728  16.557  67.488  1.00  0.00    -0.283 A  
HETATM   29  C   UNL     1      -9.354  16.419  67.309  1.00  0.00    -0.227 A  
HETATM   30  C   UNL     1      -8.563  15.936  68.347  1.00  0.00    -0.178 A  
HETATM   31  C   UNL     1      -9.148  15.580  69.564  1.00  0.00    -0.260 A  
ENDBRANCH  22  26
ENDBRANCH  20  22
ENDBRANCH   8  18
TORSDOF 6
ENDMDL
MODEL       60
REMARK 921   NORMALIZED FREE ENERGY PREDICTED BY IDOCK:   -5.40 KCAL/MOL
REMARK 922        TOTAL FREE ENERGY PREDICTED BY IDOCK:   -8.33 KCAL/MOL
REMARK 923 INTER-LIGAND FREE ENERGY PREDICTED BY IDOCK:   -7.49 KCAL/MOL
REMARK 924 INTRA-LIGAND FREE ENERGY PREDICTED BY IDOCK:   -0.83 KCAL/MOL
REMARK 927      BINDING AFFINITY PREDICTED BY RF-SCORE:    0.00 PKD
ROOT
HETATM    1  C   UNL     1      -8.109  10.769  66.906  1.00  0.00    -0.132 C  
HETATM    2  S   UNL     1      -9.071  11.505  68.247  1.00  0.00    -0.187 SA 
HETATM    3  C   UNL     1      -8.718  10.168  69.397  1.00  0.00    -0.176 C  
HETATM    4  C   UNL     1      -8.889   8.766  68.839  1.00  0.00    -0.137 C  
HETATM    5  OXT UNL     1      -9.557   6.161  67.807  1.00  0.00    -0.115 OA 
HETATM    6  CA  UNL     1      -8.877   8.463  67.507  1.00  0.00    -0.135 C  
HETATM    7  N   UNL     1      -8.645   9.457  66.593  1.00  0.00    -0.129 N  
HETATM    8  CA  UNL     1      -8.538  11.207  65.466  1.00  0.00    -0.045 C  
HETATM    9  C   UNL     1      -9.198   7.049  67.048  1.00  0.00    -0.147 C  
HETATM   10  O   UNL     1      -9.000   6.761  65.749  1.00  0.00    -0.122 OA 
HETATM   11  O   UNL     1      -9.097   8.895  64.392  1.00  0.00    -0.017 OA 
HETATM   12  C   UNL     1      -8.794   9.672  65.269  1.00  0.00    -0.171 C  
ENDROOT
BRANCH   4  13
HETATM   13  C   UNL     1      -9.168   7.755  69.952  1.00  0.00    -0.146 C  
BRANCH  13  14
HETATM   14  O   UNL     1     -10.489   7.962  70.499  1.00  0.00    -0.208 OA 
BRANCH  14  15
HETATM   15  C   UNL     1     -10.785   7.294  71.646  1.00  0.00    -0.215 C  
HETATM   16  C   UNL     1     -10.416   8.114  72.846  1.00  0.00    -0.338 C  
HETATM   17  O   UNL     1     -11.325   6.199  71.718  1.00  0.00    -0.275 OA 
ENDBRANCH  14  15
ENDBRANCH  13  14
ENDBRANCH   4  13
BRANCH   8  18
HETATM   18  N   UNL     1      -9.746  12.061  65.404  1.00  0.00    -0.342 N  
HETATM   19  H   UNL     1     -10.080  12.470  66.276  1.00  0.00     0.000 HD 
HETATM   20  C   UNL     1     -10.451  12.346  64.259  1.00  0.00    -0.363 C  
HETATM   21  O   UNL     1     -10.118  11.948  63.148  1.00  0.00    -0.425 OA 
BRANCH  20  22
HETATM   22  CA  UNL     1     -11.704  13.220  64.527  1.00  0.00    -0.378 C  
HETATM   23  H2  UNL     1     -12.340  13.116  62.526  1.00  0.00     0.000 HD 
HETATM   24  N   UNL     1     -12.172  13.821  63.244  1.00  0.00    -1.096 NA 
HETATM   25  H1  UNL     1     -12.996  14.396  63.420  1.00  0.00     0.000 HD 
BRANCH  22  26
HETATM   26  C   UNL     1     -11.429  14.278  65.580  1.00  0.00    -0.329 A  
HETATM   27  C   UNL     1     -10.663  15.403  65.238  1.00  0.00    -0.439 A  
HETATM   28  C   UNL     1     -10.384  16.392  66.185  1.00  0.00    -0.354 A  
HETATM   29  C   UNL     1     -10.875  16.274  67.483  1.00  0.00    -0.268 A  
HETATM   30  C   UNL     1     -11.656  15.177  67.833  1.00  0.00    -0.326 A  
HETATM   31  C   UNL     1     -11.938  14.189  66.887  1.00  0.00    -0.479 A  
ENDBRANCH  22  26
ENDBRANCH  20  22
ENDBRANCH   8  18
TORSDOF 6
ENDMDL
MODEL       61
REMARK 921   NORMALIZED FREE ENERGY PREDICTED BY IDOCK:   -5.35 KCAL/MOL
REMARK 922        TOTAL FREE ENERGY PREDICTED BY IDOCK:   -8.27 KCAL/MOL
REMARK 923 INTER-LIGAND FREE ENERGY PREDICTED BY IDOCK:   -7.22 KCAL/MOL
REMARK 924 INTRA-LIGAND FREE ENERGY PREDICTED BY IDOCK:   -1.04 KCAL/MOL
REMARK 927      BINDING AFFINITY PREDICTED BY RF-SCORE:    0.00 PKD
ROOT
HETATM    1  C   UNL     1     -11.930  12.832  66.027  1.00  0.00    -0.432 C  
HETATM    2  S   UNL     1     -10.973  13.171  64.532  1.00  0.00    -0.393 SA 
HETATM    3  C   UNL     1     -10.454  11.461  64.330  1.00  0.00    -0.342 C  
HETATM    4  C   UNL     1      -9.939  10.783  65.587  1.00  0.00    -0.317 C  
HETATM    5  OXT UNL     1      -8.672   9.685  67.929  1.00  0.00    -0.119 OA 
HETATM    6  CA  UNL     1     -10.219  11.204  66.856  1.00  0.00    -0.222 C  
HETATM    7  N   UNL     1     -11.057  12.272  67.042  1.00  0.00    -0.271 N  
HETATM    8  CA  UNL     1     -12.128  14.058  66.979  1.00  0.00    -0.420 C  
HETATM    9  C   UNL     1      -9.538  10.539  68.043  1.00  0.00    -0.148 C  
HETATM   10  O   UNL     1      -9.978  10.868  69.271  1.00  0.00    -0.196 OA 
HETATM   11  O   UNL     1     -11.079  13.145  69.186  1.00  0.00    -0.245 OA 
HETATM   12  C   UNL     1     -11.385  13.146  68.015  1.00  0.00    -0.292 C  
ENDROOT
BRANCH   4  13
HETATM   13  C   UNL     1      -8.997   9.627  65.249  1.00  0.00    -0.204 C  
BRANCH  13  14
HETATM   14  O   UNL     1      -7.708  10.135  64.837  1.00  0.00    -0.139 OA 
BRANCH  14  15
HETATM   15  C   UNL     1      -7.318   9.848  63.566  1.00  0.00    -0.132 C  
HETATM   16  C   UNL     1      -7.244   8.365  63.357  1.00  0.00    -0.093 C  
HETATM   17  O   UNL     1      -7.102  10.665  62.682  1.00  0.00    -0.126 OA 
ENDBRANCH  14  15
ENDBRANCH  13  14
ENDBRANCH   4  13
BRANCH   8  18
HETATM   18  N   UNL     1     -11.401  15.285  66.582  1.00  0.00    -0.236 N  
HETATM   19  H   UNL     1     -11.069  15.346  65.619  1.00  0.00     0.000 HD 
HETATM   20  C   UNL     1     -11.137  16.349  67.412  1.00  0.00    -0.062 C  
HETATM   21  O   UNL     1     -11.525  16.405  68.574  1.00  0.00    -0.351 OA 
BRANCH  20  22
HETATM   22  CA  UNL     1     -10.303  17.458  66.720  1.00  0.00    -0.305 C  
HETATM   23  H2  UNL     1     -11.421  17.344  64.944  1.00  0.00     0.000 HD 
HETATM   24  N   UNL     1     -10.445  17.335  65.240  1.00  0.00    -0.656 NA 
HETATM   25  H1  UNL     1      -9.897  18.064  64.785  1.00  0.00     0.000 HD 
BRANCH  22  26
HETATM   26  C   UNL     1      -8.850  17.414  67.154  1.00  0.00    -0.242 A  
HETATM   27  C   UNL     1      -7.912  16.753  66.345  1.00  0.00    -0.356 A  
HETATM   28  C   UNL     1      -6.567  16.685  66.719  1.00  0.00    -0.217 A  
HETATM   29  C   UNL     1      -6.140  17.286  67.901  1.00  0.00    -0.148 A  
HETATM   30  C   UNL     1      -7.051  17.966  68.703  1.00  0.00    -0.266 A  
HETATM   31  C   UNL     1      -8.396  18.036  68.329  1.00  0.00    -0.295 A  
ENDBRANCH  22  26
ENDBRANCH  20  22
ENDBRANCH   8  18
TORSDOF 6
ENDMDL
MODEL       62
REMARK 921   NORMALIZED FREE ENERGY PREDICTED BY IDOCK:   -5.34 KCAL/MOL
REMARK 922        TOTAL FREE ENERGY PREDICTED BY IDOCK:   -8.25 KCAL/MOL
REMARK 923 INTER-LIGAND FREE ENERGY PREDICTED BY IDOCK:   -8.67 KCAL/MOL
REMARK 924 INTRA-LIGAND FREE ENERGY PREDICTED BY IDOCK:    0.42 KCAL/MOL
REMARK 927      BINDING AFFINITY PREDICTED BY RF-SCORE:    0.00 PKD
ROOT
HETATM    1  C   UNL     1     -12.268  14.068  67.038  1.00  0.00    -0.352 C  
HETATM    2  S   UNL     1     -11.896  12.859  68.329  1.00  0.00    -0.281 SA 
HETATM    3  C   UNL     1     -12.345  13.971  69.670  1.00  0.00    -0.260 C  
HETATM    4  C   UNL     1     -11.778  15.375  69.569  1.00  0.00    -0.364 C  
HETATM    5  OXT UNL     1     -10.396  17.901  69.475  1.00  0.00    -0.134 OA 
HETATM    6  CA  UNL     1     -11.336  15.944  68.408  1.00  0.00    -0.361 C  
HETATM    7  N   UNL     1     -11.448  15.248  67.233  1.00  0.00    -0.281 N  
HETATM    8  CA  UNL     1     -11.507  13.851  65.689  1.00  0.00    -0.318 C  
HETATM    9  C   UNL     1     -10.655  17.304  68.441  1.00  0.00    -0.368 C  
HETATM   10  O   UNL     1     -10.401  17.896  67.260  1.00  0.00    -0.343 OA 
HETATM   11  O   UNL     1     -10.265  16.132  65.449  1.00  0.00    -0.479 OA 
HETATM   12  C   UNL     1     -10.946  15.285  65.981  1.00  0.00    -0.317 C  
ENDROOT
BRANCH   4  13
HETATM   13  C   UNL     1     -11.679  16.035  70.946  1.00  0.00    -0.402 C  
BRANCH  13  14
HETATM   14  O   UNL     1     -12.994  16.187  71.524  1.00  0.00    -0.271 OA 
BRANCH  14  15
HETATM   15  C   UNL     1     -13.283  15.401  72.596  1.00  0.00    -0.468 C  
HETATM   16  C   UNL     1     -12.407  15.755  73.761  1.00  0.00    -0.712 C  
HETATM   17  O   UNL     1     -14.163  14.554  72.647  1.00  0.00    -0.499 OA 
ENDBRANCH  14  15
ENDBRANCH  13  14
ENDBRANCH   4  13
BRANCH   8  18
HETATM   18  N   UNL     1     -10.501  12.764  65.703  1.00  0.00    -0.273 N  
HETATM   19  H   UNL     1     -10.727  11.905  65.202  1.00  0.00     0.000 HD 
HETATM   20  C   UNL     1      -9.284  12.825  66.341  1.00  0.00    -0.145 C  
HETATM   21  O   UNL     1      -8.887  13.821  66.934  1.00  0.00    -0.229 OA 
BRANCH  20  22
HETATM   22  CA  UNL     1      -8.478  11.505  66.224  1.00  0.00    -0.108 C  
HETATM   23  H2  UNL     1      -8.080  11.800  64.182  1.00  0.00     0.000 HD 
HETATM   24  N   UNL     1      -8.442  11.071  64.797  1.00  0.00    -0.376 NA 
HETATM   25  H1  UNL     1      -7.912  10.204  64.721  1.00  0.00     0.000 HD 
BRANCH  22  26
HETATM   26  C   UNL     1      -9.045  10.426  67.128  1.00  0.00    -0.152 A  
HETATM   27  C   UNL     1      -8.848  10.520  68.516  1.00  0.00    -0.144 A  
HETATM   28  C   UNL     1      -9.349   9.539  69.376  1.00  0.00    -0.185 A  
HETATM   29  C   UNL     1     -10.061   8.458  68.863  1.00  0.00    -0.209 A  
HETATM   30  C   UNL     1     -10.286   8.361  67.493  1.00  0.00    -0.333 A  
HETATM   31  C   UNL     1      -9.788   9.342  66.632  1.00  0.00    -0.311 A  
ENDBRANCH  22  26
ENDBRANCH  20  22
ENDBRANCH   8  18
TORSDOF 6
ENDMDL
MODEL       63
REMARK 921   NORMALIZED FREE ENERGY PREDICTED BY IDOCK:   -5.32 KCAL/MOL
REMARK 922        TOTAL FREE ENERGY PREDICTED BY IDOCK:   -8.22 KCAL/MOL
REMARK 923 INTER-LIGAND FREE ENERGY PREDICTED BY IDOCK:   -7.53 KCAL/MOL
REMARK 924 INTRA-LIGAND FREE ENERGY PREDICTED BY IDOCK:   -0.68 KCAL/MOL
REMARK 927      BINDING AFFINITY PREDICTED BY RF-SCORE:    0.00 PKD
ROOT
HETATM    1  C   UNL     1      -9.685  10.825  69.003  1.00  0.00    -0.187 C  
HETATM    2  S   UNL     1      -9.657   9.596  67.679  1.00  0.00    -0.145 SA 
HETATM    3  C   UNL     1      -9.471  10.823  66.377  1.00  0.00    -0.171 C  
HETATM    4  C   UNL     1     -10.404  12.017  66.470  1.00  0.00    -0.240 C  
HETATM    5  OXT UNL     1     -12.425  14.069  66.532  1.00  0.00    -0.442 OA 
HETATM    6  CA  UNL     1     -11.033  12.413  67.616  1.00  0.00    -0.236 C  
HETATM    7  N   UNL     1     -10.787  11.743  68.785  1.00  0.00    -0.219 N  
HETATM    8  CA  UNL     1     -10.415  10.373  70.311  1.00  0.00    -0.048 C  
HETATM    9  C   UNL     1     -12.057  13.537  67.569  1.00  0.00    -0.300 C  
HETATM   10  O   UNL     1     -12.515  14.005  68.744  1.00  0.00    -0.173 OA 
HETATM   11  O   UNL     1     -12.242  12.224  70.521  1.00  0.00    -0.360 OA 
HETATM   12  C   UNL     1     -11.334  11.608  70.011  1.00  0.00    -0.091 C  
ENDROOT
BRANCH   4  13
HETATM   13  C   UNL     1     -10.619  12.662  65.100  1.00  0.00    -0.298 C  
BRANCH  13  14
HETATM   14  O   UNL     1     -11.333  11.759  64.227  1.00  0.00    -0.340 OA 
BRANCH  14  15
HETATM   15  C   UNL     1     -12.396  12.276  63.553  1.00  0.00    -0.565 C  
HETATM   16  C   UNL     1     -12.234  13.755  63.366  1.00  0.00    -0.123 C  
HETATM   17  O   UNL     1     -13.338  11.639  63.106  1.00  0.00    -0.410 OA 
ENDBRANCH  14  15
ENDBRANCH  13  14
ENDBRANCH   4  13
BRANCH   8  18
HETATM   18  N   UNL     1     -11.085   9.055  70.232  1.00  0.00    -0.252 N  
HETATM   19  H   UNL     1     -11.211   8.644  69.306  1.00  0.00     0.000 HD 
HETATM   20  C   UNL     1     -11.551   8.341  71.311  1.00  0.00    -0.281 C  
HETATM   21  O   UNL     1     -11.414   8.714  72.471  1.00  0.00    -0.348 OA 
BRANCH  20  22
HETATM   22  CA  UNL     1     -12.259   7.024  70.900  1.00  0.00    -0.342 C  
HETATM   23  H2  UNL     1     -13.583   7.099  72.530  1.00  0.00     0.000 HD 
HETATM   24  N   UNL     1     -12.944   6.438  72.089  1.00  0.00    -0.457 NA 
HETATM   25  H1  UNL     1     -13.409   5.572  71.819  1.00  0.00     0.000 HD 
BRANCH  22  26
HETATM   26  C   UNL     1     -11.288   6.045  70.267  1.00  0.00    -0.336 A  
HETATM   27  C   UNL     1     -10.714   5.038  71.060  1.00  0.00    -0.066 A  
HETATM   28  C   UNL     1      -9.810   4.125  70.512  1.00  0.00    -0.252 A  
HETATM   29  C   UNL     1      -9.475   4.199  69.162  1.00  0.00    -0.248 A  
HETATM   30  C   UNL     1     -10.051   5.176  68.355  1.00  0.00    -0.205 A  
HETATM   31  C   UNL     1     -10.957   6.088  68.902  1.00  0.00    -0.395 A  
ENDBRANCH  22  26
ENDBRANCH  20  22
ENDBRANCH   8  18
TORSDOF 6
ENDMDL
MODEL       64
REMARK 921   NORMALIZED FREE ENERGY PREDICTED BY IDOCK:   -5.30 KCAL/MOL
REMARK 922        TOTAL FREE ENERGY PREDICTED BY IDOCK:   -8.19 KCAL/MOL
REMARK 923 INTER-LIGAND FREE ENERGY PREDICTED BY IDOCK:   -7.50 KCAL/MOL
REMARK 924 INTRA-LIGAND FREE ENERGY PREDICTED BY IDOCK:   -0.69 KCAL/MOL
REMARK 927      BINDING AFFINITY PREDICTED BY RF-SCORE:    0.00 PKD
ROOT
HETATM    1  C   UNL     1      -9.575  10.142  68.818  1.00  0.00    -0.170 C  
HETATM    2  S   UNL     1      -9.124   8.524  68.150  1.00  0.00    -0.137 SA 
HETATM    3  C   UNL     1      -8.514   9.199  66.598  1.00  0.00    -0.123 C  
HETATM    4  C   UNL     1      -9.418  10.221  65.933  1.00  0.00    -0.241 C  
HETATM    5  OXT UNL     1     -11.334  11.891  64.576  1.00  0.00    -0.329 OA 
HETATM    6  CA  UNL     1     -10.385  10.932  66.585  1.00  0.00    -0.239 C  
HETATM    7  N   UNL     1     -10.539  10.774  67.937  1.00  0.00    -0.204 N  
HETATM    8  CA  UNL     1     -10.697  10.119  69.909  1.00  0.00    -0.295 C  
HETATM    9  C   UNL     1     -11.329  11.827  65.797  1.00  0.00    -0.250 C  
HETATM   10  O   UNL     1     -12.142  12.637  66.499  1.00  0.00    -0.525 OA 
HETATM   11  O   UNL     1     -12.478  11.682  68.819  1.00  0.00    -0.272 OA 
HETATM   12  C   UNL     1     -11.458  11.036  68.890  1.00  0.00    -0.296 C  
ENDROOT
BRANCH   4  13
HETATM   13  C   UNL     1      -9.168  10.284  64.425  1.00  0.00    -0.252 C  
BRANCH  13  14
HETATM   14  O   UNL     1      -7.825   9.848  64.120  1.00  0.00    -0.131 OA 
BRANCH  14  15
HETATM   15  C   UNL     1      -7.673   9.072  63.013  1.00  0.00    -0.110 C  
HETATM   16  C   UNL     1      -6.220   8.907  62.680  1.00  0.00    -0.094 C  
HETATM   17  O   UNL     1      -8.574   8.529  62.390  1.00  0.00    -0.198 OA 
ENDBRANCH  14  15
ENDBRANCH  13  14
ENDBRANCH   4  13
BRANCH   8  18
HETATM   18  N   UNL     1     -11.313   8.794  70.147  1.00  0.00    -0.430 N  
HETATM   19  H   UNL     1     -11.148   8.065  69.453  1.00  0.00     0.000 HD 
HETATM   20  C   UNL     1     -12.091   8.471  71.233  1.00  0.00    -0.286 C  
HETATM   21  O   UNL     1     -12.320   9.251  72.151  1.00  0.00    -0.363 OA 
BRANCH  20  22
HETATM   22  CA  UNL     1     -12.642   7.022  71.168  1.00  0.00    -0.339 C  
HETATM   23  H2  UNL     1     -14.455   7.553  72.090  1.00  0.00     0.000 HD 
HETATM   24  N   UNL     1     -13.717   6.855  72.189  1.00  0.00    -0.538 NA 
HETATM   25  H1  UNL     1     -14.079   5.903  72.146  1.00  0.00     0.000 HD 
BRANCH  22  26
HETATM   26  C   UNL     1     -11.535   5.999  71.341  1.00  0.00    -0.265 A  
HETATM   27  C   UNL     1     -11.267   5.486  72.620  1.00  0.00    -0.348 A  
HETATM   28  C   UNL     1     -10.250   4.549  72.816  1.00  0.00    -0.233 A  
HETATM   29  C   UNL     1      -9.493   4.104  71.735  1.00  0.00    -0.210 A  
HETATM   30  C   UNL     1      -9.760   4.582  70.456  1.00  0.00    -0.290 A  
HETATM   31  C   UNL     1     -10.779   5.518  70.258  1.00  0.00    -0.333 A  
ENDBRANCH  22  26
ENDBRANCH  20  22
ENDBRANCH   8  18
TORSDOF 6
ENDMDL
MODEL       65
REMARK 921   NORMALIZED FREE ENERGY PREDICTED BY IDOCK:   -5.30 KCAL/MOL
REMARK 922        TOTAL FREE ENERGY PREDICTED BY IDOCK:   -8.19 KCAL/MOL
REMARK 923 INTER-LIGAND FREE ENERGY PREDICTED BY IDOCK:   -7.18 KCAL/MOL
REMARK 924 INTRA-LIGAND FREE ENERGY PREDICTED BY IDOCK:   -1.01 KCAL/MOL
REMARK 927      BINDING AFFINITY PREDICTED BY RF-SCORE:    0.00 PKD
ROOT
HETATM    1  C   UNL     1      -9.848  10.527  69.741  1.00  0.00    -0.005 C  
HETATM    2  S   UNL     1     -11.546  11.041  70.085  1.00  0.00    -0.327 SA 
HETATM    3  C   UNL     1     -11.947   9.538  70.989  1.00  0.00    -0.328 C  
HETATM    4  C   UNL     1     -11.523   8.243  70.321  1.00  0.00    -0.065 C  
HETATM    5  OXT UNL     1     -10.988   5.834  68.835  1.00  0.00    -0.286 OA 
HETATM    6  CA  UNL     1     -10.553   8.155  69.362  1.00  0.00    -0.200 C  
HETATM    7  N   UNL     1      -9.864   9.281  68.997  1.00  0.00    -0.162 N  
HETATM    8  CA  UNL     1      -9.199  11.187  68.479  1.00  0.00    -0.183 C  
HETATM    9  C   UNL     1     -10.304   6.831  68.656  1.00  0.00    -0.186 C  
HETATM   10  O   UNL     1      -9.227   6.753  67.853  1.00  0.00    -0.116 OA 
HETATM   11  O   UNL     1      -8.590   9.075  67.074  1.00  0.00    -0.115 OA 
HETATM   12  C   UNL     1      -9.073   9.703  67.989  1.00  0.00    -0.125 C  
ENDROOT
BRANCH   4  13
HETATM   13  C   UNL     1     -12.382   7.068  70.791  1.00  0.00    -0.258 C  
BRANCH  13  14
HETATM   14  O   UNL     1     -12.176   6.829  72.200  1.00  0.00    -0.291 OA 
BRANCH  14  15
HETATM   15  C   UNL     1     -11.044   6.159  72.546  1.00  0.00    -0.274 C  
HETATM   16  C   UNL     1     -10.290   6.908  73.604  1.00  0.00    -0.397 C  
HETATM   17  O   UNL     1     -10.693   5.073  72.108  1.00  0.00    -0.213 OA 
ENDBRANCH  14  15
ENDBRANCH  13  14
ENDBRANCH   4  13
BRANCH   8  18
HETATM   18  N   UNL     1     -10.108  12.041  67.680  1.00  0.00    -0.194 N  
HETATM   19  H   UNL     1     -10.822  11.574  67.121  1.00  0.00     0.000 HD 
HETATM   20  C   UNL     1     -10.063  13.414  67.635  1.00  0.00    -0.229 C  
HETATM   21  O   UNL     1      -9.278  14.082  68.299  1.00  0.00    -0.191 OA 
BRANCH  20  22
HETATM   22  CA  UNL     1     -11.107  14.017  66.659  1.00  0.00    -0.309 C  
HETATM   23  H2  UNL     1     -12.317  14.731  68.223  1.00  0.00     0.000 HD 
HETATM   24  N   UNL     1     -12.409  14.182  67.368  1.00  0.00    -0.562 NA 
HETATM   25  H1  UNL     1     -13.096  14.579  66.727  1.00  0.00     0.000 HD 
BRANCH  22  26
HETATM   26  C   UNL     1     -11.248  13.175  65.405  1.00  0.00    -0.315 A  
HETATM   27  C   UNL     1     -12.507  12.653  65.067  1.00  0.00    -0.556 A  
HETATM   28  C   UNL     1     -12.671  11.866  63.925  1.00  0.00    -0.413 A  
HETATM   29  C   UNL     1     -11.582  11.599  63.098  1.00  0.00    -0.109 A  
HETATM   30  C   UNL     1     -10.332  12.128  63.405  1.00  0.00    -0.438 A  
HETATM   31  C   UNL     1     -10.167  12.917  64.546  1.00  0.00    -0.334 A  
ENDBRANCH  22  26
ENDBRANCH  20  22
ENDBRANCH   8  18
TORSDOF 6
ENDMDL
MODEL       66
REMARK 921   NORMALIZED FREE ENERGY PREDICTED BY IDOCK:   -5.28 KCAL/MOL
REMARK 922        TOTAL FREE ENERGY PREDICTED BY IDOCK:   -8.17 KCAL/MOL
REMARK 923 INTER-LIGAND FREE ENERGY PREDICTED BY IDOCK:   -7.53 KCAL/MOL
REMARK 924 INTRA-LIGAND FREE ENERGY PREDICTED BY IDOCK:   -0.64 KCAL/MOL
REMARK 927      BINDING AFFINITY PREDICTED BY RF-SCORE:    0.00 PKD
ROOT
HETATM    1  C   UNL     1     -11.803  14.328  68.279  1.00  0.00    -0.335 C  
HETATM    2  S   UNL     1     -10.130  13.664  68.127  1.00  0.00    -0.250 SA 
HETATM    3  C   UNL     1     -10.631  11.981  68.519  1.00  0.00    -0.231 C  
HETATM    4  C   UNL     1     -11.545  11.837  69.722  1.00  0.00    -0.372 C  
HETATM    5  OXT UNL     1     -12.995  11.620  72.202  1.00  0.00    -0.379 OA 
HETATM    6  CA  UNL     1     -12.304  12.850  70.236  1.00  0.00    -0.223 C  
HETATM    7  N   UNL     1     -12.304  14.072  69.616  1.00  0.00    -0.316 N  
HETATM    8  CA  UNL     1     -11.882  15.853  68.620  1.00  0.00    -0.234 C  
HETATM    9  C   UNL     1     -13.077  12.638  71.529  1.00  0.00    -0.278 C  
HETATM   10  O   UNL     1     -13.943  13.599  71.895  1.00  0.00    -0.405 OA 
HETATM   11  O   UNL     1     -13.261  15.793  70.834  1.00  0.00    -0.560 OA 
HETATM   12  C   UNL     1     -12.654  15.346  69.888  1.00  0.00    -0.168 C  
ENDROOT
BRANCH   4  13
HETATM   13  C   UNL     1     -11.436  10.441  70.339  1.00  0.00    -0.337 C  
BRANCH  13  14
HETATM   14  O   UNL     1     -10.747   9.547  69.437  1.00  0.00    -0.221 OA 
BRANCH  14  15
HETATM   15  C   UNL     1     -10.959   8.216  69.619  1.00  0.00    -0.088 C  
HETATM   16  C   UNL     1     -11.590   7.959  70.954  1.00  0.00    -0.286 C  
HETATM   17  O   UNL     1     -10.726   7.336  68.802  1.00  0.00    -0.200 OA 
ENDBRANCH  14  15
ENDBRANCH  13  14
ENDBRANCH   4  13
BRANCH   8  18
HETATM   18  N   UNL     1     -10.580  16.503  68.892  1.00  0.00    -0.304 N  
HETATM   19  H   UNL     1     -10.088  16.235  69.745  1.00  0.00     0.000 HD 
HETATM   20  C   UNL     1      -9.982  17.440  68.083  1.00  0.00    -0.308 C  
HETATM   21  O   UNL     1     -10.458  17.804  67.013  1.00  0.00    -0.347 OA 
BRANCH  20  22
HETATM   22  CA  UNL     1      -8.651  17.979  68.669  1.00  0.00    -0.264 C  
HETATM   23  H2  UNL     1      -9.624  19.442  69.823  1.00  0.00     0.000 HD 
HETATM   24  N   UNL     1      -8.854  19.374  69.158  1.00  0.00    -0.226 NA 
HETATM   25  H1  UNL     1      -7.979  19.728  69.543  1.00  0.00     0.000 HD 
BRANCH  22  26
HETATM   26  C   UNL     1      -7.523  17.893  67.658  1.00  0.00    -0.208 A  
HETATM   27  C   UNL     1      -6.596  16.843  67.752  1.00  0.00    -0.158 A  
HETATM   28  C   UNL     1      -5.540  16.738  66.843  1.00  0.00    -0.152 A  
HETATM   29  C   UNL     1      -5.403  17.675  65.821  1.00  0.00    -0.142 A  
HETATM   30  C   UNL     1      -6.327  18.708  65.698  1.00  0.00    -0.299 A  
HETATM   31  C   UNL     1      -7.384  18.813  66.605  1.00  0.00    -0.243 A  
ENDBRANCH  22  26
ENDBRANCH  20  22
ENDBRANCH   8  18
TORSDOF 6
ENDMDL
MODEL       67
REMARK 921   NORMALIZED FREE ENERGY PREDICTED BY IDOCK:   -5.28 KCAL/MOL
REMARK 922        TOTAL FREE ENERGY PREDICTED BY IDOCK:   -8.17 KCAL/MOL
REMARK 923 INTER-LIGAND FREE ENERGY PREDICTED BY IDOCK:   -7.41 KCAL/MOL
REMARK 924 INTRA-LIGAND FREE ENERGY PREDICTED BY IDOCK:   -0.77 KCAL/MOL
REMARK 927      BINDING AFFINITY PREDICTED BY RF-SCORE:    0.00 PKD
ROOT
HETATM    1  C   UNL     1      -8.499   9.660  69.881  1.00  0.00    -0.198 C  
HETATM    2  S   UNL     1      -7.972   8.771  68.398  1.00  0.00    -0.110 SA 
HETATM    3  C   UNL     1      -8.136  10.210  67.330  1.00  0.00    -0.114 C  
HETATM    4  C   UNL     1      -9.423  10.998  67.491  1.00  0.00    -0.175 C  
HETATM    5  OXT UNL     1     -12.022  12.234  67.622  1.00  0.00    -0.494 OA 
HETATM    6  CA  UNL     1     -10.219  10.950  68.601  1.00  0.00    -0.189 C  
HETATM    7  N   UNL     1      -9.832  10.193  69.675  1.00  0.00    -0.233 N  
HETATM    8  CA  UNL     1      -9.111   8.763  71.007  1.00  0.00    -0.218 C  
HETATM    9  C   UNL     1     -11.560  11.669  68.603  1.00  0.00    -0.312 C  
HETATM   10  O   UNL     1     -12.221  11.739  69.773  1.00  0.00    -0.269 OA 
HETATM   11  O   UNL     1     -11.468   9.848  71.277  1.00  0.00    -0.365 OA 
HETATM   12  C   UNL     1     -10.374   9.666  70.792  1.00  0.00    -0.286 C  
ENDROOT
BRANCH   4  13
HETATM   13  C   UNL     1      -9.760  11.778  66.219  1.00  0.00    -0.222 C  
BRANCH  13  14
HETATM   14  O   UNL     1     -10.219  10.879  65.186  1.00  0.00    -0.269 OA 
BRANCH  14  15
HETATM   15  C   UNL     1     -10.445  11.423  63.960  1.00  0.00    -0.378 C  
HETATM   16  C   UNL     1     -11.840  11.968  63.874  1.00  0.00    -0.543 C  
HETATM   17  O   UNL     1      -9.628  11.516  63.056  1.00  0.00    -0.374 OA 
ENDBRANCH  14  15
ENDBRANCH  13  14
ENDBRANCH   4  13
BRANCH   8  18
HETATM   18  N   UNL     1      -9.286   7.337  70.649  1.00  0.00    -0.157 N  
HETATM   19  H   UNL     1      -8.786   6.992  69.829  1.00  0.00     0.000 HD 
HETATM   20  C   UNL     1     -10.070   6.441  71.336  1.00  0.00    -0.189 C  
HETATM   21  O   UNL     1     -10.680   6.732  72.360  1.00  0.00    -0.212 OA 
BRANCH  20  22
HETATM   22  CA  UNL     1     -10.097   5.037  70.679  1.00  0.00    -0.243 C  
HETATM   23  H2  UNL     1      -8.800   4.219  72.117  1.00  0.00     0.000 HD 
HETATM   24  N   UNL     1      -8.889   4.270  71.103  1.00  0.00    -0.107 NA 
HETATM   25  H1  UNL     1      -8.906   3.346  70.671  1.00  0.00     0.000 HD 
BRANCH  22  26
HETATM   26  C   UNL     1     -10.205   5.132  69.169  1.00  0.00    -0.259 A  
HETATM   27  C   UNL     1      -9.505   4.212  68.371  1.00  0.00    -0.212 A  
HETATM   28  C   UNL     1      -9.576   4.276  66.977  1.00  0.00    -0.227 A  
HETATM   29  C   UNL     1     -10.355   5.253  66.362  1.00  0.00    -0.315 A  
HETATM   30  C   UNL     1     -11.075   6.158  67.137  1.00  0.00    -0.335 A  
HETATM   31  C   UNL     1     -11.007   6.094  68.530  1.00  0.00    -0.404 A  
ENDBRANCH  22  26
ENDBRANCH  20  22
ENDBRANCH   8  18
TORSDOF 6
ENDMDL
MODEL       68
REMARK 921   NORMALIZED FREE ENERGY PREDICTED BY IDOCK:   -5.26 KCAL/MOL
REMARK 922        TOTAL FREE ENERGY PREDICTED BY IDOCK:   -8.15 KCAL/MOL
REMARK 923 INTER-LIGAND FREE ENERGY PREDICTED BY IDOCK:   -7.80 KCAL/MOL
REMARK 924 INTRA-LIGAND FREE ENERGY PREDICTED BY IDOCK:   -0.35 KCAL/MOL
REMARK 927      BINDING AFFINITY PREDICTED BY RF-SCORE:    0.00 PKD
ROOT
HETATM    1  C   UNL     1     -10.152  15.196  69.218  1.00  0.00    -0.246 C  
HETATM    2  S   UNL     1     -11.381  15.449  67.917  1.00  0.00    -0.295 SA 
HETATM    3  C   UNL     1     -11.819  13.707  67.824  1.00  0.00    -0.368 C  
HETATM    4  C   UNL     1     -10.648  12.743  67.772  1.00  0.00    -0.231 C  
HETATM    5  OXT UNL     1      -8.385  11.012  67.343  1.00  0.00    -0.123 OA 
HETATM    6  CA  UNL     1      -9.384  13.046  68.191  1.00  0.00    -0.217 C  
HETATM    7  N   UNL     1      -9.136  14.274  68.747  1.00  0.00    -0.150 N  
HETATM    8  CA  UNL     1      -9.029  16.283  69.288  1.00  0.00    -0.170 C  
HETATM    9  C   UNL     1      -8.252  12.056  67.965  1.00  0.00    -0.156 C  
HETATM   10  O   UNL     1      -7.070  12.324  68.550  1.00  0.00    -0.087 OA 
HETATM   11  O   UNL     1      -6.896  14.810  68.989  1.00  0.00    -0.099 OA 
HETATM   12  C   UNL     1      -8.079  15.062  69.035  1.00  0.00    -0.178 C  
ENDROOT
BRANCH   4  13
HETATM   13  C   UNL     1     -11.044  11.423  67.109  1.00  0.00    -0.305 C  
BRANCH  13  14
HETATM   14  O   UNL     1     -10.835  11.497  65.681  1.00  0.00    -0.276 OA 
BRANCH  14  15
HETATM   15  C   UNL     1     -11.599  12.393  64.999  1.00  0.00    -0.345 C  
HETATM   16  C   UNL     1     -10.747  13.228  64.090  1.00  0.00    -0.350 C  
HETATM   17  O   UNL     1     -12.816  12.490  65.061  1.00  0.00    -0.742 OA 
ENDBRANCH  14  15
ENDBRANCH  13  14
ENDBRANCH   4  13
BRANCH   8  18
HETATM   18  N   UNL     1      -9.063  17.291  68.204  1.00  0.00    -0.249 N  
HETATM   19  H   UNL     1      -8.692  17.018  67.294  1.00  0.00     0.000 HD 
HETATM   20  C   UNL     1      -9.556  18.568  68.330  1.00  0.00    -0.354 C  
HETATM   21  O   UNL     1     -10.066  18.991  69.362  1.00  0.00    -0.237 OA 
BRANCH  20  22
HETATM   22  CA  UNL     1      -9.397  19.405  67.034  1.00  0.00    -0.326 C  
HETATM   23  H2  UNL     1     -10.655  18.134  65.929  1.00  0.00     0.000 HD 
HETATM   24  N   UNL     1      -9.729  18.556  65.853  1.00  0.00    -0.481 NA 
HETATM   25  H1  UNL     1      -9.625  19.106  65.001  1.00  0.00     0.000 HD 
BRANCH  22  26
HETATM   26  C   UNL     1      -8.007  20.004  66.926  1.00  0.00    -0.346 A  
HETATM   27  C   UNL     1      -7.378  20.059  65.672  1.00  0.00    -0.311 A  
HETATM   28  C   UNL     1      -6.096  20.597  65.538  1.00  0.00    -0.269 A  
HETATM   29  C   UNL     1      -5.428  21.096  66.654  1.00  0.00    -0.280 A  
HETATM   30  C   UNL     1      -6.045  21.071  67.901  1.00  0.00    -0.408 A  
HETATM   31  C   UNL     1      -7.328  20.536  68.036  1.00  0.00    -0.201 A  
ENDBRANCH  22  26
ENDBRANCH  20  22
ENDBRANCH   8  18
TORSDOF 6
ENDMDL
MODEL       69
REMARK 921   NORMALIZED FREE ENERGY PREDICTED BY IDOCK:   -5.26 KCAL/MOL
REMARK 922        TOTAL FREE ENERGY PREDICTED BY IDOCK:   -8.15 KCAL/MOL
REMARK 923 INTER-LIGAND FREE ENERGY PREDICTED BY IDOCK:   -7.49 KCAL/MOL
REMARK 924 INTRA-LIGAND FREE ENERGY PREDICTED BY IDOCK:   -0.65 KCAL/MOL
REMARK 927      BINDING AFFINITY PREDICTED BY RF-SCORE:    0.00 PKD
ROOT
HETATM    1  C   UNL     1      -9.595  11.339  66.395  1.00  0.00    -0.198 C  
HETATM    2  S   UNL     1      -7.825  11.327  66.761  1.00  0.00    -0.151 SA 
HETATM    3  C   UNL     1      -7.911   9.808  67.722  1.00  0.00    -0.094 C  
HETATM    4  C   UNL     1      -9.035   9.744  68.740  1.00  0.00    -0.133 C  
HETATM    5  OXT UNL     1     -10.977   9.840  70.865  1.00  0.00    -0.304 OA 
HETATM    6  CA  UNL     1     -10.162  10.515  68.689  1.00  0.00    -0.183 C  
HETATM    7  N   UNL     1     -10.343  11.374  67.637  1.00  0.00    -0.179 N  
HETATM    8  CA  UNL     1     -10.196  12.749  66.079  1.00  0.00    -0.278 C  
HETATM    9  C   UNL     1     -11.161  10.473  69.836  1.00  0.00    -0.307 C  
HETATM   10  O   UNL     1     -12.332  11.111  69.658  1.00  0.00    -0.296 OA 
HETATM   11  O   UNL     1     -12.045  12.920  67.911  1.00  0.00    -0.312 OA 
HETATM   12  C   UNL     1     -11.103  12.443  67.320  1.00  0.00    -0.281 C  
ENDROOT
BRANCH   4  13
HETATM   13  C   UNL     1      -8.703   8.774  69.875  1.00  0.00    -0.135 C  
BRANCH  13  14
HETATM   14  O   UNL     1      -8.129   9.487  70.992  1.00  0.00    -0.312 OA 
BRANCH  14  15
HETATM   15  C   UNL     1      -6.794   9.742  70.932  1.00  0.00    -0.004 C  
HETATM   16  C   UNL     1      -6.026   8.479  70.682  1.00  0.00    -0.032 C  
HETATM   17  O   UNL     1      -6.272  10.845  71.015  1.00  0.00    -0.359 OA 
ENDBRANCH  14  15
ENDBRANCH  13  14
ENDBRANCH   4  13
BRANCH   8  18
HETATM   18  N   UNL     1      -9.258  13.883  66.247  1.00  0.00    -0.489 N  
HETATM   19  H   UNL     1      -8.304  13.667  66.536  1.00  0.00     0.000 HD 
HETATM   20  C   UNL     1      -9.575  15.205  66.043  1.00  0.00    -0.330 C  
HETATM   21  O   UNL     1     -10.675  15.578  65.651  1.00  0.00    -0.330 OA 
BRANCH  20  22
HETATM   22  CA  UNL     1      -8.396  16.161  66.359  1.00  0.00    -0.322 C  
HETATM   23  H2  UNL     1      -7.098  14.580  66.841  1.00  0.00     0.000 HD 
HETATM   24  N   UNL     1      -7.415  15.464  67.240  1.00  0.00    -0.202 NA 
HETATM   25  H1  UNL     1      -6.640  16.092  67.448  1.00  0.00     0.000 HD 
BRANCH  22  26
HETATM   26  C   UNL     1      -8.883  17.461  66.973  1.00  0.00    -0.248 A  
HETATM   27  C   UNL     1      -9.490  17.436  68.239  1.00  0.00    -0.290 A  
HETATM   28  C   UNL     1      -9.958  18.613  68.830  1.00  0.00    -0.427 A  
HETATM   29  C   UNL     1      -9.816  19.830  68.168  1.00  0.00    -0.536 A  
HETATM   30  C   UNL     1      -9.197  19.877  66.923  1.00  0.00    -0.475 A  
HETATM   31  C   UNL     1      -8.726  18.702  66.332  1.00  0.00    -0.286 A  
ENDBRANCH  22  26
ENDBRANCH  20  22
ENDBRANCH   8  18
TORSDOF 6
ENDMDL
MODEL       70
REMARK 921   NORMALIZED FREE ENERGY PREDICTED BY IDOCK:   -5.24 KCAL/MOL
REMARK 922        TOTAL FREE ENERGY PREDICTED BY IDOCK:   -8.11 KCAL/MOL
REMARK 923 INTER-LIGAND FREE ENERGY PREDICTED BY IDOCK:   -7.16 KCAL/MOL
REMARK 924 INTRA-LIGAND FREE ENERGY PREDICTED BY IDOCK:   -0.95 KCAL/MOL
REMARK 927      BINDING AFFINITY PREDICTED BY RF-SCORE:    0.00 PKD
ROOT
HETATM    1  C   UNL     1     -10.465   7.002  71.734  1.00  0.00    -0.202 C  
HETATM    2  S   UNL     1     -11.428   6.677  70.240  1.00  0.00    -0.388 SA 
HETATM    3  C   UNL     1     -10.419   5.272  69.748  1.00  0.00    -0.269 C  
HETATM    4  C   UNL     1      -8.918   5.494  69.814  1.00  0.00    -0.143 C  
HETATM    5  OXT UNL     1      -6.107   6.104  69.650  1.00  0.00    -0.024 OA 
HETATM    6  CA  UNL     1      -8.317   6.460  70.570  1.00  0.00    -0.129 C  
HETATM    7  N   UNL     1      -9.085   7.264  71.370  1.00  0.00    -0.142 N  
HETATM    8  CA  UNL     1     -10.530   8.476  72.256  1.00  0.00    -0.332 C  
HETATM    9  C   UNL     1      -6.817   6.688  70.455  1.00  0.00    -0.062 C  
HETATM   10  O   UNL     1      -6.250   7.525  71.343  1.00  0.00    -0.036 OA 
HETATM   11  O   UNL     1      -8.002   9.122  72.229  1.00  0.00    -0.290 OA 
HETATM   12  C   UNL     1      -8.979   8.434  72.033  1.00  0.00    -0.223 C  
ENDROOT
BRANCH   4  13
HETATM   13  C   UNL     1      -8.176   4.557  68.859  1.00  0.00    -0.080 C  
BRANCH  13  14
HETATM   14  O   UNL     1      -8.202   3.204  69.363  1.00  0.00    -0.054 OA 
BRANCH  14  15
HETATM   15  C   UNL     1      -7.104   2.788  70.050  1.00  0.00    -0.033 C  
HETATM   16  C   UNL     1      -6.153   2.067  69.141  1.00  0.00    -0.024 C  
HETATM   17  O   UNL     1      -6.874   3.003  71.231  1.00  0.00    -0.030 OA 
ENDBRANCH  14  15
ENDBRANCH  13  14
ENDBRANCH   4  13
BRANCH   8  18
HETATM   18  N   UNL     1     -11.268   9.419  71.384  1.00  0.00    -0.358 N  
HETATM   19  H   UNL     1     -10.781   9.783  70.565  1.00  0.00     0.000 HD 
HETATM   20  C   UNL     1     -12.559   9.841  71.595  1.00  0.00    -0.416 C  
HETATM   21  O   UNL     1     -13.255   9.436  72.520  1.00  0.00    -0.426 OA 
BRANCH  20  22
HETATM   22  CA  UNL     1     -13.032  10.876  70.541  1.00  0.00    -0.136 C  
HETATM   23  H2  UNL     1     -12.395   9.688  68.928  1.00  0.00     0.000 HD 
HETATM   24  N   UNL     1     -12.302  10.648  69.260  1.00  0.00    -0.717 NA 
HETATM   25  H1  UNL     1     -12.612  11.328  68.567  1.00  0.00     0.000 HD 
BRANCH  22  26
HETATM   26  C   UNL     1     -12.863  12.298  71.043  1.00  0.00    -0.251 A  
HETATM   27  C   UNL     1     -12.037  13.183  70.332  1.00  0.00    -0.392 A  
HETATM   28  C   UNL     1     -11.852  14.496  70.771  1.00  0.00    -0.367 A  
HETATM   29  C   UNL     1     -12.499  14.946  71.920  1.00  0.00    -0.403 A  
HETATM   30  C   UNL     1     -13.340  14.090  72.624  1.00  0.00    -0.643 A  
HETATM   31  C   UNL     1     -13.528  12.777  72.185  1.00  0.00    -0.591 A  
ENDBRANCH  22  26
ENDBRANCH  20  22
ENDBRANCH   8  18
TORSDOF 6
ENDMDL
MODEL       71
REMARK 921   NORMALIZED FREE ENERGY PREDICTED BY IDOCK:   -5.23 KCAL/MOL
REMARK 922        TOTAL FREE ENERGY PREDICTED BY IDOCK:   -8.10 KCAL/MOL
REMARK 923 INTER-LIGAND FREE ENERGY PREDICTED BY IDOCK:   -8.72 KCAL/MOL
REMARK 924 INTRA-LIGAND FREE ENERGY PREDICTED BY IDOCK:    0.61 KCAL/MOL
REMARK 927      BINDING AFFINITY PREDICTED BY RF-SCORE:    0.00 PKD
ROOT
HETATM    1  C   UNL     1     -11.142  16.739  67.699  1.00  0.00    -0.089 C  
HETATM    2  S   UNL     1     -10.211  16.482  66.171  1.00  0.00    -0.352 SA 
HETATM    3  C   UNL     1     -11.332  15.216  65.557  1.00  0.00    -0.274 C  
HETATM    4  C   UNL     1     -11.717  14.145  66.561  1.00  0.00    -0.414 C  
HETATM    5  OXT UNL     1     -12.128  11.979  68.417  1.00  0.00    -0.412 OA 
HETATM    6  CA  UNL     1     -11.625  14.293  67.916  1.00  0.00    -0.336 C  
HETATM    7  N   UNL     1     -11.212  15.492  68.436  1.00  0.00    -0.323 N  
HETATM    8  CA  UNL     1     -10.310  17.313  68.893  1.00  0.00    -0.352 C  
HETATM    9  C   UNL     1     -11.903  13.108  68.829  1.00  0.00    -0.324 C  
HETATM   10  O   UNL     1     -11.972  13.349  70.150  1.00  0.00    -0.327 OA 
HETATM   11  O   UNL     1     -10.675  15.455  70.688  1.00  0.00    -0.312 OA 
HETATM   12  C   UNL     1     -10.746  15.984  69.602  1.00  0.00    -0.316 C  
ENDROOT
BRANCH   4  13
HETATM   13  C   UNL     1     -12.133  12.850  65.860  1.00  0.00    -0.444 C  
BRANCH  13  14
HETATM   14  O   UNL     1     -11.037  12.330  65.077  1.00  0.00    -0.299 OA 
BRANCH  14  15
HETATM   15  C   UNL     1     -11.333  11.914  63.815  1.00  0.00    -0.448 C  
HETATM   16  C   UNL     1     -10.114  11.355  63.144  1.00  0.00    -0.390 C  
HETATM   17  O   UNL     1     -12.439  11.934  63.296  1.00  0.00    -0.571 OA 
ENDBRANCH  14  15
ENDBRANCH  13  14
ENDBRANCH   4  13
BRANCH   8  18
HETATM   18  N   UNL     1      -8.857  17.445  68.639  1.00  0.00    -0.273 N  
HETATM   19  H   UNL     1      -8.532  18.306  68.199  1.00  0.00     0.000 HD 
HETATM   20  C   UNL     1      -7.912  16.497  68.952  1.00  0.00    -0.239 C  
HETATM   21  O   UNL     1      -8.181  15.446  69.523  1.00  0.00    -0.243 OA 
BRANCH  20  22
HETATM   22  CA  UNL     1      -6.483  16.902  68.506  1.00  0.00    -0.161 C  
HETATM   23  H2  UNL     1      -5.586  15.332  69.578  1.00  0.00     0.000 HD 
HETATM   24  N   UNL     1      -5.488  16.341  69.466  1.00  0.00    -0.130 NA 
HETATM   25  H1  UNL     1      -4.548  16.608  69.173  1.00  0.00     0.000 HD 
BRANCH  22  26
HETATM   26  C   UNL     1      -6.350  18.407  68.369  1.00  0.00    -0.202 A  
HETATM   27  C   UNL     1      -5.949  19.166  69.481  1.00  0.00    -0.281 A  
HETATM   28  C   UNL     1      -5.824  20.554  69.391  1.00  0.00    -0.392 A  
HETATM   29  C   UNL     1      -6.088  21.203  68.187  1.00  0.00    -0.340 A  
HETATM   30  C   UNL     1      -6.463  20.465  67.069  1.00  0.00    -0.272 A  
HETATM   31  C   UNL     1      -6.586  19.077  67.156  1.00  0.00    -0.200 A  
ENDBRANCH  22  26
ENDBRANCH  20  22
ENDBRANCH   8  18
TORSDOF 6
ENDMDL
MODEL       72
REMARK 921   NORMALIZED FREE ENERGY PREDICTED BY IDOCK:   -5.21 KCAL/MOL
REMARK 922        TOTAL FREE ENERGY PREDICTED BY IDOCK:   -8.07 KCAL/MOL
REMARK 923 INTER-LIGAND FREE ENERGY PREDICTED BY IDOCK:   -7.43 KCAL/MOL
REMARK 924 INTRA-LIGAND FREE ENERGY PREDICTED BY IDOCK:   -0.64 KCAL/MOL
REMARK 927      BINDING AFFINITY PREDICTED BY RF-SCORE:    0.00 PKD
ROOT
HETATM    1  C   UNL     1      -9.228   9.709  69.085  1.00  0.00    -0.168 C  
HETATM    2  S   UNL     1      -9.194   8.234  68.040  1.00  0.00    -0.136 SA 
HETATM    3  C   UNL     1      -9.062   9.173  66.511  1.00  0.00    -0.156 C  
HETATM    4  C   UNL     1     -10.023  10.341  66.379  1.00  0.00    -0.287 C  
HETATM    5  OXT UNL     1     -12.093  12.319  66.066  1.00  0.00    -0.623 OA 
HETATM    6  CA  UNL     1     -10.641  10.950  67.434  1.00  0.00    -0.243 C  
HETATM    7  N   UNL     1     -10.357  10.539  68.710  1.00  0.00    -0.180 N  
HETATM    8  CA  UNL     1      -9.923   9.519  70.474  1.00  0.00    -0.273 C  
HETATM    9  C   UNL     1     -11.693  12.019  67.182  1.00  0.00    -0.273 C  
HETATM   10  O   UNL     1     -12.140  12.709  68.246  1.00  0.00    -0.279 OA 
HETATM   11  O   UNL     1     -11.791  11.336  70.343  1.00  0.00    -0.328 OA 
HETATM   12  C   UNL     1     -10.877  10.648  69.950  1.00  0.00    -0.241 C  
ENDROOT
BRANCH   4  13
HETATM   13  C   UNL     1     -10.279  10.686  64.911  1.00  0.00    -0.324 C  
BRANCH  13  14
HETATM   14  O   UNL     1      -9.412   9.910  64.055  1.00  0.00    -0.277 OA 
BRANCH  14  15
HETATM   15  C   UNL     1      -8.856  10.563  62.998  1.00  0.00    -0.225 C  
HETATM   16  C   UNL     1      -7.712   9.775  62.434  1.00  0.00    -0.128 C  
HETATM   17  O   UNL     1      -9.248  11.618  62.522  1.00  0.00    -0.302 OA 
ENDBRANCH  14  15
ENDBRANCH  13  14
ENDBRANCH   4  13
BRANCH   8  18
HETATM   18  N   UNL     1     -10.561   8.199  70.682  1.00  0.00    -0.211 N  
HETATM   19  H   UNL     1     -10.330   7.455  70.024  1.00  0.00     0.000 HD 
HETATM   20  C   UNL     1     -11.441   7.900  71.695  1.00  0.00    -0.263 C  
HETATM   21  O   UNL     1     -11.757   8.701  72.568  1.00  0.00    -0.361 OA 
BRANCH  20  22
HETATM   22  CA  UNL     1     -11.985   6.450  71.610  1.00  0.00    -0.291 C  
HETATM   23  H2  UNL     1     -13.982   7.069  71.818  1.00  0.00     0.000 HD 
HETATM   24  N   UNL     1     -13.341   6.392  72.229  1.00  0.00    -0.420 NA 
HETATM   25  H1  UNL     1     -13.698   5.439  72.174  1.00  0.00     0.000 HD 
BRANCH  22  26
HETATM   26  C   UNL     1     -11.029   5.460  72.248  1.00  0.00    -0.277 A  
HETATM   27  C   UNL     1     -11.404   4.811  73.436  1.00  0.00    -0.397 A  
HETATM   28  C   UNL     1     -10.545   3.900  74.055  1.00  0.00    -0.290 A  
HETATM   29  C   UNL     1      -9.303   3.617  73.491  1.00  0.00    -0.119 A  
HETATM   30  C   UNL     1      -8.923   4.234  72.302  1.00  0.00    -0.138 A  
HETATM   31  C   UNL     1      -9.783   5.143  71.681  1.00  0.00    -0.217 A  
ENDBRANCH  22  26
ENDBRANCH  20  22
ENDBRANCH   8  18
TORSDOF 6
ENDMDL
MODEL       73
REMARK 921   NORMALIZED FREE ENERGY PREDICTED BY IDOCK:   -5.18 KCAL/MOL
REMARK 922        TOTAL FREE ENERGY PREDICTED BY IDOCK:   -8.04 KCAL/MOL
REMARK 923 INTER-LIGAND FREE ENERGY PREDICTED BY IDOCK:   -7.00 KCAL/MOL
REMARK 924 INTRA-LIGAND FREE ENERGY PREDICTED BY IDOCK:   -1.04 KCAL/MOL
REMARK 927      BINDING AFFINITY PREDICTED BY RF-SCORE:    0.00 PKD
ROOT
HETATM    1  C   UNL     1      -8.495   8.562  68.013  1.00  0.00    -0.131 C  
HETATM    2  S   UNL     1      -9.441   9.987  68.594  1.00  0.00    -0.162 SA 
HETATM    3  C   UNL     1      -9.551   9.379  70.284  1.00  0.00    -0.249 C  
HETATM    4  C   UNL     1      -9.951   7.922  70.426  1.00  0.00    -0.192 C  
HETATM    5  OXT UNL     1     -11.034   5.259  70.618  1.00  0.00    -0.131 OA 
HETATM    6  CA  UNL     1      -9.827   6.991  69.434  1.00  0.00    -0.160 C  
HETATM    7  N   UNL     1      -9.261   7.351  68.240  1.00  0.00    -0.138 N  
HETATM    8  CA  UNL     1      -8.619   8.265  66.481  1.00  0.00    -0.132 C  
HETATM    9  C   UNL     1     -10.389   5.591  69.634  1.00  0.00    -0.289 C  
HETATM   10  O   UNL     1     -10.086   4.666  68.706  1.00  0.00    -0.121 OA 
HETATM   11  O   UNL     1      -9.526   5.819  66.523  1.00  0.00    -0.146 OA 
HETATM   12  C   UNL     1      -9.179   6.887  66.976  1.00  0.00    -0.142 C  
ENDROOT
BRANCH   4  13
HETATM   13  C   UNL     1     -10.593   7.653  71.788  1.00  0.00    -0.214 C  
BRANCH  13  14
HETATM   14  O   UNL     1      -9.608   7.764  72.838  1.00  0.00    -0.193 OA 
BRANCH  14  15
HETATM   15  C   UNL     1      -9.004   6.610  73.233  1.00  0.00    -0.123 C  
HETATM   16  C   UNL     1      -9.771   5.969  74.351  1.00  0.00    -0.242 C  
HETATM   17  O   UNL     1      -8.006   6.116  72.729  1.00  0.00    -0.106 OA 
ENDBRANCH  14  15
ENDBRANCH  13  14
ENDBRANCH   4  13
BRANCH   8  18
HETATM   18  N   UNL     1      -9.588   9.116  65.754  1.00  0.00    -0.355 N  
HETATM   19  H   UNL     1     -10.578   8.890  65.848  1.00  0.00     0.000 HD 
HETATM   20  C   UNL     1      -9.255  10.188  64.960  1.00  0.00    -0.217 C  
HETATM   21  O   UNL     1      -8.103  10.579  64.809  1.00  0.00    -0.154 OA 
BRANCH  20  22
HETATM   22  CA  UNL     1     -10.489  10.841  64.284  1.00  0.00    -0.259 C  
HETATM   23  H2  UNL     1      -9.957  10.134  62.378  1.00  0.00     0.000 HD 
HETATM   24  N   UNL     1     -10.223  11.010  62.826  1.00  0.00    -0.732 NA 
HETATM   25  H1  UNL     1     -11.034  11.440  62.382  1.00  0.00     0.000 HD 
BRANCH  22  26
HETATM   26  C   UNL     1     -10.855  12.155  64.948  1.00  0.00    -0.352 A  
HETATM   27  C   UNL     1     -10.466  13.362  64.345  1.00  0.00    -0.403 A  
HETATM   28  C   UNL     1     -10.779  14.589  64.933  1.00  0.00    -0.448 A  
HETATM   29  C   UNL     1     -11.495  14.628  66.128  1.00  0.00    -0.339 A  
HETATM   30  C   UNL     1     -11.910  13.444  66.728  1.00  0.00    -0.452 A  
HETATM   31  C   UNL     1     -11.599  12.215  66.139  1.00  0.00    -0.418 A  
ENDBRANCH  22  26
ENDBRANCH  20  22
ENDBRANCH   8  18
TORSDOF 6
ENDMDL
MODEL       74
REMARK 921   NORMALIZED FREE ENERGY PREDICTED BY IDOCK:   -5.16 KCAL/MOL
REMARK 922        TOTAL FREE ENERGY PREDICTED BY IDOCK:   -8.01 KCAL/MOL
REMARK 923 INTER-LIGAND FREE ENERGY PREDICTED BY IDOCK:   -7.16 KCAL/MOL
REMARK 924 INTRA-LIGAND FREE ENERGY PREDICTED BY IDOCK:   -0.85 KCAL/MOL
REMARK 927      BINDING AFFINITY PREDICTED BY RF-SCORE:    0.00 PKD
ROOT
HETATM    1  C   UNL     1      -7.862   9.313  66.238  1.00  0.00    -0.103 C  
HETATM    2  S   UNL     1      -9.026   9.543  67.601  1.00  0.00    -0.116 SA 
HETATM    3  C   UNL     1      -8.623   7.968  68.371  1.00  0.00    -0.127 C  
HETATM    4  C   UNL     1      -8.571   6.778  67.431  1.00  0.00    -0.120 C  
HETATM    5  OXT UNL     1      -8.820   4.531  65.645  1.00  0.00    -0.120 OA 
HETATM    6  CA  UNL     1      -8.398   6.873  66.079  1.00  0.00    -0.134 C  
HETATM    7  N   UNL     1      -8.204   8.105  65.511  1.00  0.00    -0.136 N  
HETATM    8  CA  UNL     1      -8.205  10.107  64.934  1.00  0.00    -0.157 C  
HETATM    9  C   UNL     1      -8.502   5.628  65.212  1.00  0.00    -0.147 C  
HETATM   10  O   UNL     1      -8.150   5.745  63.919  1.00  0.00    -0.121 OA 
HETATM   11  O   UNL     1      -8.378   8.163  63.203  1.00  0.00    -0.127 OA 
HETATM   12  C   UNL     1      -8.254   8.678  64.291  1.00  0.00    -0.158 C  
ENDROOT
BRANCH   4  13
HETATM   13  C   UNL     1      -8.827   5.468  68.178  1.00  0.00    -0.105 C  
BRANCH  13  14
HETATM   14  O   UNL     1     -10.242   5.289  68.406  1.00  0.00    -0.170 OA 
BRANCH  14  15
HETATM   15  C   UNL     1     -10.705   5.610  69.644  1.00  0.00    -0.328 C  
HETATM   16  C   UNL     1      -9.914   4.903  70.704  1.00  0.00    -0.305 C  
HETATM   17  O   UNL     1     -11.605   6.401  69.889  1.00  0.00    -0.429 OA 
ENDBRANCH  14  15
ENDBRANCH  13  14
ENDBRANCH   4  13
BRANCH   8  18
HETATM   18  N   UNL     1      -9.496  10.832  64.961  1.00  0.00    -0.224 N  
HETATM   19  H   UNL     1      -9.993  10.876  65.851  1.00  0.00     0.000 HD 
HETATM   20  C   UNL     1     -10.077  11.449  63.879  1.00  0.00    -0.345 C  
HETATM   21  O   UNL     1      -9.550  11.499  62.773  1.00  0.00    -0.358 OA 
BRANCH  20  22
HETATM   22  CA  UNL     1     -11.458  12.071  64.211  1.00  0.00    -0.361 C  
HETATM   23  H2  UNL     1     -12.150  11.860  62.238  1.00  0.00     0.000 HD 
HETATM   24  N   UNL     1     -12.086  12.580  62.958  1.00  0.00    -0.624 NA 
HETATM   25  H1  UNL     1     -12.994  12.989  63.176  1.00  0.00     0.000 HD 
BRANCH  22  26
HETATM   26  C   UNL     1     -11.340  13.156  65.266  1.00  0.00    -0.321 A  
HETATM   27  C   UNL     1     -10.572  14.299  64.991  1.00  0.00    -0.444 A  
HETATM   28  C   UNL     1     -10.436  15.313  65.943  1.00  0.00    -0.345 A  
HETATM   29  C   UNL     1     -11.072  15.203  67.177  1.00  0.00    -0.335 A  
HETATM   30  C   UNL     1     -11.856  14.088  67.457  1.00  0.00    -0.442 A  
HETATM   31  C   UNL     1     -11.996  13.075  66.506  1.00  0.00    -0.457 A  
ENDBRANCH  22  26
ENDBRANCH  20  22
ENDBRANCH   8  18
TORSDOF 6
ENDMDL
MODEL       75
REMARK 921   NORMALIZED FREE ENERGY PREDICTED BY IDOCK:   -5.16 KCAL/MOL
REMARK 922        TOTAL FREE ENERGY PREDICTED BY IDOCK:   -8.01 KCAL/MOL
REMARK 923 INTER-LIGAND FREE ENERGY PREDICTED BY IDOCK:   -7.41 KCAL/MOL
REMARK 924 INTRA-LIGAND FREE ENERGY PREDICTED BY IDOCK:   -0.59 KCAL/MOL
REMARK 927      BINDING AFFINITY PREDICTED BY RF-SCORE:    0.00 PKD
ROOT
HETATM    1  C   UNL     1     -11.742  14.675  67.433  1.00  0.00    -0.390 C  
HETATM    2  S   UNL     1     -10.232  14.576  66.445  1.00  0.00    -0.298 SA 
HETATM    3  C   UNL     1     -10.477  12.845  66.022  1.00  0.00    -0.276 C  
HETATM    4  C   UNL     1     -10.849  11.938  67.181  1.00  0.00    -0.301 C  
HETATM    5  OXT UNL     1     -11.220  10.238  69.478  1.00  0.00    -0.241 OA 
HETATM    6  CA  UNL     1     -11.390  12.376  68.357  1.00  0.00    -0.285 C  
HETATM    7  N   UNL     1     -11.676  13.706  68.511  1.00  0.00    -0.336 N  
HETATM    8  CA  UNL     1     -11.742  15.789  68.533  1.00  0.00    -0.319 C  
HETATM    9  C   UNL     1     -11.594  11.401  69.507  1.00  0.00    -0.331 C  
HETATM   10  O   UNL     1     -12.289  11.839  70.572  1.00  0.00    -0.334 OA 
HETATM   11  O   UNL     1     -12.156  14.365  70.679  1.00  0.00    -0.293 OA 
HETATM   12  C   UNL     1     -11.944  14.577  69.507  1.00  0.00    -0.319 C  
ENDROOT
BRANCH   4  13
HETATM   13  C   UNL     1     -10.456  10.486  66.899  1.00  0.00    -0.246 C  
BRANCH  13  14
HETATM   14  O   UNL     1      -9.091  10.248  67.307  1.00  0.00    -0.138 OA 
BRANCH  14  15
HETATM   15  C   UNL     1      -8.118  10.669  66.455  1.00  0.00    -0.148 C  
HETATM   16  C   UNL     1      -7.137  11.551  67.167  1.00  0.00    -0.140 C  
HETATM   17  O   UNL     1      -8.006  10.345  65.281  1.00  0.00    -0.150 OA 
ENDBRANCH  14  15
ENDBRANCH  13  14
ENDBRANCH   4  13
BRANCH   8  18
HETATM   18  N   UNL     1     -10.462  16.517  68.688  1.00  0.00    -0.284 N  
HETATM   19  H   UNL     1      -9.751  16.098  69.287  1.00  0.00     0.000 HD 
HETATM   20  C   UNL     1     -10.159  17.716  68.087  1.00  0.00    -0.347 C  
HETATM   21  O   UNL     1     -10.918  18.289  67.313  1.00  0.00    -0.312 OA 
BRANCH  20  22
HETATM   22  CA  UNL     1      -8.763  18.256  68.493  1.00  0.00    -0.308 C  
HETATM   23  H2  UNL     1      -9.519  19.256  70.180  1.00  0.00     0.000 HD 
HETATM   24  N   UNL     1      -8.930  19.451  69.370  1.00  0.00    -0.021 NA 
HETATM   25  H1  UNL     1      -8.013  19.806  69.637  1.00  0.00     0.000 HD 
BRANCH  22  26
HETATM   26  C   UNL     1      -7.910  18.563  67.276  1.00  0.00    -0.240 A  
HETATM   27  C   UNL     1      -7.147  17.537  66.696  1.00  0.00    -0.268 A  
HETATM   28  C   UNL     1      -6.344  17.787  65.580  1.00  0.00    -0.151 A  
HETATM   29  C   UNL     1      -6.301  19.062  65.023  1.00  0.00    -0.283 A  
HETATM   30  C   UNL     1      -7.069  20.086  65.570  1.00  0.00    -0.336 A  
HETATM   31  C   UNL     1      -7.874  19.837  66.684  1.00  0.00    -0.320 A  
ENDBRANCH  22  26
ENDBRANCH  20  22
ENDBRANCH   8  18
TORSDOF 6
ENDMDL
MODEL       76
REMARK 921   NORMALIZED FREE ENERGY PREDICTED BY IDOCK:   -5.14 KCAL/MOL
REMARK 922        TOTAL FREE ENERGY PREDICTED BY IDOCK:   -7.98 KCAL/MOL
REMARK 923 INTER-LIGAND FREE ENERGY PREDICTED BY IDOCK:   -7.08 KCAL/MOL
REMARK 924 INTRA-LIGAND FREE ENERGY PREDICTED BY IDOCK:   -0.90 KCAL/MOL
REMARK 927      BINDING AFFINITY PREDICTED BY RF-SCORE:    0.00 PKD
ROOT
HETATM    1  C   UNL     1      -9.286  12.852  66.506  1.00  0.00    -0.222 C  
HETATM    2  S   UNL     1      -7.845  13.356  67.472  1.00  0.00    -0.165 SA 
HETATM    3  C   UNL     1      -7.583  11.717  68.164  1.00  0.00    -0.115 C  
HETATM    4  C   UNL     1      -8.825  11.031  68.703  1.00  0.00    -0.164 C  
HETATM    5  OXT UNL     1     -11.159   9.946  69.997  1.00  0.00    -0.251 OA 
HETATM    6  CA  UNL     1     -10.101  11.359  68.342  1.00  0.00    -0.201 C  
HETATM    7  N   UNL     1     -10.305  12.330  67.397  1.00  0.00    -0.206 N  
HETATM    8  CA  UNL     1     -10.286  14.004  66.157  1.00  0.00    -0.302 C  
HETATM    9  C   UNL     1     -11.280  10.705  69.047  1.00  0.00    -0.265 C  
HETATM   10  O   UNL     1     -12.505  10.929  68.538  1.00  0.00    -0.375 OA 
HETATM   11  O   UNL     1     -12.485  13.089  67.220  1.00  0.00    -0.209 OA 
HETATM   12  C   UNL     1     -11.306  13.119  66.953  1.00  0.00    -0.318 C  
ENDROOT
BRANCH   4  13
HETATM   13  C   UNL     1      -8.468   9.990  69.766  1.00  0.00    -0.172 C  
BRANCH  13  14
HETATM   14  O   UNL     1      -7.792   8.867  69.160  1.00  0.00    -0.090 OA 
BRANCH  14  15
HETATM   15  C   UNL     1      -8.528   7.736  68.983  1.00  0.00    -0.132 C  
HETATM   16  C   UNL     1      -7.963   6.606  69.792  1.00  0.00    -0.120 C  
HETATM   17  O   UNL     1      -9.542   7.640  68.307  1.00  0.00    -0.150 OA 
ENDBRANCH  14  15
ENDBRANCH  13  14
ENDBRANCH   4  13
BRANCH   8  18
HETATM   18  N   UNL     1      -9.973  15.314  66.772  1.00  0.00    -0.237 N  
HETATM   19  H   UNL     1      -9.537  15.310  67.694  1.00  0.00     0.000 HD 
HETATM   20  C   UNL     1     -10.224  16.536  66.195  1.00  0.00    -0.346 C  
HETATM   21  O   UNL     1     -10.702  16.663  65.072  1.00  0.00    -0.677 OA 
BRANCH  20  22
HETATM   22  CA  UNL     1      -9.839  17.725  67.113  1.00  0.00    -0.311 C  
HETATM   23  H2  UNL     1     -11.844  18.241  67.472  1.00  0.00     0.000 HD 
HETATM   24  N   UNL     1     -10.976  18.688  67.179  1.00  0.00    -0.267 NA 
HETATM   25  H1  UNL     1     -10.723  19.470  67.783  1.00  0.00     0.000 HD 
BRANCH  22  26
HETATM   26  C   UNL     1      -8.558  18.394  66.648  1.00  0.00    -0.289 A  
HETATM   27  C   UNL     1      -8.420  19.784  66.788  1.00  0.00    -0.363 A  
HETATM   28  C   UNL     1      -7.258  20.433  66.363  1.00  0.00    -0.280 A  
HETATM   29  C   UNL     1      -6.214  19.700  65.802  1.00  0.00    -0.219 A  
HETATM   30  C   UNL     1      -6.325  18.319  65.677  1.00  0.00    -0.300 A  
HETATM   31  C   UNL     1      -7.485  17.668  66.104  1.00  0.00    -0.334 A  
ENDBRANCH  22  26
ENDBRANCH  20  22
ENDBRANCH   8  18
TORSDOF 6
ENDMDL
MODEL       77
REMARK 921   NORMALIZED FREE ENERGY PREDICTED BY IDOCK:   -5.12 KCAL/MOL
REMARK 922        TOTAL FREE ENERGY PREDICTED BY IDOCK:   -7.95 KCAL/MOL
REMARK 923 INTER-LIGAND FREE ENERGY PREDICTED BY IDOCK:   -8.21 KCAL/MOL
REMARK 924 INTRA-LIGAND FREE ENERGY PREDICTED BY IDOCK:    0.25 KCAL/MOL
REMARK 927      BINDING AFFINITY PREDICTED BY RF-SCORE:    0.00 PKD
ROOT
HETATM    1  C   UNL     1      -9.509  15.188  67.272  1.00  0.00    -0.210 C  
HETATM    2  S   UNL     1     -10.745  15.865  68.404  1.00  0.00    -0.296 SA 
HETATM    3  C   UNL     1     -10.050  17.524  68.363  1.00  0.00    -0.358 C  
HETATM    4  C   UNL     1      -8.544  17.604  68.532  1.00  0.00    -0.285 C  
HETATM    5  OXT UNL     1      -5.741  17.690  69.191  1.00  0.00    -0.181 OA 
HETATM    6  CA  UNL     1      -7.689  16.564  68.302  1.00  0.00    -0.176 C  
HETATM    7  N   UNL     1      -8.186  15.374  67.837  1.00  0.00    -0.140 N  
HETATM    8  CA  UNL     1      -9.267  13.648  67.401  1.00  0.00    -0.222 C  
HETATM    9  C   UNL     1      -6.212  16.708  68.637  1.00  0.00    -0.142 C  
HETATM   10  O   UNL     1      -5.388  15.726  68.229  1.00  0.00    -0.096 OA 
HETATM   11  O   UNL     1      -6.711  13.591  67.924  1.00  0.00    -0.115 OA 
HETATM   12  C   UNL     1      -7.798  14.087  67.729  1.00  0.00    -0.171 C  
ENDROOT
BRANCH   4  13
HETATM   13  C   UNL     1      -8.118  18.967  69.080  1.00  0.00    -0.200 C  
BRANCH  13  14
HETATM   14  O   UNL     1      -7.514  19.761  68.035  1.00  0.00    -0.281 OA 
BRANCH  14  15
HETATM   15  C   UNL     1      -8.342  20.207  67.052  1.00  0.00    -0.328 C  
HETATM   16  C   UNL     1      -7.852  19.761  65.706  1.00  0.00    -0.230 C  
HETATM   17  O   UNL     1      -9.375  20.839  67.218  1.00  0.00    -0.397 OA 
ENDBRANCH  14  15
ENDBRANCH  13  14
ENDBRANCH   4  13
BRANCH   8  18
HETATM   18  N   UNL     1      -9.991  12.989  68.512  1.00  0.00    -0.344 N  
HETATM   19  H   UNL     1      -9.495  12.873  69.396  1.00  0.00     0.000 HD 
HETATM   20  C   UNL     1     -11.283  12.523  68.445  1.00  0.00    -0.272 C  
HETATM   21  O   UNL     1     -11.990  12.648  67.451  1.00  0.00    -0.398 OA 
BRANCH  20  22
HETATM   22  CA  UNL     1     -11.740  11.828  69.754  1.00  0.00    -0.335 C  
HETATM   23  H2  UNL     1     -12.404  10.111  68.739  1.00  0.00     0.000 HD 
HETATM   24  N   UNL     1     -12.749  10.778  69.430  1.00  0.00    -0.585 NA 
HETATM   25  H1  UNL     1     -13.050  10.321  70.290  1.00  0.00     0.000 HD 
BRANCH  22  26
HETATM   26  C   UNL     1     -12.273  12.832  70.759  1.00  0.00    -0.338 A  
HETATM   27  C   UNL     1     -11.710  14.118  70.809  1.00  0.00    -0.231 A  
HETATM   28  C   UNL     1     -12.171  15.064  71.728  1.00  0.00    -0.417 A  
HETATM   29  C   UNL     1     -13.205  14.742  72.603  1.00  0.00    -0.548 A  
HETATM   30  C   UNL     1     -13.791  13.480  72.552  1.00  0.00    -0.624 A  
HETATM   31  C   UNL     1     -13.333  12.534  71.632  1.00  0.00    -0.290 A  
ENDBRANCH  22  26
ENDBRANCH  20  22
ENDBRANCH   8  18
TORSDOF 6
ENDMDL
MODEL       78
REMARK 921   NORMALIZED FREE ENERGY PREDICTED BY IDOCK:   -5.09 KCAL/MOL
REMARK 922        TOTAL FREE ENERGY PREDICTED BY IDOCK:   -7.90 KCAL/MOL
REMARK 923 INTER-LIGAND FREE ENERGY PREDICTED BY IDOCK:   -7.01 KCAL/MOL
REMARK 924 INTRA-LIGAND FREE ENERGY PREDICTED BY IDOCK:   -0.89 KCAL/MOL
REMARK 927      BINDING AFFINITY PREDICTED BY RF-SCORE:    0.00 PKD
ROOT
HETATM    1  C   UNL     1     -11.513  10.249  69.034  1.00  0.00    -0.137 C  
HETATM    2  S   UNL     1     -11.610  10.001  70.822  1.00  0.00    -0.384 SA 
HETATM    3  C   UNL     1     -12.622  11.463  71.093  1.00  0.00    -0.386 C  
HETATM    4  C   UNL     1     -12.149  12.722  70.389  1.00  0.00    -0.382 C  
HETATM    5  OXT UNL     1     -11.001  15.129  69.297  1.00  0.00    -0.234 OA 
HETATM    6  CA  UNL     1     -11.319  12.730  69.304  1.00  0.00    -0.247 C  
HETATM    7  N   UNL     1     -10.911  11.540  68.759  1.00  0.00    -0.208 N  
HETATM    8  CA  UNL     1     -10.266   9.603  68.343  1.00  0.00    -0.188 C  
HETATM    9  C   UNL     1     -10.792  14.050  68.762  1.00  0.00    -0.263 C  
HETATM   10  O   UNL     1     -10.127  14.016  67.593  1.00  0.00    -0.236 OA 
HETATM   11  O   UNL     1      -9.175  11.699  67.236  1.00  0.00    -0.165 OA 
HETATM   12  C   UNL     1      -9.957  11.082  67.923  1.00  0.00    -0.174 C  
ENDROOT
BRANCH   4  13
HETATM   13  C   UNL     1     -12.646  13.979  71.105  1.00  0.00    -0.371 C  
BRANCH  13  14
HETATM   14  O   UNL     1     -12.583  13.798  72.537  1.00  0.00    -0.148 OA 
BRANCH  14  15
HETATM   15  C   UNL     1     -12.798  14.903  73.301  1.00  0.00    -0.530 C  
HETATM   16  C   UNL     1     -13.857  15.770  72.689  1.00  0.00    -0.597 C  
HETATM   17  O   UNL     1     -12.254  15.153  74.367  1.00  0.00    -0.634 OA 
ENDBRANCH  14  15
ENDBRANCH  13  14
ENDBRANCH   4  13
BRANCH   8  18
HETATM   18  N   UNL     1      -9.284   8.991  69.266  1.00  0.00    -0.144 N  
HETATM   19  H   UNL     1      -8.809   9.606  69.926  1.00  0.00     0.000 HD 
HETATM   20  C   UNL     1      -8.962   7.655  69.301  1.00  0.00    -0.135 C  
HETATM   21  O   UNL     1      -9.501   6.816  68.587  1.00  0.00    -0.134 OA 
BRANCH  20  22
HETATM   22  CA  UNL     1      -7.854   7.330  70.336  1.00  0.00    -0.099 C  
HETATM   23  H2  UNL     1      -6.666   6.335  68.916  1.00  0.00     0.000 HD 
HETATM   24  N   UNL     1      -7.045   6.175  69.850  1.00  0.00    -0.070 NA 
HETATM   25  H1  UNL     1      -6.316   5.962  70.530  1.00  0.00     0.000 HD 
BRANCH  22  26
HETATM   26  C   UNL     1      -8.438   7.072  71.713  1.00  0.00    -0.114 A  
HETATM   27  C   UNL     1      -8.925   5.792  72.022  1.00  0.00    -0.140 A  
HETATM   28  C   UNL     1      -9.477   5.522  73.277  1.00  0.00    -0.148 A  
HETATM   29  C   UNL     1      -9.539   6.524  74.243  1.00  0.00    -0.280 A  
HETATM   30  C   UNL     1      -9.039   7.792  73.962  1.00  0.00    -0.226 A  
HETATM   31  C   UNL     1      -8.485   8.062  72.708  1.00  0.00    -0.237 A  
ENDBRANCH  22  26
ENDBRANCH  20  22
ENDBRANCH   8  18
TORSDOF 6
ENDMDL
MODEL       79
REMARK 921   NORMALIZED FREE ENERGY PREDICTED BY IDOCK:   -5.06 KCAL/MOL
REMARK 922        TOTAL FREE ENERGY PREDICTED BY IDOCK:   -7.88 KCAL/MOL
REMARK 923 INTER-LIGAND FREE ENERGY PREDICTED BY IDOCK:   -6.74 KCAL/MOL
REMARK 924 INTRA-LIGAND FREE ENERGY PREDICTED BY IDOCK:   -1.14 KCAL/MOL
REMARK 927      BINDING AFFINITY PREDICTED BY RF-SCORE:    0.00 PKD
ROOT
HETATM    1  C   UNL     1      -8.682   9.703  69.392  1.00  0.00    -0.171 C  
HETATM    2  S   UNL     1     -10.156   9.942  70.409  1.00  0.00    -0.105 SA 
HETATM    3  C   UNL     1     -10.524   8.184  70.505  1.00  0.00    -0.214 C  
HETATM    4  C   UNL     1     -10.459   7.432  69.188  1.00  0.00    -0.217 C  
HETATM    5  OXT UNL     1     -10.639   6.157  66.611  1.00  0.00    -0.251 OA 
HETATM    6  CA  UNL     1      -9.776   7.868  68.088  1.00  0.00    -0.159 C  
HETATM    7  N   UNL     1      -9.050   9.028  68.162  1.00  0.00    -0.133 N  
HETATM    8  CA  UNL     1      -8.279  10.932  68.511  1.00  0.00    -0.140 C  
HETATM    9  C   UNL     1      -9.890   7.109  66.774  1.00  0.00    -0.205 C  
HETATM   10  O   UNL     1      -9.065   7.474  65.777  1.00  0.00    -0.099 OA 
HETATM   11  O   UNL     1      -8.328   9.869  66.129  1.00  0.00    -0.119 OA 
HETATM   12  C   UNL     1      -8.480   9.923  67.328  1.00  0.00    -0.121 C  
ENDROOT
BRANCH   4  13
HETATM   13  C   UNL     1     -11.328   6.174  69.222  1.00  0.00    -0.291 C  
BRANCH  13  14
HETATM   14  O   UNL     1     -10.821   5.241  70.200  1.00  0.00    -0.240 OA 
BRANCH  14  15
HETATM   15  C   UNL     1      -9.656   4.608  69.892  1.00  0.00    -0.191 C  
HETATM   16  C   UNL     1      -8.635   4.827  70.967  1.00  0.00    -0.126 C  
HETATM   17  O   UNL     1      -9.461   3.909  68.908  1.00  0.00    -0.161 OA 
ENDBRANCH  14  15
ENDBRANCH  13  14
ENDBRANCH   4  13
BRANCH   8  18
HETATM   18  N   UNL     1      -9.231  12.066  68.543  1.00  0.00    -0.336 N  
HETATM   19  H   UNL     1     -10.200  11.861  68.784  1.00  0.00     0.000 HD 
HETATM   20  C   UNL     1      -8.907  13.374  68.272  1.00  0.00    -0.172 C  
HETATM   21  O   UNL     1      -7.767  13.744  68.016  1.00  0.00    -0.123 OA 
BRANCH  20  22
HETATM   22  CA  UNL     1     -10.135  14.321  68.328  1.00  0.00    -0.238 C  
HETATM   23  H2  UNL     1     -10.637  13.733  70.283  1.00  0.00     0.000 HD 
HETATM   24  N   UNL     1     -11.084  13.838  69.372  1.00  0.00    -0.398 NA 
HETATM   25  H1  UNL     1     -11.892  14.460  69.409  1.00  0.00     0.000 HD 
BRANCH  22  26
HETATM   26  C   UNL     1     -10.802  14.446  66.971  1.00  0.00    -0.297 A  
HETATM   27  C   UNL     1     -11.874  13.596  66.652  1.00  0.00    -0.447 A  
HETATM   28  C   UNL     1     -12.505  13.678  65.409  1.00  0.00    -0.537 A  
HETATM   29  C   UNL     1     -12.082  14.618  64.472  1.00  0.00    -0.490 A  
HETATM   30  C   UNL     1     -11.038  15.484  64.779  1.00  0.00    -0.421 A  
HETATM   31  C   UNL     1     -10.407  15.405  66.023  1.00  0.00    -0.339 A  
ENDBRANCH  22  26
ENDBRANCH  20  22
ENDBRANCH   8  18
TORSDOF 6
ENDMDL
MODEL       80
REMARK 921   NORMALIZED FREE ENERGY PREDICTED BY IDOCK:   -5.06 KCAL/MOL
REMARK 922        TOTAL FREE ENERGY PREDICTED BY IDOCK:   -7.87 KCAL/MOL
REMARK 923 INTER-LIGAND FREE ENERGY PREDICTED BY IDOCK:   -7.11 KCAL/MOL
REMARK 924 INTRA-LIGAND FREE ENERGY PREDICTED BY IDOCK:   -0.76 KCAL/MOL
REMARK 927      BINDING AFFINITY PREDICTED BY RF-SCORE:    0.00 PKD
ROOT
HETATM    1  C   UNL     1      -8.350   9.904  67.349  1.00  0.00    -0.118 C  
HETATM    2  S   UNL     1      -9.580  10.466  68.548  1.00  0.00    -0.165 SA 
HETATM    3  C   UNL     1      -9.454   8.982  69.556  1.00  0.00    -0.164 C  
HETATM    4  C   UNL     1      -9.484   7.671  68.792  1.00  0.00    -0.152 C  
HETATM    5  OXT UNL     1      -9.883   5.236  67.304  1.00  0.00    -0.140 OA 
HETATM    6  CA  UNL     1      -9.190   7.549  67.463  1.00  0.00    -0.128 C  
HETATM    7  N   UNL     1      -8.789   8.654  66.759  1.00  0.00    -0.130 N  
HETATM    8  CA  UNL     1      -8.477  10.537  65.924  1.00  0.00    -0.162 C  
HETATM    9  C   UNL     1      -9.388   6.213  66.762  1.00  0.00    -0.140 C  
HETATM   10  O   UNL     1      -8.920   6.100  65.506  1.00  0.00    -0.106 OA 
HETATM   11  O   UNL     1      -8.765   8.399  64.457  1.00  0.00    -0.060 OA 
HETATM   12  C   UNL     1      -8.663   9.046  65.474  1.00  0.00    -0.181 C  
ENDROOT
BRANCH   4  13
HETATM   13  C   UNL     1      -9.972   6.522  69.677  1.00  0.00    -0.164 C  
BRANCH  13  14
HETATM   14  O   UNL     1     -11.412   6.549  69.784  1.00  0.00    -0.388 OA 
BRANCH  14  15
HETATM   15  C   UNL     1     -11.928   6.956  70.975  1.00  0.00    -0.374 C  
HETATM   16  C   UNL     1     -10.961   6.687  72.089  1.00  0.00    -0.277 C  
HETATM   17  O   UNL     1     -13.004   7.514  71.135  1.00  0.00    -0.292 OA 
ENDBRANCH  14  15
ENDBRANCH  13  14
ENDBRANCH   4  13
BRANCH   8  18
HETATM   18  N   UNL     1      -9.658  11.408  65.727  1.00  0.00    -0.227 N  
HETATM   19  H   UNL     1     -10.130  11.758  66.561  1.00  0.00     0.000 HD 
HETATM   20  C   UNL     1     -10.168  11.781  64.506  1.00  0.00    -0.284 C  
HETATM   21  O   UNL     1      -9.657  11.458  63.439  1.00  0.00    -0.296 OA 
BRANCH  20  22
HETATM   22  CA  UNL     1     -11.447  12.649  64.629  1.00  0.00    -0.330 C  
HETATM   23  H2  UNL     1     -11.861  12.524  62.572  1.00  0.00     0.000 HD 
HETATM   24  N   UNL     1     -11.777  13.235  63.297  1.00  0.00    -0.721 NA 
HETATM   25  H1  UNL     1     -12.618  13.806  63.377  1.00  0.00     0.000 HD 
BRANCH  22  26
HETATM   26  C   UNL     1     -11.295  13.717  65.695  1.00  0.00    -0.309 A  
HETATM   27  C   UNL     1     -11.938  13.549  66.932  1.00  0.00    -0.447 A  
HETATM   28  C   UNL     1     -11.826  14.517  67.933  1.00  0.00    -0.370 A  
HETATM   29  C   UNL     1     -11.061  15.661  67.716  1.00  0.00    -0.311 A  
HETATM   30  C   UNL     1     -10.398  15.833  66.505  1.00  0.00    -0.298 A  
HETATM   31  C   UNL     1     -10.507  14.865  65.504  1.00  0.00    -0.380 A  
ENDBRANCH  22  26
ENDBRANCH  20  22
ENDBRANCH   8  18
TORSDOF 6
ENDMDL
MODEL       81
REMARK 921   NORMALIZED FREE ENERGY PREDICTED BY IDOCK:   -5.06 KCAL/MOL
REMARK 922        TOTAL FREE ENERGY PREDICTED BY IDOCK:   -7.86 KCAL/MOL
REMARK 923 INTER-LIGAND FREE ENERGY PREDICTED BY IDOCK:   -7.84 KCAL/MOL
REMARK 924 INTRA-LIGAND FREE ENERGY PREDICTED BY IDOCK:   -0.03 KCAL/MOL
REMARK 927      BINDING AFFINITY PREDICTED BY RF-SCORE:    0.00 PKD
ROOT
HETATM    1  C   UNL     1     -10.277  14.496  69.016  1.00  0.00    -0.206 C  
HETATM    2  S   UNL     1     -11.645  15.590  68.570  1.00  0.00    -0.336 SA 
HETATM    3  C   UNL     1     -12.490  15.374  70.144  1.00  0.00    -0.335 C  
HETATM    4  C   UNL     1     -12.612  13.940  70.626  1.00  0.00    -0.405 C  
HETATM    5  OXT UNL     1     -13.092  11.180  71.300  1.00  0.00    -0.366 OA 
HETATM    6  CA  UNL     1     -11.814  12.916  70.201  1.00  0.00    -0.245 C  
HETATM    7  N   UNL     1     -10.795  13.176  69.322  1.00  0.00    -0.083 N  
HETATM    8  CA  UNL     1      -9.531  13.842  67.805  1.00  0.00    -0.214 C  
HETATM    9  C   UNL     1     -12.111  11.490  70.640  1.00  0.00    -0.353 C  
HETATM   10  O   UNL     1     -11.198  10.548  70.341  1.00  0.00    -0.304 OA 
HETATM   11  O   UNL     1      -9.830  11.309  68.352  1.00  0.00    -0.185 OA 
HETATM   12  C   UNL     1      -9.984  12.502  68.481  1.00  0.00    -0.165 C  
ENDROOT
BRANCH   4  13
HETATM   13  C   UNL     1     -13.798  13.772  71.578  1.00  0.00    -0.151 C  
BRANCH  13  14
HETATM   14  O   UNL     1     -13.337  13.698  72.945  1.00  0.00    -0.587 OA 
BRANCH  14  15
HETATM   15  C   UNL     1     -12.975  14.872  73.530  1.00  0.00    -0.388 C  
HETATM   16  C   UNL     1     -13.902  15.976  73.120  1.00  0.00    -0.328 C  
HETATM   17  O   UNL     1     -12.057  15.022  74.324  1.00  0.00    -0.588 OA 
ENDBRANCH  14  15
ENDBRANCH  13  14
ENDBRANCH   4  13
BRANCH   8  18
HETATM   18  N   UNL     1     -10.130  14.113  66.479  1.00  0.00    -0.273 N  
HETATM   19  H   UNL     1     -10.798  13.434  66.115  1.00  0.00     0.000 HD 
HETATM   20  C   UNL     1      -9.855  15.212  65.699  1.00  0.00    -0.343 C  
HETATM   21  O   UNL     1      -9.104  16.115  66.053  1.00  0.00    -0.329 OA 
BRANCH  20  22
HETATM   22  CA  UNL     1     -10.593  15.182  64.336  1.00  0.00     0.331 C  
HETATM   23  H2  UNL     1     -11.178  17.195  64.484  1.00  0.00     0.000 HD 
HETATM   24  N   UNL     1     -11.596  16.285  64.292  1.00  0.00    -1.130 NA 
HETATM   25  H1  UNL     1     -12.082  16.266  63.396  1.00  0.00     0.000 HD 
BRANCH  22  26
HETATM   26  C   UNL     1     -11.229  13.829  64.078  1.00  0.00    -0.114 A  
HETATM   27  C   UNL     1     -12.620  13.688  64.209  1.00  0.00    -0.195 A  
HETATM   28  C   UNL     1     -13.237  12.454  63.987  1.00  0.00     0.057 A  
HETATM   29  C   UNL     1     -12.475  11.348  63.621  1.00  0.00     0.178 A  
HETATM   30  C   UNL     1     -11.098  11.474  63.464  1.00  0.00    -0.434 A  
HETATM   31  C   UNL     1     -10.480  12.707  63.683  1.00  0.00    -0.348 A  
ENDBRANCH  22  26
ENDBRANCH  20  22
ENDBRANCH   8  18
TORSDOF 6
ENDMDL
MODEL       82
REMARK 921   NORMALIZED FREE ENERGY PREDICTED BY IDOCK:   -5.04 KCAL/MOL
REMARK 922        TOTAL FREE ENERGY PREDICTED BY IDOCK:   -7.85 KCAL/MOL
REMARK 923 INTER-LIGAND FREE ENERGY PREDICTED BY IDOCK:   -6.87 KCAL/MOL
REMARK 924 INTRA-LIGAND FREE ENERGY PREDICTED BY IDOCK:   -0.97 KCAL/MOL
REMARK 927      BINDING AFFINITY PREDICTED BY RF-SCORE:    0.00 PKD
ROOT
HETATM    1  C   UNL     1      -8.453  12.978  68.365  1.00  0.00    -0.118 C  
HETATM    2  S   UNL     1     -10.077  13.374  67.677  1.00  0.00    -0.233 SA 
HETATM    3  C   UNL     1     -10.552  11.650  67.487  1.00  0.00    -0.209 C  
HETATM    4  C   UNL     1      -9.506  10.752  66.851  1.00  0.00    -0.192 C  
HETATM    5  OXT UNL     1      -7.607   9.198  65.342  1.00  0.00    -0.095 OA 
HETATM    6  CA  UNL     1      -8.171  11.040  66.807  1.00  0.00    -0.149 C  
HETATM    7  N   UNL     1      -7.708  12.179  67.411  1.00  0.00    -0.156 N  
HETATM    8  CA  UNL     1      -7.365  14.086  68.176  1.00  0.00    -0.128 C  
HETATM    9  C   UNL     1      -7.228  10.141  66.022  1.00  0.00    -0.118 C  
HETATM   10  O   UNL     1      -5.908  10.365  66.155  1.00  0.00    -0.068 OA 
HETATM   11  O   UNL     1      -5.532  12.762  66.874  1.00  0.00    -0.314 OA 
HETATM   12  C   UNL     1      -6.605  12.956  67.399  1.00  0.00    -0.126 C  
ENDROOT
BRANCH   4  13
HETATM   13  C   UNL     1     -10.149   9.532  66.190  1.00  0.00    -0.256 C  
BRANCH  13  14
HETATM   14  O   UNL     1     -10.753   8.680  67.188  1.00  0.00    -0.270 OA 
BRANCH  14  15
HETATM   15  C   UNL     1     -10.054   7.568  67.543  1.00  0.00    -0.200 C  
HETATM   16  C   UNL     1     -10.695   6.337  66.976  1.00  0.00    -0.435 C  
HETATM   17  O   UNL     1      -9.016   7.552  68.190  1.00  0.00    -0.131 OA 
ENDBRANCH  14  15
ENDBRANCH  13  14
ENDBRANCH   4  13
BRANCH   8  18
HETATM   18  N   UNL     1      -7.785  15.244  67.354  1.00  0.00    -0.181 N  
HETATM   19  H   UNL     1      -8.739  15.244  66.992  1.00  0.00     0.000 HD 
HETATM   20  C   UNL     1      -6.988  16.319  67.040  1.00  0.00    -0.215 C  
HETATM   21  O   UNL     1      -5.842  16.448  67.456  1.00  0.00    -0.132 OA 
BRANCH  20  22
HETATM   22  CA  UNL     1      -7.695  17.341  66.112  1.00  0.00    -0.282 C  
HETATM   23  H2  UNL     1      -6.007  17.552  64.877  1.00  0.00     0.000 HD 
HETATM   24  N   UNL     1      -6.667  18.141  65.384  1.00  0.00    -0.443 NA 
HETATM   25  H1  UNL     1      -7.132  18.813  64.774  1.00  0.00     0.000 HD 
BRANCH  22  26
HETATM   26  C   UNL     1      -8.655  18.224  66.887  1.00  0.00    -0.270 A  
HETATM   27  C   UNL     1      -8.283  18.693  68.157  1.00  0.00    -0.327 A  
HETATM   28  C   UNL     1      -9.146  19.501  68.901  1.00  0.00    -0.337 A  
HETATM   29  C   UNL     1     -10.388  19.860  68.382  1.00  0.00    -0.507 A  
HETATM   30  C   UNL     1     -10.763  19.425  67.115  1.00  0.00    -0.593 A  
HETATM   31  C   UNL     1      -9.900  18.619  66.369  1.00  0.00    -0.390 A  
ENDBRANCH  22  26
ENDBRANCH  20  22
ENDBRANCH   8  18
TORSDOF 6
ENDMDL
MODEL       83
REMARK 921   NORMALIZED FREE ENERGY PREDICTED BY IDOCK:   -5.04 KCAL/MOL
REMARK 922        TOTAL FREE ENERGY PREDICTED BY IDOCK:   -7.84 KCAL/MOL
REMARK 923 INTER-LIGAND FREE ENERGY PREDICTED BY IDOCK:   -6.95 KCAL/MOL
REMARK 924 INTRA-LIGAND FREE ENERGY PREDICTED BY IDOCK:   -0.89 KCAL/MOL
REMARK 927      BINDING AFFINITY PREDICTED BY RF-SCORE:    0.00 PKD
ROOT
HETATM    1  C   UNL     1      -8.816   9.616  69.186  1.00  0.00    -0.157 C  
HETATM    2  S   UNL     1      -8.866   8.979  67.496  1.00  0.00    -0.122 SA 
HETATM    3  C   UNL     1      -9.042  10.610  66.757  1.00  0.00    -0.152 C  
HETATM    4  C   UNL     1     -10.079  11.510  67.405  1.00  0.00    -0.213 C  
HETATM    5  OXT UNL     1     -12.286  13.021  68.475  1.00  0.00    -0.228 OA 
HETATM    6  CA  UNL     1     -10.551  11.347  68.677  1.00  0.00    -0.199 C  
HETATM    7  N   UNL     1     -10.038  10.348  69.462  1.00  0.00    -0.233 N  
HETATM    8  CA  UNL     1      -9.262   8.600  70.290  1.00  0.00    -0.166 C  
HETATM    9  C   UNL     1     -11.692  12.218  69.180  1.00  0.00    -0.323 C  
HETATM   10  O   UNL     1     -11.998  12.140  70.487  1.00  0.00    -0.337 OA 
HETATM   11  O   UNL     1     -11.230   9.907  71.397  1.00  0.00    -0.348 OA 
HETATM   12  C   UNL     1     -10.354   9.684  70.593  1.00  0.00    -0.297 C  
ENDROOT
BRANCH   4  13
HETATM   13  C   UNL     1     -10.592  12.564  66.422  1.00  0.00    -0.247 C  
BRANCH  13  14
HETATM   14  O   UNL     1     -11.581  11.989  65.541  1.00  0.00    -0.350 OA 
BRANCH  14  15
HETATM   15  C   UNL     1     -12.359  12.862  64.845  1.00  0.00    -0.475 C  
HETATM   16  C   UNL     1     -12.272  12.588  63.373  1.00  0.00    -0.613 C  
HETATM   17  O   UNL     1     -13.078  13.723  65.330  1.00  0.00    -0.756 OA 
ENDBRANCH  14  15
ENDBRANCH  13  14
ENDBRANCH   4  13
BRANCH   8  18
HETATM   18  N   UNL     1      -9.778   7.309  69.782  1.00  0.00    -0.166 N  
HETATM   19  H   UNL     1     -10.617   7.331  69.203  1.00  0.00     0.000 HD 
HETATM   20  C   UNL     1      -9.213   6.081  70.032  1.00  0.00    -0.149 C  
HETATM   21  O   UNL     1      -8.180   5.937  70.677  1.00  0.00    -0.115 OA 
BRANCH  20  22
HETATM   22  CA  UNL     1     -10.020   4.910  69.413  1.00  0.00    -0.212 C  
HETATM   23  H2  UNL     1     -10.082   3.849  71.226  1.00  0.00     0.000 HD 
HETATM   24  N   UNL     1      -9.839   3.688  70.248  1.00  0.00    -0.116 NA 
HETATM   25  H1  UNL     1     -10.370   2.918  69.841  1.00  0.00     0.000 HD 
BRANCH  22  26
HETATM   26  C   UNL     1      -9.629   4.670  67.966  1.00  0.00    -0.207 A  
HETATM   27  C   UNL     1      -8.338   4.203  67.673  1.00  0.00    -0.098 A  
HETATM   28  C   UNL     1      -7.942   3.979  66.352  1.00  0.00    -0.097 A  
HETATM   29  C   UNL     1      -8.834   4.209  65.307  1.00  0.00    -0.129 A  
HETATM   30  C   UNL     1     -10.125   4.649  65.581  1.00  0.00    -0.238 A  
HETATM   31  C   UNL     1     -10.523   4.871  66.901  1.00  0.00    -0.202 A  
ENDBRANCH  22  26
ENDBRANCH  20  22
ENDBRANCH   8  18
TORSDOF 6
ENDMDL
MODEL       84
REMARK 921   NORMALIZED FREE ENERGY PREDICTED BY IDOCK:   -5.03 KCAL/MOL
REMARK 922        TOTAL FREE ENERGY PREDICTED BY IDOCK:   -7.82 KCAL/MOL
REMARK 923 INTER-LIGAND FREE ENERGY PREDICTED BY IDOCK:   -6.93 KCAL/MOL
REMARK 924 INTRA-LIGAND FREE ENERGY PREDICTED BY IDOCK:   -0.89 KCAL/MOL
REMARK 927      BINDING AFFINITY PREDICTED BY RF-SCORE:    0.00 PKD
ROOT
HETATM    1  C   UNL     1     -11.643  12.836  67.505  1.00  0.00    -0.356 C  
HETATM    2  S   UNL     1      -9.959  12.311  67.114  1.00  0.00    -0.207 SA 
HETATM    3  C   UNL     1     -10.250  10.601  67.592  1.00  0.00    -0.194 C  
HETATM    4  C   UNL     1     -10.962  10.409  68.919  1.00  0.00    -0.289 C  
HETATM    5  OXT UNL     1     -12.010  10.128  71.588  1.00  0.00    -0.361 OA 
HETATM    6  CA  UNL     1     -11.722  11.366  69.529  1.00  0.00    -0.348 C  
HETATM    7  N   UNL     1     -11.918  12.569  68.904  1.00  0.00    -0.281 N  
HETATM    8  CA  UNL     1     -11.802  14.356  67.839  1.00  0.00    -0.349 C  
HETATM    9  C   UNL     1     -12.276  11.119  70.924  1.00  0.00    -0.364 C  
HETATM   10  O   UNL     1     -13.159  12.012  71.405  1.00  0.00    -0.344 OA 
HETATM   11  O   UNL     1     -12.832  14.231  70.233  1.00  0.00    -0.315 OA 
HETATM   12  C   UNL     1     -12.333  13.816  69.211  1.00  0.00    -0.143 C  
ENDROOT
BRANCH   4  13
HETATM   13  C   UNL     1     -10.644   9.041  69.527  1.00  0.00    -0.225 C  
BRANCH  13  14
HETATM   14  O   UNL     1      -9.259   8.983  69.932  1.00  0.00    -0.156 OA 
BRANCH  14  15
HETATM   15  C   UNL     1      -8.905   7.950  70.744  1.00  0.00    -0.139 C  
HETATM   16  C   UNL     1      -9.496   8.126  72.111  1.00  0.00    -0.291 C  
HETATM   17  O   UNL     1      -8.241   6.977  70.416  1.00  0.00    -0.120 OA 
ENDBRANCH  14  15
ENDBRANCH  13  14
ENDBRANCH   4  13
BRANCH   8  18
HETATM   18  N   UNL     1     -10.535  15.119  67.909  1.00  0.00    -0.242 N  
HETATM   19  H   UNL     1      -9.999  15.064  68.775  1.00  0.00     0.000 HD 
HETATM   20  C   UNL     1     -10.025  15.896  66.896  1.00  0.00    -0.249 C  
HETATM   21  O   UNL     1     -10.560  16.000  65.797  1.00  0.00    -0.343 OA 
BRANCH  20  22
HETATM   22  CA  UNL     1      -8.712  16.618  67.294  1.00  0.00    -0.191 C  
HETATM   23  H2  UNL     1      -8.733  17.836  65.581  1.00  0.00     0.000 HD 
HETATM   24  N   UNL     1      -8.090  17.220  66.079  1.00  0.00    -0.525 NA 
HETATM   25  H1  UNL     1      -7.226  17.695  66.340  1.00  0.00     0.000 HD 
BRANCH  22  26
HETATM   26  C   UNL     1      -7.758  15.681  68.012  1.00  0.00    -0.133 A  
HETATM   27  C   UNL     1      -7.522  15.861  69.384  1.00  0.00    -0.213 A  
HETATM   28  C   UNL     1      -6.644  15.022  70.074  1.00  0.00    -0.158 A  
HETATM   29  C   UNL     1      -5.997  13.986  69.405  1.00  0.00    -0.097 A  
HETATM   30  C   UNL     1      -6.237  13.778  68.050  1.00  0.00    -0.141 A  
HETATM   31  C   UNL     1      -7.117  14.614  67.359  1.00  0.00    -0.157 A  
ENDBRANCH  22  26
ENDBRANCH  20  22
ENDBRANCH   8  18
TORSDOF 6
ENDMDL
MODEL       85
REMARK 921   NORMALIZED FREE ENERGY PREDICTED BY IDOCK:   -5.01 KCAL/MOL
REMARK 922        TOTAL FREE ENERGY PREDICTED BY IDOCK:   -7.80 KCAL/MOL
REMARK 923 INTER-LIGAND FREE ENERGY PREDICTED BY IDOCK:   -7.08 KCAL/MOL
REMARK 924 INTRA-LIGAND FREE ENERGY PREDICTED BY IDOCK:   -0.72 KCAL/MOL
REMARK 927      BINDING AFFINITY PREDICTED BY RF-SCORE:    0.00 PKD
ROOT
HETATM    1  C   UNL     1     -10.783  10.562  68.873  1.00  0.00    -0.220 C  
HETATM    2  S   UNL     1      -9.008  10.897  68.909  1.00  0.00    -0.099 SA 
HETATM    3  C   UNL     1      -8.583   9.244  69.478  1.00  0.00    -0.147 C  
HETATM    4  C   UNL     1      -9.417   8.719  70.632  1.00  0.00    -0.237 C  
HETATM    5  OXT UNL     1     -10.816   7.935  73.026  1.00  0.00    -0.383 OA 
HETATM    6  CA  UNL     1     -10.653   9.196  70.967  1.00  0.00    -0.292 C  
HETATM    7  N   UNL     1     -11.227  10.175  70.199  1.00  0.00    -0.288 N  
HETATM    8  CA  UNL     1     -11.699  11.823  69.015  1.00  0.00    -0.328 C  
HETATM    9  C   UNL     1     -11.343   8.695  72.227  1.00  0.00    -0.340 C  
HETATM   10  O   UNL     1     -12.624   9.060  72.416  1.00  0.00    -0.376 OA 
HETATM   11  O   UNL     1     -13.088  11.190  71.130  1.00  0.00    -0.331 OA 
HETATM   12  C   UNL     1     -12.229  11.075  70.287  1.00  0.00    -0.363 C  
ENDROOT
BRANCH   4  13
HETATM   13  C   UNL     1      -8.659   7.652  71.425  1.00  0.00    -0.120 C  
BRANCH  13  14
HETATM   14  O   UNL     1      -7.596   7.093  70.623  1.00  0.00    -0.089 OA 
BRANCH  14  15
HETATM   15  C   UNL     1      -6.625   6.411  71.288  1.00  0.00    -0.051 C  
HETATM   16  C   UNL     1      -5.421   7.279  71.501  1.00  0.00    -0.035 C  
HETATM   17  O   UNL     1      -6.715   5.267  71.711  1.00  0.00    -0.048 OA 
ENDBRANCH  14  15
ENDBRANCH  13  14
ENDBRANCH   4  13
BRANCH   8  18
HETATM   18  N   UNL     1     -10.982  13.091  69.282  1.00  0.00    -0.434 N  
HETATM   19  H   UNL     1      -9.973  13.102  69.136  1.00  0.00     0.000 HD 
HETATM   20  C   UNL     1     -11.574  14.255  69.711  1.00  0.00    -0.293 C  
HETATM   21  O   UNL     1     -12.784  14.372  69.876  1.00  0.00    -0.263 OA 
BRANCH  20  22
HETATM   22  CA  UNL     1     -10.551  15.394  69.960  1.00  0.00    -0.303 C  
HETATM   23  H2  UNL     1     -11.600  16.122  71.629  1.00  0.00     0.000 HD 
HETATM   24  N   UNL     1     -11.196  16.474  70.761  1.00  0.00    -0.433 NA 
HETATM   25  H1  UNL     1     -10.524  17.222  70.924  1.00  0.00     0.000 HD 
BRANCH  22  26
HETATM   26  C   UNL     1      -9.979  15.921  68.657  1.00  0.00    -0.214 A  
HETATM   27  C   UNL     1      -8.671  16.433  68.639  1.00  0.00    -0.234 A  
HETATM   28  C   UNL     1      -8.117  16.935  67.458  1.00  0.00    -0.188 A  
HETATM   29  C   UNL     1      -8.857  16.922  66.279  1.00  0.00    -0.314 A  
HETATM   30  C   UNL     1     -10.146  16.397  66.273  1.00  0.00    -0.346 A  
HETATM   31  C   UNL     1     -10.701  15.893  67.452  1.00  0.00    -0.313 A  
ENDBRANCH  22  26
ENDBRANCH  20  22
ENDBRANCH   8  18
TORSDOF 6
ENDMDL
MODEL       86
REMARK 921   NORMALIZED FREE ENERGY PREDICTED BY IDOCK:   -5.00 KCAL/MOL
REMARK 922        TOTAL FREE ENERGY PREDICTED BY IDOCK:   -7.79 KCAL/MOL
REMARK 923 INTER-LIGAND FREE ENERGY PREDICTED BY IDOCK:   -6.94 KCAL/MOL
REMARK 924 INTRA-LIGAND FREE ENERGY PREDICTED BY IDOCK:   -0.86 KCAL/MOL
REMARK 927      BINDING AFFINITY PREDICTED BY RF-SCORE:    0.00 PKD
ROOT
HETATM    1  C   UNL     1      -8.281   9.373  67.548  1.00  0.00    -0.117 C  
HETATM    2  S   UNL     1      -8.690   8.279  66.169  1.00  0.00    -0.158 SA 
HETATM    3  C   UNL     1      -9.228   9.625  65.103  1.00  0.00    -0.246 C  
HETATM    4  C   UNL     1     -10.158  10.635  65.749  1.00  0.00    -0.327 C  
HETATM    5  OXT UNL     1     -12.173  12.311  66.946  1.00  0.00    -0.530 OA 
HETATM    6  CA  UNL     1     -10.269  10.825  67.097  1.00  0.00    -0.213 C  
HETATM    7  N   UNL     1      -9.466  10.110  67.946  1.00  0.00    -0.141 N  
HETATM    8  CA  UNL     1      -8.316   8.699  68.960  1.00  0.00    -0.119 C  
HETATM    9  C   UNL     1     -11.334  11.764  67.646  1.00  0.00    -0.302 C  
HETATM   10  O   UNL     1     -11.286  12.051  68.959  1.00  0.00    -0.236 OA 
HETATM   11  O   UNL     1     -10.069  10.198  70.180  1.00  0.00    -0.246 OA 
HETATM   12  C   UNL     1      -9.408   9.786  69.254  1.00  0.00    -0.191 C  
ENDROOT
BRANCH   4  13
HETATM   13  C   UNL     1     -11.018  11.347  64.703  1.00  0.00    -0.255 C  
BRANCH  13  14
HETATM   14  O   UNL     1     -10.391  12.582  64.295  1.00  0.00    -0.341 OA 
BRANCH  14  15
HETATM   15  C   UNL     1     -11.215  13.645  64.089  1.00  0.00    -0.272 C  
HETATM   16  C   UNL     1     -10.760  14.829  64.890  1.00  0.00    -0.438 C  
HETATM   17  O   UNL     1     -12.169  13.675  63.325  1.00  0.00    -0.637 OA 
ENDBRANCH  14  15
ENDBRANCH  13  14
ENDBRANCH   4  13
BRANCH   8  18
HETATM   18  N   UNL     1      -8.798   7.300  68.976  1.00  0.00    -0.132 N  
HETATM   19  H   UNL     1      -9.562   7.057  68.345  1.00  0.00     0.000 HD 
HETATM   20  C   UNL     1      -8.296   6.301  69.776  1.00  0.00    -0.125 C  
HETATM   21  O   UNL     1      -7.350   6.466  70.539  1.00  0.00    -0.080 OA 
BRANCH  20  22
HETATM   22  CA  UNL     1      -9.050   4.957  69.606  1.00  0.00    -0.107 C  
HETATM   23  H2  UNL     1      -9.521   5.350  67.596  1.00  0.00     0.000 HD 
HETATM   24  N   UNL     1      -9.991   5.060  68.453  1.00  0.00    -0.155 NA 
HETATM   25  H1  UNL     1     -10.488   4.176  68.342  1.00  0.00     0.000 HD 
BRANCH  22  26
HETATM   26  C   UNL     1      -9.763   4.555  70.884  1.00  0.00    -0.263 A  
HETATM   27  C   UNL     1      -9.540   3.276  71.421  1.00  0.00    -0.230 A  
HETATM   28  C   UNL     1     -10.187   2.870  72.591  1.00  0.00    -0.234 A  
HETATM   29  C   UNL     1     -11.057   3.739  73.246  1.00  0.00    -0.262 A  
HETATM   30  C   UNL     1     -11.271   5.018  72.741  1.00  0.00    -0.295 A  
HETATM   31  C   UNL     1     -10.624   5.426  71.572  1.00  0.00    -0.285 A  
ENDBRANCH  22  26
ENDBRANCH  20  22
ENDBRANCH   8  18
TORSDOF 6
ENDMDL
MODEL       87
REMARK 921   NORMALIZED FREE ENERGY PREDICTED BY IDOCK:   -4.99 KCAL/MOL
REMARK 922        TOTAL FREE ENERGY PREDICTED BY IDOCK:   -7.78 KCAL/MOL
REMARK 923 INTER-LIGAND FREE ENERGY PREDICTED BY IDOCK:   -6.91 KCAL/MOL
REMARK 924 INTRA-LIGAND FREE ENERGY PREDICTED BY IDOCK:   -0.86 KCAL/MOL
REMARK 927      BINDING AFFINITY PREDICTED BY RF-SCORE:    0.00 PKD
ROOT
HETATM    1  C   UNL     1      -8.749  14.593  69.085  1.00  0.00    -0.029 C  
HETATM    2  S   UNL     1     -10.328  15.304  68.569  1.00  0.00    -0.237 SA 
HETATM    3  C   UNL     1     -11.251  13.792  68.884  1.00  0.00    -0.272 C  
HETATM    4  C   UNL     1     -10.622  12.521  68.343  1.00  0.00    -0.256 C  
HETATM    5  OXT UNL     1      -9.537  10.214  67.001  1.00  0.00    -0.163 OA 
HETATM    6  CA  UNL     1      -9.299  12.391  68.031  1.00  0.00    -0.204 C  
HETATM    7  N   UNL     1      -8.447  13.440  68.259  1.00  0.00    -0.168 N  
HETATM    8  CA  UNL     1      -7.483  15.275  68.468  1.00  0.00    -0.121 C  
HETATM    9  C   UNL     1      -8.799  11.119  67.363  1.00  0.00    -0.139 C  
HETATM   10  O   UNL     1      -7.468  10.968  67.239  1.00  0.00    -0.097 OA 
HETATM   11  O   UNL     1      -6.359  13.243  67.278  1.00  0.00    -0.284 OA 
HETATM   12  C   UNL     1      -7.213  13.842  67.892  1.00  0.00    -0.154 C  
ENDROOT
BRANCH   4  13
HETATM   13  C   UNL     1     -11.676  11.438  68.107  1.00  0.00    -0.284 C  
BRANCH  13  14
HETATM   14  O   UNL     1     -12.437  11.207  69.313  1.00  0.00    -0.377 OA 
BRANCH  14  15
HETATM   15  C   UNL     1     -11.898  10.346  70.218  1.00  0.00    -0.312 C  
HETATM   16  C   UNL     1     -12.687  10.358  71.493  1.00  0.00    -0.564 C  
HETATM   17  O   UNL     1     -10.937   9.615  70.027  1.00  0.00    -0.235 OA 
ENDBRANCH  14  15
ENDBRANCH  13  14
ENDBRANCH   4  13
BRANCH   8  18
HETATM   18  N   UNL     1      -7.762  16.319  67.456  1.00  0.00    -0.138 N  
HETATM   19  H   UNL     1      -8.711  16.692  67.413  1.00  0.00     0.000 HD 
HETATM   20  C   UNL     1      -6.841  16.825  66.570  1.00  0.00    -0.165 C  
HETATM   21  O   UNL     1      -5.663  16.485  66.560  1.00  0.00    -0.314 OA 
BRANCH  20  22
HETATM   22  CA  UNL     1      -7.453  17.864  65.595  1.00  0.00     0.101 C  
HETATM   23  H2  UNL     1      -5.639  18.130  64.566  1.00  0.00     0.000 HD 
HETATM   24  N   UNL     1      -6.362  18.696  65.010  1.00  0.00    -0.455 NA 
HETATM   25  H1  UNL     1      -6.764  19.380  64.369  1.00  0.00     0.000 HD 
BRANCH  22  26
HETATM   26  C   UNL     1      -8.508  18.714  66.278  1.00  0.00    -0.241 A  
HETATM   27  C   UNL     1      -8.112  19.855  66.995  1.00  0.00    -0.345 A  
HETATM   28  C   UNL     1      -9.056  20.655  67.643  1.00  0.00    -0.287 A  
HETATM   29  C   UNL     1     -10.410  20.331  67.576  1.00  0.00    -0.415 A  
HETATM   30  C   UNL     1     -10.822  19.218  66.851  1.00  0.00    -0.479 A  
HETATM   31  C   UNL     1      -9.880  18.418  66.200  1.00  0.00    -0.279 A  
ENDBRANCH  22  26
ENDBRANCH  20  22
ENDBRANCH   8  18
TORSDOF 6
ENDMDL
MODEL       88
REMARK 921   NORMALIZED FREE ENERGY PREDICTED BY IDOCK:   -4.98 KCAL/MOL
REMARK 922        TOTAL FREE ENERGY PREDICTED BY IDOCK:   -7.77 KCAL/MOL
REMARK 923 INTER-LIGAND FREE ENERGY PREDICTED BY IDOCK:   -6.97 KCAL/MOL
REMARK 924 INTRA-LIGAND FREE ENERGY PREDICTED BY IDOCK:   -0.79 KCAL/MOL
REMARK 927      BINDING AFFINITY PREDICTED BY RF-SCORE:    0.00 PKD
ROOT
HETATM    1  C   UNL     1      -9.265   9.556  69.678  1.00  0.00    -0.200 C  
HETATM    2  S   UNL     1      -9.965  10.433  68.261  1.00  0.00    -0.156 SA 
HETATM    3  C   UNL     1     -10.851  11.622  69.280  1.00  0.00    -0.152 C  
HETATM    4  C   UNL     1     -11.631  11.031  70.441  1.00  0.00    -0.389 C  
HETATM    5  OXT UNL     1     -13.343   9.805  72.406  1.00  0.00    -0.412 OA 
HETATM    6  CA  UNL     1     -11.384   9.803  70.986  1.00  0.00    -0.387 C  
HETATM    7  N   UNL     1     -10.340   9.054  70.512  1.00  0.00    -0.203 N  
HETATM    8  CA  UNL     1      -8.876   8.065  69.407  1.00  0.00    -0.144 C  
HETATM    9  C   UNL     1     -12.315   9.247  72.054  1.00  0.00    -0.363 C  
HETATM   10  O   UNL     1     -11.931   8.121  72.681  1.00  0.00    -0.381 OA 
HETATM   11  O   UNL     1     -10.320   6.844  71.205  1.00  0.00    -0.203 OA 
HETATM   12  C   UNL     1      -9.910   7.775  70.549  1.00  0.00    -0.182 C  
ENDROOT
BRANCH   4  13
HETATM   13  C   UNL     1     -12.783  11.946  70.859  1.00  0.00    -0.209 C  
BRANCH  13  14
HETATM   14  O   UNL     1     -12.409  13.331  70.690  1.00  0.00    -0.356 OA 
BRANCH  14  15
HETATM   15  C   UNL     1     -13.202  14.255  71.297  1.00  0.00    -0.343 C  
HETATM   16  C   UNL     1     -14.021  13.618  72.381  1.00  0.00    -0.651 C  
HETATM   17  O   UNL     1     -13.226  15.452  71.050  1.00  0.00    -0.471 OA 
ENDBRANCH  14  15
ENDBRANCH  13  14
ENDBRANCH   4  13
BRANCH   8  18
HETATM   18  N   UNL     1      -9.251   7.551  68.070  1.00  0.00    -0.137 N  
HETATM   19  H   UNL     1      -9.547   8.231  67.370  1.00  0.00     0.000 HD 
HETATM   20  C   UNL     1      -9.231   6.227  67.701  1.00  0.00    -0.111 C  
HETATM   21  O   UNL     1      -8.851   5.329  68.444  1.00  0.00    -0.101 OA 
BRANCH  20  22
HETATM   22  CA  UNL     1      -9.738   6.000  66.252  1.00  0.00    -0.078 C  
HETATM   23  H2  UNL     1     -11.703   6.570  66.733  1.00  0.00     0.000 HD 
HETATM   24  N   UNL     1     -11.216   5.802  66.270  1.00  0.00    -0.734 NA 
HETATM   25  H1  UNL     1     -11.549   5.653  65.318  1.00  0.00     0.000 HD 
BRANCH  22  26
HETATM   26  C   UNL     1      -9.020   4.840  65.588  1.00  0.00    -0.142 A  
HETATM   27  C   UNL     1      -9.671   3.600  65.481  1.00  0.00    -0.117 A  
HETATM   28  C   UNL     1      -9.036   2.509  64.883  1.00  0.00    -0.137 A  
HETATM   29  C   UNL     1      -7.746   2.644  64.376  1.00  0.00    -0.076 A  
HETATM   30  C   UNL     1      -7.094   3.871  64.452  1.00  0.00    -0.054 A  
HETATM   31  C   UNL     1      -7.729   4.964  65.047  1.00  0.00    -0.083 A  
ENDBRANCH  22  26
ENDBRANCH  20  22
ENDBRANCH   8  18
TORSDOF 6
ENDMDL
MODEL       89
REMARK 921   NORMALIZED FREE ENERGY PREDICTED BY IDOCK:   -4.98 KCAL/MOL
REMARK 922        TOTAL FREE ENERGY PREDICTED BY IDOCK:   -7.76 KCAL/MOL
REMARK 923 INTER-LIGAND FREE ENERGY PREDICTED BY IDOCK:   -7.16 KCAL/MOL
REMARK 924 INTRA-LIGAND FREE ENERGY PREDICTED BY IDOCK:   -0.59 KCAL/MOL
REMARK 927      BINDING AFFINITY PREDICTED BY RF-SCORE:    0.00 PKD
ROOT
HETATM    1  C   UNL     1      -8.854   8.779  68.086  1.00  0.00    -0.141 C  
HETATM    2  S   UNL     1      -9.614   8.837  66.447  1.00  0.00    -0.263 SA 
HETATM    3  C   UNL     1     -10.146  10.547  66.621  1.00  0.00    -0.222 C  
HETATM    4  C   UNL     1     -10.825  10.887  67.935  1.00  0.00    -0.295 C  
HETATM    5  OXT UNL     1     -12.395  11.365  70.303  1.00  0.00    -0.314 OA 
HETATM    6  CA  UNL     1     -10.692  10.155  69.081  1.00  0.00    -0.226 C  
HETATM    7  N   UNL     1      -9.857   9.069  69.093  1.00  0.00    -0.171 N  
HETATM    8  CA  UNL     1      -8.743   7.349  68.714  1.00  0.00    -0.128 C  
HETATM    9  C   UNL     1     -11.528  10.503  70.304  1.00  0.00    -0.333 C  
HETATM   10  O   UNL     1     -11.233   9.870  71.453  1.00  0.00    -0.348 OA 
HETATM   11  O   UNL     1     -10.075   7.680  70.933  1.00  0.00    -0.191 OA 
HETATM   12  C   UNL     1      -9.629   7.974  69.847  1.00  0.00    -0.171 C  
ENDROOT
BRANCH   4  13
HETATM   13  C   UNL     1     -11.748  12.098  67.786  1.00  0.00    -0.320 C  
BRANCH  13  14
HETATM   14  O   UNL     1     -12.088  12.302  66.397  1.00  0.00    -0.623 OA 
BRANCH  14  15
HETATM   15  C   UNL     1     -12.267  13.589  65.996  1.00  0.00    -0.445 C  
HETATM   16  C   UNL     1     -11.220  14.480  66.595  1.00  0.00    -0.346 C  
HETATM   17  O   UNL     1     -13.122  13.983  65.216  1.00  0.00    -0.782 OA 
ENDBRANCH  14  15
ENDBRANCH  13  14
ENDBRANCH   4  13
BRANCH   8  18
HETATM   18  N   UNL     1      -9.388   6.269  67.932  1.00  0.00    -0.115 N  
HETATM   19  H   UNL     1     -10.345   6.423  67.615  1.00  0.00     0.000 HD 
HETATM   20  C   UNL     1      -8.794   5.074  67.601  1.00  0.00    -0.103 C  
HETATM   21  O   UNL     1      -7.635   4.799  67.889  1.00  0.00    -0.080 OA 
BRANCH  20  22
HETATM   22  CA  UNL     1      -9.746   4.124  66.830  1.00  0.00    -0.210 C  
HETATM   23  H2  UNL     1      -9.693   2.664  68.342  1.00  0.00     0.000 HD 
HETATM   24  N   UNL     1      -9.568   2.730  67.331  1.00  0.00    -0.389 NA 
HETATM   25  H1  UNL     1     -10.194   2.105  66.824  1.00  0.00     0.000 HD 
BRANCH  22  26
HETATM   26  C   UNL     1      -9.530   4.217  65.331  1.00  0.00    -0.177 A  
HETATM   27  C   UNL     1      -8.399   4.890  64.841  1.00  0.00    -0.138 A  
HETATM   28  C   UNL     1      -8.174   5.002  63.467  1.00  0.00    -0.117 A  
HETATM   29  C   UNL     1      -9.070   4.435  62.564  1.00  0.00    -0.126 A  
HETATM   30  C   UNL     1     -10.184   3.744  63.031  1.00  0.00    -0.189 A  
HETATM   31  C   UNL     1     -10.409   3.629  64.405  1.00  0.00    -0.198 A  
ENDBRANCH  22  26
ENDBRANCH  20  22
ENDBRANCH   8  18
TORSDOF 6
ENDMDL
MODEL       90
REMARK 921   NORMALIZED FREE ENERGY PREDICTED BY IDOCK:   -4.93 KCAL/MOL
REMARK 922        TOTAL FREE ENERGY PREDICTED BY IDOCK:   -7.70 KCAL/MOL
REMARK 923 INTER-LIGAND FREE ENERGY PREDICTED BY IDOCK:   -6.79 KCAL/MOL
REMARK 924 INTRA-LIGAND FREE ENERGY PREDICTED BY IDOCK:   -0.91 KCAL/MOL
REMARK 927      BINDING AFFINITY PREDICTED BY RF-SCORE:    0.00 PKD
ROOT
HETATM    1  C   UNL     1     -11.532  11.567  65.511  1.00  0.00    -0.004 C  
HETATM    2  S   UNL     1     -10.393  11.903  64.149  1.00  0.00    -0.371 SA 
HETATM    3  C   UNL     1      -9.632  10.275  64.222  1.00  0.00    -0.313 C  
HETATM    4  C   UNL     1      -9.249   9.797  65.611  1.00  0.00    -0.252 C  
HETATM    5  OXT UNL     1      -8.255   9.113  68.227  1.00  0.00    -0.114 OA 
HETATM    6  CA  UNL     1      -9.786  10.288  66.768  1.00  0.00    -0.197 C  
HETATM    7  N   UNL     1     -10.774  11.235  66.702  1.00  0.00    -0.263 N  
HETATM    8  CA  UNL     1     -12.041  12.833  66.276  1.00  0.00    -0.332 C  
HETATM    9  C   UNL     1      -9.231   9.840  68.111  1.00  0.00    -0.128 C  
HETATM   10  O   UNL     1      -9.906  10.212  69.214  1.00  0.00    -0.197 OA 
HETATM   11  O   UNL     1     -11.262  12.288  68.706  1.00  0.00    -0.230 OA 
HETATM   12  C   UNL     1     -11.368  12.137  67.510  1.00  0.00    -0.326 C  
ENDROOT
BRANCH   4  13
HETATM   13  C   UNL     1      -8.122   8.765  65.553  1.00  0.00    -0.115 C  
BRANCH  13  14
HETATM   14  O   UNL     1      -8.644   7.475  65.162  1.00  0.00    -0.082 OA 
BRANCH  14  15
HETATM   15  C   UNL     1      -8.515   6.467  66.067  1.00  0.00    -0.144 C  
HETATM   16  C   UNL     1      -9.843   6.137  66.681  1.00  0.00    -0.202 C  
HETATM   17  O   UNL     1      -7.484   5.862  66.323  1.00  0.00    -0.083 OA 
ENDBRANCH  14  15
ENDBRANCH  13  14
ENDBRANCH   4  13
BRANCH   8  18
HETATM   18  N   UNL     1     -11.422  14.111  65.857  1.00  0.00    -0.331 N  
HETATM   19  H   UNL     1     -11.011  14.152  64.924  1.00  0.00     0.000 HD 
HETATM   20  C   UNL     1     -11.358  15.247  66.629  1.00  0.00    -0.170 C  
HETATM   21  O   UNL     1     -11.857  15.328  67.746  1.00  0.00    -0.287 OA 
BRANCH  20  22
HETATM   22  CA  UNL     1     -10.594  16.404  65.934  1.00  0.00    -0.285 C  
HETATM   23  H2  UNL     1     -11.782  16.297  64.204  1.00  0.00     0.000 HD 
HETATM   24  N   UNL     1     -10.794  16.314  64.459  1.00  0.00    -0.936 NA 
HETATM   25  H1  UNL     1     -10.292  17.075  64.002  1.00  0.00     0.000 HD 
BRANCH  22  26
HETATM   26  C   UNL     1      -9.122  16.399  66.306  1.00  0.00    -0.362 A  
HETATM   27  C   UNL     1      -8.358  17.559  66.097  1.00  0.00    -0.200 A  
HETATM   28  C   UNL     1      -6.999  17.587  66.420  1.00  0.00    -0.315 A  
HETATM   29  C   UNL     1      -6.388  16.460  66.965  1.00  0.00    -0.176 A  
HETATM   30  C   UNL     1      -7.135  15.310  67.201  1.00  0.00    -0.090 A  
HETATM   31  C   UNL     1      -8.494  15.282  66.881  1.00  0.00    -0.286 A  
ENDBRANCH  22  26
ENDBRANCH  20  22
ENDBRANCH   8  18
TORSDOF 6
ENDMDL
MODEL       91
REMARK 921   NORMALIZED FREE ENERGY PREDICTED BY IDOCK:   -4.92 KCAL/MOL
REMARK 922        TOTAL FREE ENERGY PREDICTED BY IDOCK:   -7.68 KCAL/MOL
REMARK 923 INTER-LIGAND FREE ENERGY PREDICTED BY IDOCK:   -6.72 KCAL/MOL
REMARK 924 INTRA-LIGAND FREE ENERGY PREDICTED BY IDOCK:   -0.96 KCAL/MOL
REMARK 927      BINDING AFFINITY PREDICTED BY RF-SCORE:    0.00 PKD
ROOT
HETATM    1  C   UNL     1     -12.405   8.109  70.831  1.00  0.00    -0.048 C  
HETATM    2  S   UNL     1     -12.705   8.697  72.513  1.00  0.00    -0.196 SA 
HETATM    3  C   UNL     1     -13.289  10.311  71.974  1.00  0.00    -0.361 C  
HETATM    4  C   UNL     1     -12.432  10.997  70.926  1.00  0.00    -0.509 C  
HETATM    5  OXT UNL     1     -10.580  12.367  69.195  1.00  0.00    -0.110 OA 
HETATM    6  CA  UNL     1     -11.551  10.347  70.108  1.00  0.00    -0.312 C  
HETATM    7  N   UNL     1     -11.449   8.983  70.178  1.00  0.00    -0.135 N  
HETATM    8  CA  UNL     1     -11.338   6.971  70.708  1.00  0.00    -0.298 C  
HETATM    9  C   UNL     1     -10.638  11.146  69.190  1.00  0.00    -0.204 C  
HETATM   10  O   UNL     1      -9.920  10.459  68.283  1.00  0.00    -0.146 OA 
HETATM   11  O   UNL     1      -9.625   8.074  69.078  1.00  0.00    -0.154 OA 
HETATM   12  C   UNL     1     -10.599   8.009  69.794  1.00  0.00    -0.238 C  
ENDROOT
BRANCH   4  13
HETATM   13  C   UNL     1     -12.614  12.516  70.966  1.00  0.00    -0.256 C  
BRANCH  13  14
HETATM   14  O   UNL     1     -13.540  12.882  72.012  1.00  0.00    -0.478 OA 
BRANCH  14  15
HETATM   15  C   UNL     1     -13.441  14.149  72.498  1.00  0.00    -0.534 C  
HETATM   16  C   UNL     1     -14.304  15.087  71.709  1.00  0.00    -0.674 C  
HETATM   17  O   UNL     1     -12.787  14.492  73.473  1.00  0.00    -0.491 OA 
ENDBRANCH  14  15
ENDBRANCH  13  14
ENDBRANCH   4  13
BRANCH   8  18
HETATM   18  N   UNL     1     -10.639   6.628  71.967  1.00  0.00    -0.209 N  
HETATM   19  H   UNL     1     -10.962   7.078  72.824  1.00  0.00     0.000 HD 
HETATM   20  C   UNL     1      -9.587   5.748  72.071  1.00  0.00    -0.150 C  
HETATM   21  O   UNL     1      -9.145   5.116  71.117  1.00  0.00    -0.138 OA 
BRANCH  20  22
HETATM   22  CA  UNL     1      -9.029   5.646  73.514  1.00  0.00    -0.125 C  
HETATM   23  H2  UNL     1     -10.928   5.281  74.339  1.00  0.00     0.000 HD 
HETATM   24  N   UNL     1     -10.130   5.898  74.489  1.00  0.00    -0.286 NA 
HETATM   25  H1  UNL     1      -9.763   5.831  75.438  1.00  0.00     0.000 HD 
BRANCH  22  26
HETATM   26  C   UNL     1      -7.859   6.588  73.726  1.00  0.00    -0.094 A  
HETATM   27  C   UNL     1      -6.568   6.171  73.364  1.00  0.00    -0.074 A  
HETATM   28  C   UNL     1      -5.467   7.010  73.553  1.00  0.00    -0.046 A  
HETATM   29  C   UNL     1      -5.642   8.280  74.097  1.00  0.00    -0.084 A  
HETATM   30  C   UNL     1      -6.917   8.719  74.440  1.00  0.00    -0.084 A  
HETATM   31  C   UNL     1      -8.019   7.882  74.248  1.00  0.00    -0.282 A  
ENDBRANCH  22  26
ENDBRANCH  20  22
ENDBRANCH   8  18
TORSDOF 6
ENDMDL
MODEL       92
REMARK 921   NORMALIZED FREE ENERGY PREDICTED BY IDOCK:   -4.92 KCAL/MOL
REMARK 922        TOTAL FREE ENERGY PREDICTED BY IDOCK:   -7.68 KCAL/MOL
REMARK 923 INTER-LIGAND FREE ENERGY PREDICTED BY IDOCK:   -7.03 KCAL/MOL
REMARK 924 INTRA-LIGAND FREE ENERGY PREDICTED BY IDOCK:   -0.65 KCAL/MOL
REMARK 927      BINDING AFFINITY PREDICTED BY RF-SCORE:    0.00 PKD
ROOT
HETATM    1  C   UNL     1      -9.106  10.255  69.175  1.00  0.00    -0.191 C  
HETATM    2  S   UNL     1      -8.435   8.794  68.349  1.00  0.00    -0.131 SA 
HETATM    3  C   UNL     1      -8.061   9.677  66.827  1.00  0.00    -0.113 C  
HETATM    4  C   UNL     1      -9.170  10.570  66.302  1.00  0.00    -0.192 C  
HETATM    5  OXT UNL     1     -11.434  11.973  65.203  1.00  0.00    -0.324 OA 
HETATM    6  CA  UNL     1     -10.195  11.052  67.067  1.00  0.00    -0.211 C  
HETATM    7  N   UNL     1     -10.224  10.772  68.407  1.00  0.00    -0.168 N  
HETATM    8  CA  UNL     1     -10.127   9.957  70.323  1.00  0.00    -0.237 C  
HETATM    9  C   UNL     1     -11.331  11.823  66.412  1.00  0.00    -0.297 C  
HETATM   10  O   UNL     1     -12.218  12.424  67.225  1.00  0.00    -0.478 OA 
HETATM   11  O   UNL     1     -12.222  11.259  69.472  1.00  0.00    -0.308 OA 
HETATM   12  C   UNL     1     -11.103  10.798  69.430  1.00  0.00    -0.268 C  
ENDROOT
BRANCH   4  13
HETATM   13  C   UNL     1      -9.043  10.786  64.793  1.00  0.00    -0.200 C  
BRANCH  13  14
HETATM   14  O   UNL     1      -9.312   9.556  64.086  1.00  0.00    -0.184 OA 
BRANCH  14  15
HETATM   15  C   UNL     1      -8.282   9.023  63.375  1.00  0.00    -0.182 C  
HETATM   16  C   UNL     1      -7.283  10.082  63.019  1.00  0.00    -0.131 C  
HETATM   17  O   UNL     1      -8.141   7.841  63.096  1.00  0.00    -0.143 OA 
ENDBRANCH  14  15
ENDBRANCH  13  14
ENDBRANCH   4  13
BRANCH   8  18
HETATM   18  N   UNL     1     -10.490   8.531  70.484  1.00  0.00    -0.199 N  
HETATM   19  H   UNL     1      -9.858   7.835  70.089  1.00  0.00     0.000 HD 
HETATM   20  C   UNL     1     -11.616   8.072  71.127  1.00  0.00    -0.282 C  
HETATM   21  O   UNL     1     -12.422   8.812  71.678  1.00  0.00    -0.309 OA 
BRANCH  20  22
HETATM   22  CA  UNL     1     -11.749   6.527  71.077  1.00  0.00    -0.343 C  
HETATM   23  H2  UNL     1     -11.753   6.351  73.172  1.00  0.00     0.000 HD 
HETATM   24  N   UNL     1     -11.273   5.948  72.367  1.00  0.00    -0.277 NA 
HETATM   25  H1  UNL     1     -11.360   4.933  72.335  1.00  0.00     0.000 HD 
BRANCH  22  26
HETATM   26  C   UNL     1     -11.009   5.943  69.888  1.00  0.00    -0.444 A  
HETATM   27  C   UNL     1     -11.284   6.432  68.601  1.00  0.00    -0.338 A  
HETATM   28  C   UNL     1     -10.627   5.911  67.483  1.00  0.00    -0.347 A  
HETATM   29  C   UNL     1      -9.679   4.902  67.638  1.00  0.00    -0.197 A  
HETATM   30  C   UNL     1      -9.377   4.422  68.908  1.00  0.00    -0.216 A  
HETATM   31  C   UNL     1     -10.031   4.944  70.027  1.00  0.00    -0.323 A  
ENDBRANCH  22  26
ENDBRANCH  20  22
ENDBRANCH   8  18
TORSDOF 6
ENDMDL
MODEL       93
REMARK 921   NORMALIZED FREE ENERGY PREDICTED BY IDOCK:   -4.91 KCAL/MOL
REMARK 922        TOTAL FREE ENERGY PREDICTED BY IDOCK:   -7.66 KCAL/MOL
REMARK 923 INTER-LIGAND FREE ENERGY PREDICTED BY IDOCK:   -6.59 KCAL/MOL
REMARK 924 INTRA-LIGAND FREE ENERGY PREDICTED BY IDOCK:   -1.08 KCAL/MOL
REMARK 927      BINDING AFFINITY PREDICTED BY RF-SCORE:    0.00 PKD
ROOT
HETATM    1  C   UNL     1     -10.713  12.003  66.350  1.00  0.00    -0.259 C  
HETATM    2  S   UNL     1     -10.885  12.270  64.571  1.00  0.00    -0.339 SA 
HETATM    3  C   UNL     1     -10.079  10.720  64.138  1.00  0.00    -0.353 C  
HETATM    4  C   UNL     1      -8.786  10.430  64.878  1.00  0.00    -0.209 C  
HETATM    5  OXT UNL     1      -6.185  10.117  66.076  1.00  0.00    -0.072 OA 
HETATM    6  CA  UNL     1      -8.436  11.005  66.067  1.00  0.00    -0.158 C  
HETATM    7  N   UNL     1      -9.308  11.864  66.683  1.00  0.00    -0.200 N  
HETATM    8  CA  UNL     1     -10.714  13.306  67.217  1.00  0.00    -0.255 C  
HETATM    9  C   UNL     1      -7.055  10.752  66.654  1.00  0.00    -0.133 C  
HETATM   10  O   UNL     1      -6.824  11.194  67.903  1.00  0.00    -0.066 OA 
HETATM   11  O   UNL     1      -8.412  13.094  68.428  1.00  0.00    -0.168 OA 
HETATM   12  C   UNL     1      -9.293  12.804  67.650  1.00  0.00    -0.191 C  
ENDROOT
BRANCH   4  13
HETATM   13  C   UNL     1      -7.889   9.483  64.079  1.00  0.00    -0.130 C  
BRANCH  13  14
HETATM   14  O   UNL     1      -8.383   8.129  64.170  1.00  0.00    -0.125 OA 
BRANCH  14  15
HETATM   15  C   UNL     1      -7.876   7.361  65.173  1.00  0.00    -0.123 C  
HETATM   16  C   UNL     1      -6.590   6.718  64.747  1.00  0.00    -0.042 C  
HETATM   17  O   UNL     1      -8.354   7.238  66.291  1.00  0.00    -0.116 OA 
ENDBRANCH  14  15
ENDBRANCH  13  14
ENDBRANCH   4  13
BRANCH   8  18
HETATM   18  N   UNL     1     -10.729  14.572  66.449  1.00  0.00    -0.303 N  
HETATM   19  H   UNL     1     -10.579  14.513  65.441  1.00  0.00     0.000 HD 
HETATM   20  C   UNL     1     -10.930  15.820  66.989  1.00  0.00    -0.221 C  
HETATM   21  O   UNL     1     -11.164  16.006  68.178  1.00  0.00    -0.343 OA 
BRANCH  20  22
HETATM   22  CA  UNL     1     -10.828  16.954  65.936  1.00  0.00    -0.037 C  
HETATM   23  H2  UNL     1     -11.823  15.828  64.466  1.00  0.00     0.000 HD 
HETATM   24  N   UNL     1     -10.968  16.374  64.569  1.00  0.00    -1.022 NA 
HETATM   25  H1  UNL     1     -10.901  17.120  63.877  1.00  0.00     0.000 HD 
BRANCH  22  26
HETATM   26  C   UNL     1      -9.540  17.740  66.088  1.00  0.00    -0.202 A  
HETATM   27  C   UNL     1      -8.318  17.051  66.146  1.00  0.00    -0.276 A  
HETATM   28  C   UNL     1      -7.113  17.743  66.295  1.00  0.00    -0.329 A  
HETATM   29  C   UNL     1      -7.112  19.133  66.377  1.00  0.00    -0.240 A  
HETATM   30  C   UNL     1      -8.312  19.835  66.297  1.00  0.00    -0.383 A  
HETATM   31  C   UNL     1      -9.517  19.144  66.147  1.00  0.00    -0.289 A  
ENDBRANCH  22  26
ENDBRANCH  20  22
ENDBRANCH   8  18
TORSDOF 6
ENDMDL
MODEL       94
REMARK 921   NORMALIZED FREE ENERGY PREDICTED BY IDOCK:   -4.90 KCAL/MOL
REMARK 922        TOTAL FREE ENERGY PREDICTED BY IDOCK:   -7.66 KCAL/MOL
REMARK 923 INTER-LIGAND FREE ENERGY PREDICTED BY IDOCK:   -6.97 KCAL/MOL
REMARK 924 INTRA-LIGAND FREE ENERGY PREDICTED BY IDOCK:   -0.69 KCAL/MOL
REMARK 927      BINDING AFFINITY PREDICTED BY RF-SCORE:    0.00 PKD
ROOT
HETATM    1  C   UNL     1      -8.256  12.067  67.097  1.00  0.00    -0.181 C  
HETATM    2  S   UNL     1      -7.337  12.706  68.516  1.00  0.00    -0.109 SA 
HETATM    3  C   UNL     1      -6.706  11.090  68.990  1.00  0.00    -0.074 C  
HETATM    4  C   UNL     1      -7.733   9.973  69.019  1.00  0.00    -0.094 C  
HETATM    5  OXT UNL     1      -9.797   7.994  69.372  1.00  0.00    -0.175 OA 
HETATM    6  CA  UNL     1      -8.924  10.006  68.350  1.00  0.00    -0.121 C  
HETATM    7  N   UNL     1      -9.217  11.079  67.550  1.00  0.00    -0.144 N  
HETATM    8  CA  UNL     1      -9.475  12.940  66.649  1.00  0.00    -0.255 C  
HETATM    9  C   UNL     1      -9.942   8.896  68.560  1.00  0.00    -0.177 C  
HETATM   10  O   UNL     1     -11.016   8.882  67.750  1.00  0.00    -0.112 OA 
HETATM   11  O   UNL     1     -11.420  11.213  66.851  1.00  0.00    -0.414 OA 
HETATM   12  C   UNL     1     -10.292  11.637  66.956  1.00  0.00    -0.217 C  
ENDROOT
BRANCH   4  13
HETATM   13  C   UNL     1      -7.305   8.849  69.965  1.00  0.00    -0.056 C  
BRANCH  13  14
HETATM   14  O   UNL     1      -7.471   9.259  71.339  1.00  0.00    -0.316 OA 
BRANCH  14  15
HETATM   15  C   UNL     1      -7.661   8.269  72.252  1.00  0.00    -0.126 C  
HETATM   16  C   UNL     1      -9.066   8.298  72.778  1.00  0.00    -0.332 C  
HETATM   17  O   UNL     1      -6.836   7.428  72.578  1.00  0.00    -0.065 OA 
ENDBRANCH  14  15
ENDBRANCH  13  14
ENDBRANCH   4  13
BRANCH   8  18
HETATM   18  N   UNL     1      -9.775  14.095  67.526  1.00  0.00    -0.230 N  
HETATM   19  H   UNL     1      -9.041  14.407  68.162  1.00  0.00     0.000 HD 
HETATM   20  C   UNL     1     -10.967  14.778  67.548  1.00  0.00    -0.304 C  
HETATM   21  O   UNL     1     -11.903  14.521  66.798  1.00  0.00    -0.392 OA 
BRANCH  20  22
HETATM   22  CA  UNL     1     -10.997  15.901  68.618  1.00  0.00    -0.320 C  
HETATM   23  H2  UNL     1     -12.642  15.058  69.617  1.00  0.00     0.000 HD 
HETATM   24  N   UNL     1     -12.352  15.959  69.238  1.00  0.00    -0.459 NA 
HETATM   25  H1  UNL     1     -12.372  16.698  69.941  1.00  0.00     0.000 HD 
BRANCH  22  26
HETATM   26  C   UNL     1     -10.586  17.239  68.031  1.00  0.00    -0.394 A  
HETATM   27  C   UNL     1     -10.692  17.442  66.645  1.00  0.00    -0.084 A  
HETATM   28  C   UNL     1     -10.314  18.658  66.071  1.00  0.00    -0.436 A  
HETATM   29  C   UNL     1      -9.835  19.691  66.873  1.00  0.00    -0.497 A  
HETATM   30  C   UNL     1      -9.745  19.516  68.251  1.00  0.00    -0.495 A  
HETATM   31  C   UNL     1     -10.125  18.301  68.827  1.00  0.00    -0.393 A  
ENDBRANCH  22  26
ENDBRANCH  20  22
ENDBRANCH   8  18
TORSDOF 6
ENDMDL
MODEL       95
REMARK 921   NORMALIZED FREE ENERGY PREDICTED BY IDOCK:   -4.90 KCAL/MOL
REMARK 922        TOTAL FREE ENERGY PREDICTED BY IDOCK:   -7.65 KCAL/MOL
REMARK 923 INTER-LIGAND FREE ENERGY PREDICTED BY IDOCK:   -6.93 KCAL/MOL
REMARK 924 INTRA-LIGAND FREE ENERGY PREDICTED BY IDOCK:   -0.72 KCAL/MOL
REMARK 927      BINDING AFFINITY PREDICTED BY RF-SCORE:    0.00 PKD
ROOT
HETATM    1  C   UNL     1      -8.581   9.460  69.754  1.00  0.00    -0.175 C  
HETATM    2  S   UNL     1      -8.225   8.587  68.212  1.00  0.00    -0.124 SA 
HETATM    3  C   UNL     1      -8.546  10.025  67.181  1.00  0.00    -0.128 C  
HETATM    4  C   UNL     1      -9.819  10.787  67.504  1.00  0.00    -0.197 C  
HETATM    5  OXT UNL     1     -12.405  11.971  67.961  1.00  0.00    -0.329 OA 
HETATM    6  CA  UNL     1     -10.471  10.720  68.702  1.00  0.00    -0.192 C  
HETATM    7  N   UNL     1      -9.939   9.968  69.717  1.00  0.00    -0.237 N  
HETATM    8  CA  UNL     1      -9.032   8.548  70.942  1.00  0.00    -0.172 C  
HETATM    9  C   UNL     1     -11.814  11.413  68.874  1.00  0.00    -0.347 C  
HETATM   10  O   UNL     1     -12.327  11.467  70.117  1.00  0.00    -0.297 OA 
HETATM   11  O   UNL     1     -11.358   9.587  71.507  1.00  0.00    -0.372 OA 
HETATM   12  C   UNL     1     -10.329   9.427  70.889  1.00  0.00    -0.310 C  
ENDROOT
BRANCH   4  13
HETATM   13  C   UNL     1     -10.325  11.564  66.287  1.00  0.00    -0.239 C  
BRANCH  13  14
HETATM   14  O   UNL     1     -10.351  10.710  65.122  1.00  0.00    -0.299 OA 
BRANCH  14  15
HETATM   15  C   UNL     1     -10.607  11.314  63.930  1.00  0.00    -0.391 C  
HETATM   16  C   UNL     1     -11.880  12.103  64.000  1.00  0.00    -0.523 C  
HETATM   17  O   UNL     1      -9.890  11.276  62.941  1.00  0.00    -0.322 OA 
ENDBRANCH  14  15
ENDBRANCH  13  14
ENDBRANCH   4  13
BRANCH   8  18
HETATM   18  N   UNL     1      -9.222   7.120  70.601  1.00  0.00    -0.158 N  
HETATM   19  H   UNL     1      -9.889   6.897  69.861  1.00  0.00     0.000 HD 
HETATM   20  C   UNL     1      -8.569   6.071  71.203  1.00  0.00    -0.129 C  
HETATM   21  O   UNL     1      -7.716   6.222  72.071  1.00  0.00    -0.095 OA 
BRANCH  20  22
HETATM   22  CA  UNL     1      -9.028   4.690  70.668  1.00  0.00    -0.117 C  
HETATM   23  H2  UNL     1      -9.310   5.417  68.716  1.00  0.00     0.000 HD 
HETATM   24  N   UNL     1      -9.820   4.882  69.418  1.00  0.00    -0.195 NA 
HETATM   25  H1  UNL     1     -10.122   3.973  69.066  1.00  0.00     0.000 HD 
BRANCH  22  26
HETATM   26  C   UNL     1      -9.806   3.917  71.717  1.00  0.00    -0.249 A  
HETATM   27  C   UNL     1     -10.528   4.622  72.694  1.00  0.00    -0.258 A  
HETATM   28  C   UNL     1     -11.248   3.942  73.679  1.00  0.00    -0.294 A  
HETATM   29  C   UNL     1     -11.264   2.550  73.697  1.00  0.00    -0.318 A  
HETATM   30  C   UNL     1     -10.573   1.835  72.723  1.00  0.00    -0.235 A  
HETATM   31  C   UNL     1      -9.855   2.513  71.735  1.00  0.00    -0.226 A  
ENDBRANCH  22  26
ENDBRANCH  20  22
ENDBRANCH   8  18
TORSDOF 6
ENDMDL
MODEL       96
REMARK 921   NORMALIZED FREE ENERGY PREDICTED BY IDOCK:   -4.87 KCAL/MOL
REMARK 922        TOTAL FREE ENERGY PREDICTED BY IDOCK:   -7.61 KCAL/MOL
REMARK 923 INTER-LIGAND FREE ENERGY PREDICTED BY IDOCK:   -6.70 KCAL/MOL
REMARK 924 INTRA-LIGAND FREE ENERGY PREDICTED BY IDOCK:   -0.91 KCAL/MOL
REMARK 927      BINDING AFFINITY PREDICTED BY RF-SCORE:    0.00 PKD
ROOT
HETATM    1  C   UNL     1      -9.649   8.678  72.214  1.00  0.00    -0.278 C  
HETATM    2  S   UNL     1      -8.548   7.984  70.959  1.00  0.00    -0.139 SA 
HETATM    3  C   UNL     1      -8.470   9.510  70.009  1.00  0.00    -0.195 C  
HETATM    4  C   UNL     1      -9.805  10.186  69.753  1.00  0.00    -0.245 C  
HETATM    5  OXT UNL     1     -12.395  11.221  69.030  1.00  0.00    -0.446 OA 
HETATM    6  CA  UNL     1     -10.931   9.971  70.496  1.00  0.00    -0.326 C  
HETATM    7  N   UNL     1     -10.871   9.137  71.582  1.00  0.00    -0.360 N  
HETATM    8  CA  UNL     1     -10.524   7.631  72.979  1.00  0.00    -0.356 C  
HETATM    9  C   UNL     1     -12.252  10.592  70.069  1.00  0.00    -0.298 C  
HETATM   10  O   UNL     1     -13.285  10.497  70.925  1.00  0.00    -0.353 OA 
HETATM   11  O   UNL     1     -12.922   8.519  72.462  1.00  0.00    -0.337 OA 
HETATM   12  C   UNL     1     -11.715   8.462  72.389  1.00  0.00    -0.382 C  
ENDROOT
BRANCH   4  13
HETATM   13  C   UNL     1      -9.750  11.067  68.503  1.00  0.00    -0.189 C  
BRANCH  13  14
HETATM   14  O   UNL     1      -9.871  10.257  67.313  1.00  0.00    -0.171 OA 
BRANCH  14  15
HETATM   15  C   UNL     1     -10.317  10.885  66.192  1.00  0.00    -0.248 C  
HETATM   16  C   UNL     1      -9.796  10.202  64.962  1.00  0.00    -0.392 C  
HETATM   17  O   UNL     1     -11.077  11.842  66.161  1.00  0.00    -0.300 OA 
ENDBRANCH  14  15
ENDBRANCH  13  14
ENDBRANCH   4  13
BRANCH   8  18
HETATM   18  N   UNL     1     -10.417   6.241  72.482  1.00  0.00    -0.197 N  
HETATM   19  H   UNL     1     -10.242   6.108  71.486  1.00  0.00     0.000 HD 
HETATM   20  C   UNL     1     -10.535   5.114  73.260  1.00  0.00    -0.218 C  
HETATM   21  O   UNL     1     -10.701   5.152  74.475  1.00  0.00    -0.343 OA 
BRANCH  20  22
HETATM   22  CA  UNL     1     -10.436   3.802  72.439  1.00  0.00    -0.054 C  
HETATM   23  H2  UNL     1     -10.927   2.600  74.092  1.00  0.00     0.000 HD 
HETATM   24  N   UNL     1     -10.214   2.654  73.364  1.00  0.00    -0.114 NA 
HETATM   25  H1  UNL     1     -10.148   1.792  72.824  1.00  0.00     0.000 HD 
BRANCH  22  26
HETATM   26  C   UNL     1      -9.355   3.891  71.378  1.00  0.00    -0.208 A  
HETATM   27  C   UNL     1      -9.725   3.997  70.028  1.00  0.00    -0.264 A  
HETATM   28  C   UNL     1      -8.755   4.073  69.025  1.00  0.00    -0.130 A  
HETATM   29  C   UNL     1      -7.403   4.053  69.358  1.00  0.00    -0.053 A  
HETATM   30  C   UNL     1      -7.018   3.972  70.693  1.00  0.00    -0.033 A  
HETATM   31  C   UNL     1      -7.986   3.900  71.697  1.00  0.00    -0.066 A  
ENDBRANCH  22  26
ENDBRANCH  20  22
ENDBRANCH   8  18
TORSDOF 6
ENDMDL
MODEL       97
REMARK 921   NORMALIZED FREE ENERGY PREDICTED BY IDOCK:   -4.86 KCAL/MOL
REMARK 922        TOTAL FREE ENERGY PREDICTED BY IDOCK:   -7.59 KCAL/MOL
REMARK 923 INTER-LIGAND FREE ENERGY PREDICTED BY IDOCK:   -6.81 KCAL/MOL
REMARK 924 INTRA-LIGAND FREE ENERGY PREDICTED BY IDOCK:   -0.79 KCAL/MOL
REMARK 927      BINDING AFFINITY PREDICTED BY RF-SCORE:    0.00 PKD
ROOT
HETATM    1  C   UNL     1      -8.955  10.435  66.820  1.00  0.00    -0.140 C  
HETATM    2  S   UNL     1      -9.472   9.806  65.207  1.00  0.00    -0.283 SA 
HETATM    3  C   UNL     1      -9.866  11.438  64.561  1.00  0.00    -0.260 C  
HETATM    4  C   UNL     1     -10.687  12.322  65.482  1.00  0.00    -0.314 C  
HETATM    5  OXT UNL     1     -12.519  13.802  67.142  1.00  0.00    -0.280 OA 
HETATM    6  CA  UNL     1     -10.780  12.147  66.834  1.00  0.00    -0.236 C  
HETATM    7  N   UNL     1     -10.057  11.151  67.434  1.00  0.00    -0.182 N  
HETATM    8  CA  UNL     1      -9.061   9.409  67.996  1.00  0.00    -0.127 C  
HETATM    9  C   UNL     1     -11.742  13.003  67.644  1.00  0.00    -0.366 C  
HETATM   10  O   UNL     1     -11.667  12.914  68.984  1.00  0.00    -0.291 OA 
HETATM   11  O   UNL     1     -10.651  10.686  69.624  1.00  0.00    -0.241 OA 
HETATM   12  C   UNL     1     -10.035  10.478  68.603  1.00  0.00    -0.181 C  
ENDROOT
BRANCH   4  13
HETATM   13  C   UNL     1     -11.467  13.375  64.692  1.00  0.00    -0.348 C  
BRANCH  13  14
HETATM   14  O   UNL     1     -10.645  14.540  64.463  1.00  0.00    -0.350 OA 
BRANCH  14  15
HETATM   15  C   UNL     1     -11.264  15.749  64.546  1.00  0.00    -0.322 C  
HETATM   16  C   UNL     1     -10.659  16.578  65.639  1.00  0.00    -0.317 C  
HETATM   17  O   UNL     1     -12.155  16.149  63.811  1.00  0.00    -0.946 OA 
ENDBRANCH  14  15
ENDBRANCH  13  14
ENDBRANCH   4  13
BRANCH   8  18
HETATM   18  N   UNL     1      -9.687   8.114  67.644  1.00  0.00    -0.152 N  
HETATM   19  H   UNL     1     -10.614   8.137  67.221  1.00  0.00     0.000 HD 
HETATM   20  C   UNL     1      -9.113   6.881  67.845  1.00  0.00    -0.122 C  
HETATM   21  O   UNL     1      -7.985   6.732  68.304  1.00  0.00    -0.109 OA 
BRANCH  20  22
HETATM   22  CA  UNL     1     -10.041   5.710  67.428  1.00  0.00    -0.173 C  
HETATM   23  H2  UNL     1     -10.107   4.925  69.376  1.00  0.00     0.000 HD 
HETATM   24  N   UNL     1      -9.924   4.607  68.425  1.00  0.00    -0.108 NA 
HETATM   25  H1  UNL     1     -10.534   3.837  68.151  1.00  0.00     0.000 HD 
BRANCH  22  26
HETATM   26  C   UNL     1      -9.738   5.235  66.019  1.00  0.00    -0.159 A  
HETATM   27  C   UNL     1     -10.587   4.293  65.415  1.00  0.00    -0.152 A  
HETATM   28  C   UNL     1     -10.333   3.828  64.123  1.00  0.00    -0.260 A  
HETATM   29  C   UNL     1      -9.233   4.303  63.413  1.00  0.00    -0.135 A  
HETATM   30  C   UNL     1      -8.394   5.254  63.987  1.00  0.00    -0.125 A  
HETATM   31  C   UNL     1      -8.649   5.723  65.278  1.00  0.00    -0.129 A  
ENDBRANCH  22  26
ENDBRANCH  20  22
ENDBRANCH   8  18
TORSDOF 6
ENDMDL
MODEL       98
REMARK 921   NORMALIZED FREE ENERGY PREDICTED BY IDOCK:   -4.86 KCAL/MOL
REMARK 922        TOTAL FREE ENERGY PREDICTED BY IDOCK:   -7.59 KCAL/MOL
REMARK 923 INTER-LIGAND FREE ENERGY PREDICTED BY IDOCK:   -6.68 KCAL/MOL
REMARK 924 INTRA-LIGAND FREE ENERGY PREDICTED BY IDOCK:   -0.91 KCAL/MOL
REMARK 927      BINDING AFFINITY PREDICTED BY RF-SCORE:    0.00 PKD
ROOT
HETATM    1  C   UNL     1      -8.096  12.514  67.174  1.00  0.00    -0.156 C  
HETATM    2  S   UNL     1      -7.554  11.429  68.514  1.00  0.00    -0.135 SA 
HETATM    3  C   UNL     1      -6.639  10.333  67.420  1.00  0.00    -0.068 C  
HETATM    4  C   UNL     1      -7.375   9.904  66.163  1.00  0.00    -0.104 C  
HETATM    5  OXT UNL     1      -8.956   8.878  63.984  1.00  0.00    -0.041 OA 
HETATM    6  CA  UNL     1      -8.437  10.576  65.628  1.00  0.00    -0.176 C  
HETATM    7  N   UNL     1      -8.856  11.745  66.208  1.00  0.00    -0.178 N  
HETATM    8  CA  UNL     1      -9.409  13.315  67.461  1.00  0.00    -0.218 C  
HETATM    9  C   UNL     1      -9.191   9.985  64.446  1.00  0.00    -0.266 C  
HETATM   10  O   UNL     1     -10.110  10.763  63.848  1.00  0.00    -0.314 OA 
HETATM   11  O   UNL     1     -10.913  12.522  65.482  1.00  0.00    -0.274 OA 
HETATM   12  C   UNL     1      -9.938  12.550  66.198  1.00  0.00    -0.255 C  
ENDROOT
BRANCH   4  13
HETATM   13  C   UNL     1      -6.834   8.578  65.628  1.00  0.00    -0.067 C  
BRANCH  13  14
HETATM   14  O   UNL     1      -7.057   7.521  66.587  1.00  0.00    -0.074 OA 
BRANCH  14  15
HETATM   15  C   UNL     1      -7.854   6.494  66.188  1.00  0.00    -0.106 C  
HETATM   16  C   UNL     1      -7.354   5.906  64.902  1.00  0.00    -0.073 C  
HETATM   17  O   UNL     1      -8.819   6.057  66.799  1.00  0.00    -0.116 OA 
ENDBRANCH  14  15
ENDBRANCH  13  14
ENDBRANCH   4  13
BRANCH   8  18
HETATM   18  N   UNL     1     -10.086  12.976  68.734  1.00  0.00    -0.423 N  
HETATM   19  H   UNL     1      -9.545  12.470  69.435  1.00  0.00     0.000 HD 
HETATM   20  C   UNL     1     -11.388  13.290  69.042  1.00  0.00    -0.285 C  
HETATM   21  O   UNL     1     -12.118  13.933  68.296  1.00  0.00    -0.366 OA 
BRANCH  20  22
HETATM   22  CA  UNL     1     -11.826  12.746  70.427  1.00  0.00    -0.155 C  
HETATM   23  H2  UNL     1     -12.469  10.912  69.626  1.00  0.00     0.000 HD 
HETATM   24  N   UNL     1     -12.820  11.649  70.237  1.00  0.00     0.068 NA 
HETATM   25  H1  UNL     1     -13.108  11.292  71.147  1.00  0.00     0.000 HD 
BRANCH  22  26
HETATM   26  C   UNL     1     -12.368  13.852  71.313  1.00  0.00    -0.419 A  
HETATM   27  C   UNL     1     -11.539  14.938  71.639  1.00  0.00    -0.347 A  
HETATM   28  C   UNL     1     -12.003  15.969  72.459  1.00  0.00    -0.649 A  
HETATM   29  C   UNL     1     -13.304  15.935  72.957  1.00  0.00    -0.663 A  
HETATM   30  C   UNL     1     -14.146  14.878  72.625  1.00  0.00    -0.358 A  
HETATM   31  C   UNL     1     -13.685  13.848  71.803  1.00  0.00    -0.461 A  
ENDBRANCH  22  26
ENDBRANCH  20  22
ENDBRANCH   8  18
TORSDOF 6
ENDMDL
MODEL       99
REMARK 921   NORMALIZED FREE ENERGY PREDICTED BY IDOCK:   -4.85 KCAL/MOL
REMARK 922        TOTAL FREE ENERGY PREDICTED BY IDOCK:   -7.58 KCAL/MOL
REMARK 923 INTER-LIGAND FREE ENERGY PREDICTED BY IDOCK:   -6.78 KCAL/MOL
REMARK 924 INTRA-LIGAND FREE ENERGY PREDICTED BY IDOCK:   -0.81 KCAL/MOL
REMARK 927      BINDING AFFINITY PREDICTED BY RF-SCORE:    0.00 PKD
ROOT
HETATM    1  C   UNL     1      -7.624   8.263  68.784  1.00  0.00    -0.101 C  
HETATM    2  S   UNL     1      -7.949   9.136  70.333  1.00  0.00    -0.162 SA 
HETATM    3  C   UNL     1      -7.680   7.678  71.352  1.00  0.00    -0.081 C  
HETATM    4  C   UNL     1      -8.371   6.414  70.876  1.00  0.00    -0.126 C  
HETATM    5  OXT UNL     1      -9.979   4.155  70.094  1.00  0.00    -0.209 OA 
HETATM    6  CA  UNL     1      -8.802   6.209  69.595  1.00  0.00    -0.134 C  
HETATM    7  N   UNL     1      -8.562   7.166  68.644  1.00  0.00    -0.125 N  
HETATM    8  CA  UNL     1      -8.288   8.896  67.516  1.00  0.00    -0.109 C  
HETATM    9  C   UNL     1      -9.609   4.965  69.257  1.00  0.00    -0.171 C  
HETATM   10  O   UNL     1      -9.855   4.724  67.956  1.00  0.00    -0.154 OA 
HETATM   11  O   UNL     1      -9.726   6.894  66.660  1.00  0.00    -0.177 OA 
HETATM   12  C   UNL     1      -8.997   7.501  67.412  1.00  0.00    -0.126 C  
ENDROOT
BRANCH   4  13
HETATM   13  C   UNL     1      -8.605   5.440  72.032  1.00  0.00    -0.131 C  
BRANCH  13  14
HETATM   14  O   UNL     1      -9.321   6.094  73.102  1.00  0.00    -0.139 OA 
BRANCH  14  15
HETATM   15  C   UNL     1     -10.675   6.150  72.985  1.00  0.00    -0.252 C  
HETATM   16  C   UNL     1     -11.136   7.572  72.859  1.00  0.00    -0.426 C  
HETATM   17  O   UNL     1     -11.430   5.190  72.934  1.00  0.00    -0.299 OA 
ENDBRANCH  14  15
ENDBRANCH  13  14
ENDBRANCH   4  13
BRANCH   8  18
HETATM   18  N   UNL     1      -9.186  10.042  67.783  1.00  0.00    -0.134 N  
HETATM   19  H   UNL     1      -9.136  10.475  68.706  1.00  0.00     0.000 HD 
HETATM   20  C   UNL     1     -10.082  10.569  66.883  1.00  0.00    -0.216 C  
HETATM   21  O   UNL     1     -10.196  10.160  65.733  1.00  0.00    -0.263 OA 
BRANCH  20  22
HETATM   22  CA  UNL     1     -10.922  11.727  67.480  1.00  0.00    -0.256 C  
HETATM   23  H2  UNL     1     -11.894  10.463  68.849  1.00  0.00     0.000 HD 
HETATM   24  N   UNL     1     -12.131  11.167  68.151  1.00  0.00    -0.737 NA 
HETATM   25  H1  UNL     1     -12.684  11.929  68.543  1.00  0.00     0.000 HD 
BRANCH  22  26
HETATM   26  C   UNL     1     -11.287  12.752  66.422  1.00  0.00    -0.369 A  
HETATM   27  C   UNL     1     -10.647  14.002  66.427  1.00  0.00    -0.280 A  
HETATM   28  C   UNL     1     -10.965  14.971  65.473  1.00  0.00    -0.364 A  
HETATM   29  C   UNL     1     -11.918  14.702  64.494  1.00  0.00    -0.473 A  
HETATM   30  C   UNL     1     -12.545  13.460  64.459  1.00  0.00    -0.286 A  
HETATM   31  C   UNL     1     -12.227  12.488  65.411  1.00  0.00    -0.475 A  
ENDBRANCH  22  26
ENDBRANCH  20  22
ENDBRANCH   8  18
TORSDOF 6
ENDMDL
MODEL      100
REMARK 921   NORMALIZED FREE ENERGY PREDICTED BY IDOCK:   -4.84 KCAL/MOL
REMARK 922        TOTAL FREE ENERGY PREDICTED BY IDOCK:   -7.57 KCAL/MOL
REMARK 923 INTER-LIGAND FREE ENERGY PREDICTED BY IDOCK:   -6.75 KCAL/MOL
REMARK 924 INTRA-LIGAND FREE ENERGY PREDICTED BY IDOCK:   -0.82 KCAL/MOL
REMARK 927      BINDING AFFINITY PREDICTED BY RF-SCORE:    0.00 PKD
ROOT
HETATM    1  C   UNL     1      -8.868   7.252  68.006  1.00  0.00    -0.129 C  
HETATM    2  S   UNL     1     -10.532   7.955  68.048  1.00  0.00    -0.149 SA 
HETATM    3  C   UNL     1     -10.269   8.979  66.592  1.00  0.00    -0.263 C  
HETATM    4  C   UNL     1      -8.967   9.760  66.573  1.00  0.00    -0.172 C  
HETATM    5  OXT UNL     1      -6.647  11.457  66.769  1.00  0.00    -0.127 OA 
HETATM    6  CA  UNL     1      -7.868   9.441  67.319  1.00  0.00    -0.099 C  
HETATM    7  N   UNL     1      -7.891   8.320  68.106  1.00  0.00    -0.116 N  
HETATM    8  CA  UNL     1      -8.334   6.734  69.382  1.00  0.00    -0.132 C  
HETATM    9  C   UNL     1      -6.665  10.372  67.332  1.00  0.00    -0.072 C  
HETATM   10  O   UNL     1      -5.548   9.929  67.937  1.00  0.00    -0.040 OA 
HETATM   11  O   UNL     1      -6.161   8.156  69.636  1.00  0.00    -0.032 OA 
HETATM   12  C   UNL     1      -7.203   7.792  69.139  1.00  0.00    -0.082 C  
ENDROOT
BRANCH   4  13
HETATM   13  C   UNL     1      -9.077  10.999  65.682  1.00  0.00    -0.206 C  
BRANCH  13  14
HETATM   14  O   UNL     1     -10.277  11.739  65.998  1.00  0.00    -0.217 OA 
BRANCH  14  15
HETATM   15  C   UNL     1     -10.878  12.393  64.967  1.00  0.00    -0.295 C  
HETATM   16  C   UNL     1     -12.288  12.759  65.325  1.00  0.00    -0.546 C  
HETATM   17  O   UNL     1     -10.350  12.698  63.908  1.00  0.00    -0.417 OA 
ENDBRANCH  14  15
ENDBRANCH  13  14
ENDBRANCH   4  13
BRANCH   8  18
HETATM   18  N   UNL     1      -9.215   7.006  70.541  1.00  0.00    -0.159 N  
HETATM   19  H   UNL     1      -9.175   7.937  70.955  1.00  0.00     0.000 HD 
HETATM   20  C   UNL     1     -10.083   6.099  71.101  1.00  0.00    -0.190 C  
HETATM   21  O   UNL     1     -10.248   4.967  70.660  1.00  0.00    -0.238 OA 
BRANCH  20  22
HETATM   22  CA  UNL     1     -10.824   6.664  72.341  1.00  0.00    -0.235 C  
HETATM   23  H2  UNL     1     -10.777   4.819  73.346  1.00  0.00     0.000 HD 
HETATM   24  N   UNL     1     -11.452   5.541  73.096  1.00  0.00    -0.509 NA 
HETATM   25  H1  UNL     1     -11.939   5.912  73.911  1.00  0.00     0.000 HD 
BRANCH  22  26
HETATM   26  C   UNL     1     -11.841   7.719  71.948  1.00  0.00    -0.338 A  
HETATM   27  C   UNL     1     -13.192   7.358  71.823  1.00  0.00    -0.371 A  
HETATM   28  C   UNL     1     -14.154   8.303  71.455  1.00  0.00    -0.446 A  
HETATM   29  C   UNL     1     -13.779   9.623  71.216  1.00  0.00    -0.222 A  
HETATM   30  C   UNL     1     -12.449  10.004  71.357  1.00  0.00    -0.510 A  
HETATM   31  C   UNL     1     -11.487   9.061  71.728  1.00  0.00    -0.442 A  
ENDBRANCH  22  26
ENDBRANCH  20  22
ENDBRANCH   8  18
TORSDOF 6
ENDMDL
MODEL      101
REMARK 921   NORMALIZED FREE ENERGY PREDICTED BY IDOCK:   -4.83 KCAL/MOL
REMARK 922        TOTAL FREE ENERGY PREDICTED BY IDOCK:   -7.56 KCAL/MOL
REMARK 923 INTER-LIGAND FREE ENERGY PREDICTED BY IDOCK:   -6.98 KCAL/MOL
REMARK 924 INTRA-LIGAND FREE ENERGY PREDICTED BY IDOCK:   -0.58 KCAL/MOL
REMARK 927      BINDING AFFINITY PREDICTED BY RF-SCORE:    0.00 PKD
ROOT
HETATM    1  C   UNL     1     -11.189   8.023  70.687  1.00  0.00    -0.261 C  
HETATM    2  S   UNL     1     -11.072   7.696  68.913  1.00  0.00     0.336 SA 
HETATM    3  C   UNL     1     -10.896   5.919  69.129  1.00  0.00    -0.336 C  
HETATM    4  C   UNL     1      -9.896   5.487  70.186  1.00  0.00    -0.261 C  
HETATM    5  OXT UNL     1      -7.750   4.753  71.962  1.00  0.00    -0.090 OA 
HETATM    6  CA  UNL     1      -9.465   6.285  71.207  1.00  0.00    -0.159 C  
HETATM    7  N   UNL     1      -9.988   7.543  71.345  1.00  0.00    -0.185 N  
HETATM    8  CA  UNL     1     -10.764   9.464  71.124  1.00  0.00    -0.347 C  
HETATM    9  C   UNL     1      -8.355   5.802  72.129  1.00  0.00    -0.115 C  
HETATM   10  O   UNL     1      -8.091   6.545  73.219  1.00  0.00    -0.109 OA 
HETATM   11  O   UNL     1      -8.854   8.925  72.818  1.00  0.00    -0.324 OA 
HETATM   12  C   UNL     1      -9.700   8.697  71.982  1.00  0.00    -0.321 C  
ENDROOT
BRANCH   4  13
HETATM   13  C   UNL     1      -9.367   4.078  69.907  1.00  0.00    -0.170 C  
BRANCH  13  14
HETATM   14  O   UNL     1      -8.749   4.024  68.603  1.00  0.00    -0.090 OA 
BRANCH  14  15
HETATM   15  C   UNL     1      -9.181   3.044  67.764  1.00  0.00    -0.199 C  
HETATM   16  C   UNL     1      -9.435   1.775  68.521  1.00  0.00    -0.231 C  
HETATM   17  O   UNL     1      -9.391   3.169  66.566  1.00  0.00    -0.159 OA 
ENDBRANCH  14  15
ENDBRANCH  13  14
ENDBRANCH   4  13
BRANCH   8  18
HETATM   18  N   UNL     1     -10.211  10.311  70.042  1.00  0.00    -0.412 N  
HETATM   19  H   UNL     1      -9.228  10.185  69.801  1.00  0.00     0.000 HD 
HETATM   20  C   UNL     1     -10.921  11.253  69.337  1.00  0.00    -0.228 C  
HETATM   21  O   UNL     1     -12.118  11.458  69.509  1.00  0.00    -0.315 OA 
BRANCH  20  22
HETATM   22  CA  UNL     1     -10.049  12.019  68.309  1.00  0.00    -0.201 C  
HETATM   23  H2  UNL     1      -9.099  13.158  69.799  1.00  0.00     0.000 HD 
HETATM   24  N   UNL     1      -9.583  13.301  68.913  1.00  0.00    -0.404 NA 
HETATM   25  H1  UNL     1      -9.010  13.805  68.237  1.00  0.00     0.000 HD 
BRANCH  22  26
HETATM   26  C   UNL     1     -10.793  12.245  67.006  1.00  0.00    -0.288 A  
HETATM   27  C   UNL     1     -11.736  13.282  66.925  1.00  0.00    -0.437 A  
HETATM   28  C   UNL     1     -12.446  13.512  65.744  1.00  0.00    -0.514 A  
HETATM   29  C   UNL     1     -12.215  12.716  64.625  1.00  0.00    -0.519 A  
HETATM   30  C   UNL     1     -11.267  11.698  64.679  1.00  0.00    -0.320 A  
HETATM   31  C   UNL     1     -10.555  11.469  65.859  1.00  0.00    -0.318 A  
ENDBRANCH  22  26
ENDBRANCH  20  22
ENDBRANCH   8  18
TORSDOF 6
ENDMDL
MODEL      102
REMARK 921   NORMALIZED FREE ENERGY PREDICTED BY IDOCK:   -4.82 KCAL/MOL
REMARK 922        TOTAL FREE ENERGY PREDICTED BY IDOCK:   -7.55 KCAL/MOL
REMARK 923 INTER-LIGAND FREE ENERGY PREDICTED BY IDOCK:   -6.49 KCAL/MOL
REMARK 924 INTRA-LIGAND FREE ENERGY PREDICTED BY IDOCK:   -1.06 KCAL/MOL
REMARK 927      BINDING AFFINITY PREDICTED BY RF-SCORE:    0.00 PKD
ROOT
HETATM    1  C   UNL     1      -8.910   8.731  71.244  1.00  0.00    -0.226 C  
HETATM    2  S   UNL     1      -8.740   8.696  69.445  1.00  0.00    -0.140 SA 
HETATM    3  C   UNL     1      -9.669  10.219  69.206  1.00  0.00    -0.225 C  
HETATM    4  C   UNL     1     -10.971  10.315  69.980  1.00  0.00    -0.371 C  
HETATM    5  OXT UNL     1     -13.574  10.277  71.213  1.00  0.00    -0.249 OA 
HETATM    6  CA  UNL     1     -11.262   9.575  71.091  1.00  0.00    -0.376 C  
HETATM    7  N   UNL     1     -10.318   8.720  71.595  1.00  0.00    -0.292 N  
HETATM    8  CA  UNL     1      -8.799   7.338  71.947  1.00  0.00    -0.122 C  
HETATM    9  C   UNL     1     -12.651   9.647  71.708  1.00  0.00    -0.409 C  
HETATM   10  O   UNL     1     -12.831   9.041  72.894  1.00  0.00    -0.305 OA 
HETATM   11  O   UNL     1     -11.095   7.221  73.180  1.00  0.00    -0.331 OA 
HETATM   12  C   UNL     1     -10.249   7.671  72.441  1.00  0.00    -0.228 C  
ENDROOT
BRANCH   4  13
HETATM   13  C   UNL     1     -11.948  11.279  69.304  1.00  0.00    -0.342 C  
BRANCH  13  14
HETATM   14  O   UNL     1     -11.827  11.190  67.867  1.00  0.00    -0.601 OA 
BRANCH  14  15
HETATM   15  C   UNL     1     -11.954  12.353  67.172  1.00  0.00    -0.177 C  
HETATM   16  C   UNL     1     -11.958  13.528  68.103  1.00  0.00    -0.376 C  
HETATM   17  O   UNL     1     -12.006  12.457  65.955  1.00  0.00    -0.516 OA 
ENDBRANCH  14  15
ENDBRANCH  13  14
ENDBRANCH   4  13
BRANCH   8  18
HETATM   18  N   UNL     1      -8.696   6.179  71.031  1.00  0.00    -0.131 N  
HETATM   19  H   UNL     1      -9.543   5.884  70.546  1.00  0.00     0.000 HD 
HETATM   20  C   UNL     1      -7.544   5.471  70.782  1.00  0.00    -0.090 C  
HETATM   21  O   UNL     1      -6.458   5.763  71.272  1.00  0.00    -0.041 OA 
BRANCH  20  22
HETATM   22  CA  UNL     1      -7.769   4.274  69.822  1.00  0.00    -0.053 C  
HETATM   23  H2  UNL     1      -6.020   3.296  70.454  1.00  0.00     0.000 HD 
HETATM   24  N   UNL     1      -6.471   3.578  69.585  1.00  0.00    -0.032 NA 
HETATM   25  H1  UNL     1      -6.619   2.792  68.953  1.00  0.00     0.000 HD 
BRANCH  22  26
HETATM   26  C   UNL     1      -8.419   4.717  68.524  1.00  0.00    -0.097 A  
HETATM   27  C   UNL     1      -7.704   5.550  67.648  1.00  0.00    -0.093 A  
HETATM   28  C   UNL     1      -8.276   5.984  66.449  1.00  0.00    -0.112 A  
HETATM   29  C   UNL     1      -9.564   5.583  66.105  1.00  0.00    -0.158 A  
HETATM   30  C   UNL     1     -10.278   4.738  66.949  1.00  0.00    -0.230 A  
HETATM   31  C   UNL     1      -9.708   4.302  68.147  1.00  0.00    -0.165 A  
ENDBRANCH  22  26
ENDBRANCH  20  22
ENDBRANCH   8  18
TORSDOF 6
ENDMDL
MODEL      103
REMARK 921   NORMALIZED FREE ENERGY PREDICTED BY IDOCK:   -4.81 KCAL/MOL
REMARK 922        TOTAL FREE ENERGY PREDICTED BY IDOCK:   -7.53 KCAL/MOL
REMARK 923 INTER-LIGAND FREE ENERGY PREDICTED BY IDOCK:   -6.81 KCAL/MOL
REMARK 924 INTRA-LIGAND FREE ENERGY PREDICTED BY IDOCK:   -0.72 KCAL/MOL
REMARK 927      BINDING AFFINITY PREDICTED BY RF-SCORE:    0.00 PKD
ROOT
HETATM    1  C   UNL     1      -9.118   9.788  68.644  1.00  0.00    -0.130 C  
HETATM    2  S   UNL     1     -10.461  10.140  69.800  1.00  0.00    -0.266 SA 
HETATM    3  C   UNL     1     -10.484   8.472  70.473  1.00  0.00    -0.204 C  
HETATM    4  C   UNL     1     -10.458   7.355  69.445  1.00  0.00    -0.220 C  
HETATM    5  OXT UNL     1     -10.745   5.312  67.434  1.00  0.00    -0.163 OA 
HETATM    6  CA  UNL     1     -10.020   7.504  68.159  1.00  0.00    -0.172 C  
HETATM    7  N   UNL     1      -9.516   8.713  67.756  1.00  0.00    -0.140 N  
HETATM    8  CA  UNL     1      -9.069  10.713  67.383  1.00  0.00    -0.139 C  
HETATM    9  C   UNL     1     -10.169   6.358  67.170  1.00  0.00    -0.199 C  
HETATM   10  O   UNL     1      -9.565   6.491  65.976  1.00  0.00    -0.048 OA 
HETATM   11  O   UNL     1      -9.240   8.949  65.469  1.00  0.00    -0.220 OA 
HETATM   12  C   UNL     1      -9.238   9.362  66.606  1.00  0.00    -0.153 C  
ENDROOT
BRANCH   4  13
HETATM   13  C   UNL     1     -11.069   6.070  70.006  1.00  0.00    -0.381 C  
BRANCH  13  14
HETATM   14  O   UNL     1     -10.770   5.945  71.413  1.00  0.00    -0.242 OA 
BRANCH  14  15
HETATM   15  C   UNL     1     -10.253   4.756  71.824  1.00  0.00    -0.188 C  
HETATM   16  C   UNL     1      -9.060   4.384  70.995  1.00  0.00    -0.185 C  
HETATM   17  O   UNL     1     -10.654   4.088  72.766  1.00  0.00    -0.176 OA 
ENDBRANCH  14  15
ENDBRANCH  13  14
ENDBRANCH   4  13
BRANCH   8  18
HETATM   18  N   UNL     1     -10.200  11.660  67.256  1.00  0.00    -0.199 N  
HETATM   19  H   UNL     1     -10.791  11.802  68.075  1.00  0.00     0.000 HD 
HETATM   20  C   UNL     1     -10.514  12.365  66.118  1.00  0.00    -0.248 C  
HETATM   21  O   UNL     1      -9.849  12.309  65.090  1.00  0.00    -0.241 OA 
BRANCH  20  22
HETATM   22  CA  UNL     1     -11.791  13.229  66.280  1.00  0.00    -0.395 C  
HETATM   23  H2  UNL     1     -12.122  13.324  64.206  1.00  0.00     0.000 HD 
HETATM   24  N   UNL     1     -12.062  13.955  65.005  1.00  0.00    -0.384 NA 
HETATM   25  H1  UNL     1     -12.902  14.524  65.111  1.00  0.00     0.000 HD 
BRANCH  22  26
HETATM   26  C   UNL     1     -11.674  14.179  67.457  1.00  0.00    -0.418 A  
HETATM   27  C   UNL     1     -11.118  15.453  67.259  1.00  0.00    -0.302 A  
HETATM   28  C   UNL     1     -10.987  16.349  68.323  1.00  0.00    -0.355 A  
HETATM   29  C   UNL     1     -11.419  15.989  69.597  1.00  0.00    -0.326 A  
HETATM   30  C   UNL     1     -11.994  14.739  69.807  1.00  0.00    -0.368 A  
HETATM   31  C   UNL     1     -12.128  13.843  68.744  1.00  0.00    -0.344 A  
ENDBRANCH  22  26
ENDBRANCH  20  22
ENDBRANCH   8  18
TORSDOF 6
ENDMDL
MODEL      104
REMARK 921   NORMALIZED FREE ENERGY PREDICTED BY IDOCK:   -4.79 KCAL/MOL
REMARK 922        TOTAL FREE ENERGY PREDICTED BY IDOCK:   -7.50 KCAL/MOL
REMARK 923 INTER-LIGAND FREE ENERGY PREDICTED BY IDOCK:   -6.67 KCAL/MOL
REMARK 924 INTRA-LIGAND FREE ENERGY PREDICTED BY IDOCK:   -0.84 KCAL/MOL
REMARK 927      BINDING AFFINITY PREDICTED BY RF-SCORE:    0.00 PKD
ROOT
HETATM    1  C   UNL     1     -10.720   9.907  67.336  1.00  0.00    -0.260 C  
HETATM    2  S   UNL     1     -11.871  11.055  68.125  1.00  0.00     0.029 SA 
HETATM    3  C   UNL     1     -11.281  12.477  67.194  1.00  0.00    -0.300 C  
HETATM    4  C   UNL     1      -9.772  12.629  67.124  1.00  0.00    -0.211 C  
HETATM    5  OXT UNL     1      -6.926  13.029  67.322  1.00  0.00    -0.142 OA 
HETATM    6  CA  UNL     1      -8.887  11.611  67.336  1.00  0.00    -0.160 C  
HETATM    7  N   UNL     1      -9.359  10.347  67.576  1.00  0.00    -0.148 N  
HETATM    8  CA  UNL     1     -10.377   8.631  68.175  1.00  0.00    -0.216 C  
HETATM    9  C   UNL     1      -7.394  11.902  67.381  1.00  0.00    -0.145 C  
HETATM   10  O   UNL     1      -6.560  10.847  67.414  1.00  0.00    -0.064 OA 
HETATM   11  O   UNL     1      -7.783   8.840  68.354  1.00  0.00    -0.094 OA 
HETATM   12  C   UNL     1      -8.910   9.175  68.070  1.00  0.00    -0.129 C  
ENDROOT
BRANCH   4  13
HETATM   13  C   UNL     1      -9.372  14.085  66.878  1.00  0.00    -0.257 C  
BRANCH  13  14
HETATM   14  O   UNL     1      -9.865  14.928  67.942  1.00  0.00    -0.212 OA 
BRANCH  14  15
HETATM   15  C   UNL     1     -10.385  16.130  67.577  1.00  0.00    -0.286 C  
HETATM   16  C   UNL     1     -10.054  16.436  66.147  1.00  0.00    -0.364 C  
HETATM   17  O   UNL     1     -11.073  16.856  68.280  1.00  0.00    -0.349 OA 
ENDBRANCH  14  15
ENDBRANCH  13  14
ENDBRANCH   4  13
BRANCH   8  18
HETATM   18  N   UNL     1     -10.945   8.608  69.542  1.00  0.00    -0.416 N  
HETATM   19  H   UNL     1     -10.997   9.493  70.046  1.00  0.00     0.000 HD 
HETATM   20  C   UNL     1     -11.408   7.485  70.184  1.00  0.00    -0.151 C  
HETATM   21  O   UNL     1     -11.437   6.376  69.660  1.00  0.00    -0.416 OA 
BRANCH  20  22
HETATM   22  CA  UNL     1     -11.887   7.773  71.631  1.00  0.00    -0.287 C  
HETATM   23  H2  UNL     1     -12.331   9.782  71.200  1.00  0.00     0.000 HD 
HETATM   24  N   UNL     1     -11.815   9.240  71.893  1.00  0.00    -0.370 NA 
HETATM   25  H1  UNL     1     -12.129   9.430  72.844  1.00  0.00     0.000 HD 
BRANCH  22  26
HETATM   26  C   UNL     1     -11.091   6.978  72.649  1.00  0.00    -0.317 A  
HETATM   27  C   UNL     1     -11.504   5.677  72.978  1.00  0.00    -0.247 A  
HETATM   28  C   UNL     1     -10.799   4.920  73.918  1.00  0.00    -0.355 A  
HETATM   29  C   UNL     1      -9.667   5.448  74.533  1.00  0.00    -0.199 A  
HETATM   30  C   UNL     1      -9.229   6.727  74.201  1.00  0.00    -0.234 A  
HETATM   31  C   UNL     1      -9.931   7.484  73.260  1.00  0.00    -0.368 A  
ENDBRANCH  22  26
ENDBRANCH  20  22
ENDBRANCH   8  18
TORSDOF 6
ENDMDL
MODEL      105
REMARK 921   NORMALIZED FREE ENERGY PREDICTED BY IDOCK:   -4.74 KCAL/MOL
REMARK 922        TOTAL FREE ENERGY PREDICTED BY IDOCK:   -7.43 KCAL/MOL
REMARK 923 INTER-LIGAND FREE ENERGY PREDICTED BY IDOCK:   -6.74 KCAL/MOL
REMARK 924 INTRA-LIGAND FREE ENERGY PREDICTED BY IDOCK:   -0.69 KCAL/MOL
REMARK 927      BINDING AFFINITY PREDICTED BY RF-SCORE:    0.00 PKD
ROOT
HETATM    1  C   UNL     1      -9.115   9.988  69.599  1.00  0.00    -0.210 C  
HETATM    2  S   UNL     1      -9.665  11.086  68.273  1.00  0.00    -0.183 SA 
HETATM    3  C   UNL     1     -10.678  12.095  69.364  1.00  0.00     0.108 C  
HETATM    4  C   UNL     1     -11.574  11.326  70.317  1.00  0.00    -0.366 C  
HETATM    5  OXT UNL     1     -13.477   9.801  71.851  1.00  0.00    -0.402 OA 
HETATM    6  CA  UNL     1     -11.371  10.024  70.681  1.00  0.00    -0.348 C  
HETATM    7  N   UNL     1     -10.268   9.359  70.213  1.00  0.00    -0.228 N  
HETATM    8  CA  UNL     1      -8.674   8.560  69.136  1.00  0.00    -0.134 C  
HETATM    9  C   UNL     1     -12.407   9.304  71.532  1.00  0.00    -0.360 C  
HETATM   10  O   UNL     1     -12.079   8.090  72.007  1.00  0.00    -0.301 OA 
HETATM   11  O   UNL     1     -10.292   7.066  70.535  1.00  0.00    -0.199 OA 
HETATM   12  C   UNL     1      -9.826   8.090  70.091  1.00  0.00    -0.184 C  
ENDROOT
BRANCH   4  13
HETATM   13  C   UNL     1     -12.780  12.164  70.746  1.00  0.00    -0.132 C  
BRANCH  13  14
HETATM   14  O   UNL     1     -12.521  13.567  70.519  1.00  0.00    -0.332 OA 
BRANCH  14  15
HETATM   15  C   UNL     1     -13.211  14.447  71.293  1.00  0.00    -0.349 C  
HETATM   16  C   UNL     1     -14.041  13.719  72.309  1.00  0.00    -0.627 C  
HETATM   17  O   UNL     1     -13.142  15.666  71.227  1.00  0.00    -0.484 OA 
ENDBRANCH  14  15
ENDBRANCH  13  14
ENDBRANCH   4  13
BRANCH   8  18
HETATM   18  N   UNL     1      -8.889   8.271  67.699  1.00  0.00    -0.136 N  
HETATM   19  H   UNL     1      -9.787   7.871  67.428  1.00  0.00     0.000 HD 
HETATM   20  C   UNL     1      -7.971   8.503  66.703  1.00  0.00    -0.100 C  
HETATM   21  O   UNL     1      -6.878   9.021  66.905  1.00  0.00    -0.075 OA 
BRANCH  20  22
HETATM   22  CA  UNL     1      -8.467   8.040  65.309  1.00  0.00    -0.117 C  
HETATM   23  H2  UNL     1      -7.025   6.515  65.180  1.00  0.00     0.000 HD 
HETATM   24  N   UNL     1      -7.377   7.291  64.619  1.00  0.00    -0.073 NA 
HETATM   25  H1  UNL     1      -7.703   6.986  63.702  1.00  0.00     0.000 HD 
BRANCH  22  26
HETATM   26  C   UNL     1      -8.963   9.209  64.478  1.00  0.00    -0.129 A  
HETATM   27  C   UNL     1      -8.338   9.495  63.254  1.00  0.00    -0.181 A  
HETATM   28  C   UNL     1      -8.764  10.570  62.469  1.00  0.00    -0.270 A  
HETATM   29  C   UNL     1      -9.825  11.366  62.891  1.00  0.00    -0.314 A  
HETATM   30  C   UNL     1     -10.472  11.082  64.091  1.00  0.00    -0.434 A  
HETATM   31  C   UNL     1     -10.049  10.007  64.876  1.00  0.00    -0.184 A  
ENDBRANCH  22  26
ENDBRANCH  20  22
ENDBRANCH   8  18
TORSDOF 6
ENDMDL
MODEL      106
REMARK 921   NORMALIZED FREE ENERGY PREDICTED BY IDOCK:   -4.73 KCAL/MOL
REMARK 922        TOTAL FREE ENERGY PREDICTED BY IDOCK:   -7.42 KCAL/MOL
REMARK 923 INTER-LIGAND FREE ENERGY PREDICTED BY IDOCK:   -7.21 KCAL/MOL
REMARK 924 INTRA-LIGAND FREE ENERGY PREDICTED BY IDOCK:   -0.21 KCAL/MOL
REMARK 927      BINDING AFFINITY PREDICTED BY RF-SCORE:    0.00 PKD
ROOT
HETATM    1  C   UNL     1      -9.169  12.916  68.627  1.00  0.00     0.041 C  
HETATM    2  S   UNL     1      -8.671  14.025  67.291  1.00  0.00    -0.221 SA 
HETATM    3  C   UNL     1      -8.908  15.513  68.274  1.00  0.00    -0.179 C  
HETATM    4  C   UNL     1     -10.209  15.579  69.053  1.00  0.00    -0.229 C  
HETATM    5  OXT UNL     1     -12.834  15.772  70.226  1.00  0.00    -0.348 OA 
HETATM    6  CA  UNL     1     -10.965  14.488  69.379  1.00  0.00    -0.249 C  
HETATM    7  N   UNL     1     -10.522  13.237  69.041  1.00  0.00    -0.092 N  
HETATM    8  CA  UNL     1      -9.719  11.526  68.164  1.00  0.00    -0.192 C  
HETATM    9  C   UNL     1     -12.323  14.677  70.038  1.00  0.00    -0.315 C  
HETATM   10  O   UNL     1     -12.946  13.576  70.496  1.00  0.00    -0.123 OA 
HETATM   11  O   UNL     1     -12.093  11.548  69.246  1.00  0.00    -0.321 OA 
HETATM   12  C   UNL     1     -11.012  11.985  68.922  1.00  0.00    -0.232 C  
ENDROOT
BRANCH   4  13
HETATM   13  C   UNL     1     -10.609  17.026  69.346  1.00  0.00    -0.236 C  
BRANCH  13  14
HETATM   14  O   UNL     1     -10.765  17.762  68.113  1.00  0.00    -0.366 OA 
BRANCH  14  15
HETATM   15  C   UNL     1     -10.359  19.060  68.123  1.00  0.00    -0.368 C  
HETATM   16  C   UNL     1     -10.654  19.716  66.807  1.00  0.00    -0.602 C  
HETATM   17  O   UNL     1      -9.867  19.649  69.074  1.00  0.00    -0.431 OA 
ENDBRANCH  14  15
ENDBRANCH  13  14
ENDBRANCH   4  13
BRANCH   8  18
HETATM   18  N   UNL     1      -9.869  11.367  66.699  1.00  0.00    -0.201 N  
HETATM   19  H   UNL     1     -10.660  11.832  66.253  1.00  0.00     0.000 HD 
HETATM   20  C   UNL     1      -9.023  10.642  65.894  1.00  0.00    -0.175 C  
HETATM   21  O   UNL     1      -8.016  10.081  66.312  1.00  0.00    -0.107 OA 
BRANCH  20  22
HETATM   22  CA  UNL     1      -9.479  10.616  64.412  1.00  0.00    -0.269 C  
HETATM   23  H2  UNL     1      -7.587  10.008  63.726  1.00  0.00     0.000 HD 
HETATM   24  N   UNL     1      -8.285  10.724  63.524  1.00  0.00    -0.363 NA 
HETATM   25  H1  UNL     1      -8.584  10.707  62.550  1.00  0.00     0.000 HD 
BRANCH  22  26
HETATM   26  C   UNL     1     -10.498  11.702  64.124  1.00  0.00    -0.402 A  
HETATM   27  C   UNL     1     -10.193  13.034  64.450  1.00  0.00    -0.335 A  
HETATM   28  C   UNL     1     -11.111  14.058  64.207  1.00  0.00    -0.198 A  
HETATM   29  C   UNL     1     -12.343  13.767  63.625  1.00  0.00    -0.256 A  
HETATM   30  C   UNL     1     -12.654  12.457  63.274  1.00  0.00    -0.381 A  
HETATM   31  C   UNL     1     -11.735  11.432  63.514  1.00  0.00    -0.064 A  
ENDBRANCH  22  26
ENDBRANCH  20  22
ENDBRANCH   8  18
TORSDOF 6
ENDMDL
MODEL      107
REMARK 921   NORMALIZED FREE ENERGY PREDICTED BY IDOCK:   -4.72 KCAL/MOL
REMARK 922        TOTAL FREE ENERGY PREDICTED BY IDOCK:   -7.41 KCAL/MOL
REMARK 923 INTER-LIGAND FREE ENERGY PREDICTED BY IDOCK:   -7.36 KCAL/MOL
REMARK 924 INTRA-LIGAND FREE ENERGY PREDICTED BY IDOCK:   -0.04 KCAL/MOL
REMARK 927      BINDING AFFINITY PREDICTED BY RF-SCORE:    0.00 PKD
ROOT
HETATM    1  C   UNL     1     -10.733   5.519  71.117  1.00  0.00    -0.210 C  
HETATM    2  S   UNL     1     -11.264   6.355  69.606  1.00  0.00    -0.413 SA 
HETATM    3  C   UNL     1      -9.685   6.119  68.776  1.00  0.00    -0.129 C  
HETATM    4  C   UNL     1      -8.458   6.459  69.603  1.00  0.00    -0.130 C  
HETATM    5  OXT UNL     1      -6.210   7.438  71.117  1.00  0.00    -0.036 OA 
HETATM    6  CA  UNL     1      -8.443   6.517  70.968  1.00  0.00    -0.127 C  
HETATM    7  N   UNL     1      -9.579   6.204  71.667  1.00  0.00    -0.152 N  
HETATM    8  CA  UNL     1     -11.507   5.937  72.412  1.00  0.00    -0.306 C  
HETATM    9  C   UNL     1      -7.197   7.005  71.693  1.00  0.00    -0.078 C  
HETATM   10  O   UNL     1      -7.172   6.876  73.031  1.00  0.00    -0.075 OA 
HETATM   11  O   UNL     1      -9.543   6.777  73.911  1.00  0.00    -0.185 OA 
HETATM   12  C   UNL     1     -10.083   6.366  72.908  1.00  0.00    -0.183 C  
ENDROOT
BRANCH   4  13
HETATM   13  C   UNL     1      -7.268   6.815  68.711  1.00  0.00    -0.092 C  
BRANCH  13  14
HETATM   14  O   UNL     1      -7.658   7.789  67.719  1.00  0.00    -0.107 OA 
BRANCH  14  15
HETATM   15  C   UNL     1      -7.720   9.085  68.129  1.00  0.00    -0.096 C  
HETATM   16  C   UNL     1      -8.957   9.748  67.602  1.00  0.00    -0.133 C  
HETATM   17  O   UNL     1      -6.919   9.641  68.867  1.00  0.00    -0.057 OA 
ENDBRANCH  14  15
ENDBRANCH  13  14
ENDBRANCH   4  13
BRANCH   8  18
HETATM   18  N   UNL     1     -12.473   7.045  72.234  1.00  0.00    -0.522 N  
HETATM   19  H   UNL     1     -13.454   6.799  72.099  1.00  0.00     0.000 HD 
HETATM   20  C   UNL     1     -12.150   8.381  72.239  1.00  0.00    -0.392 C  
HETATM   21  O   UNL     1     -11.014   8.796  72.438  1.00  0.00    -0.321 OA 
BRANCH  20  22
HETATM   22  CA  UNL     1     -13.373   9.296  71.968  1.00  0.00    -0.450 C  
HETATM   23  H2  UNL     1     -14.623   7.673  71.500  1.00  0.00     0.000 HD 
HETATM   24  N   UNL     1     -14.351   8.573  71.105  1.00  0.00    -0.629 NA 
HETATM   25  H1  UNL     1     -15.155   9.174  70.926  1.00  0.00     0.000 HD 
BRANCH  22  26
HETATM   26  C   UNL     1     -12.952  10.621  71.359  1.00  0.00    -0.545 A  
HETATM   27  C   UNL     1     -13.297  11.816  72.009  1.00  0.00    -0.417 A  
HETATM   28  C   UNL     1     -12.933  13.053  71.471  1.00  0.00    -0.398 A  
HETATM   29  C   UNL     1     -12.211  13.112  70.282  1.00  0.00    -0.376 A  
HETATM   30  C   UNL     1     -11.840  11.937  69.635  1.00  0.00    -0.406 A  
HETATM   31  C   UNL     1     -12.201  10.699  70.173  1.00  0.00    -0.398 A  
ENDBRANCH  22  26
ENDBRANCH  20  22
ENDBRANCH   8  18
TORSDOF 6
ENDMDL
MODEL      108
REMARK 921   NORMALIZED FREE ENERGY PREDICTED BY IDOCK:   -4.71 KCAL/MOL
REMARK 922        TOTAL FREE ENERGY PREDICTED BY IDOCK:   -7.40 KCAL/MOL
REMARK 923 INTER-LIGAND FREE ENERGY PREDICTED BY IDOCK:   -6.36 KCAL/MOL
REMARK 924 INTRA-LIGAND FREE ENERGY PREDICTED BY IDOCK:   -1.05 KCAL/MOL
REMARK 927      BINDING AFFINITY PREDICTED BY RF-SCORE:    0.00 PKD
ROOT
HETATM    1  C   UNL     1     -10.514   8.860  68.994  1.00  0.00    -0.214 C  
HETATM    2  S   UNL     1     -10.772   9.530  67.336  1.00  0.00    -0.151 SA 
HETATM    3  C   UNL     1      -9.929   8.165  66.521  1.00  0.00    -0.232 C  
HETATM    4  C   UNL     1      -8.596   7.768  67.128  1.00  0.00    -0.128 C  
HETATM    5  OXT UNL     1      -5.935   7.301  68.130  1.00  0.00    -0.028 OA 
HETATM    6  CA  UNL     1      -8.215   8.062  68.407  1.00  0.00    -0.123 C  
HETATM    7  N   UNL     1      -9.092   8.710  69.237  1.00  0.00    -0.148 N  
HETATM    8  CA  UNL     1     -10.524   9.920  70.145  1.00  0.00    -0.285 C  
HETATM    9  C   UNL     1      -6.802   7.741  68.871  1.00  0.00    -0.058 C  
HETATM   10  O   UNL     1      -6.534   7.887  70.181  1.00  0.00    -0.036 OA 
HETATM   11  O   UNL     1      -8.167   9.535  71.194  1.00  0.00    -0.295 OA 
HETATM   12  C   UNL     1      -9.069   9.396  70.399  1.00  0.00    -0.256 C  
ENDROOT
BRANCH   4  13
HETATM   13  C   UNL     1      -7.700   7.078  66.098  1.00  0.00    -0.095 C  
BRANCH  13  14
HETATM   14  O   UNL     1      -8.493   6.256  65.214  1.00  0.00    -0.151 OA 
BRANCH  14  15
HETATM   15  C   UNL     1      -8.434   4.912  65.414  1.00  0.00    -0.133 C  
HETATM   16  C   UNL     1      -9.779   4.286  65.198  1.00  0.00    -0.199 C  
HETATM   17  O   UNL     1      -7.427   4.272  65.682  1.00  0.00    -0.078 OA 
ENDBRANCH  14  15
ENDBRANCH  13  14
ENDBRANCH   4  13
BRANCH   8  18
HETATM   18  N   UNL     1     -10.619  11.329  69.700  1.00  0.00    -0.454 N  
HETATM   19  H   UNL     1      -9.846  11.703  69.149  1.00  0.00     0.000 HD 
HETATM   20  C   UNL     1     -11.670  12.173  69.971  1.00  0.00    -0.252 C  
HETATM   21  O   UNL     1     -12.672  11.820  70.583  1.00  0.00    -0.217 OA 
BRANCH  20  22
HETATM   22  CA  UNL     1     -11.449  13.605  69.420  1.00  0.00    -0.286 C  
HETATM   23  H2  UNL     1     -12.819  14.454  70.769  1.00  0.00     0.000 HD 
HETATM   24  N   UNL     1     -12.623  14.457  69.768  1.00  0.00    -0.524 NA 
HETATM   25  H1  UNL     1     -12.478  15.399  69.405  1.00  0.00     0.000 HD 
BRANCH  22  26
HETATM   26  C   UNL     1     -11.184  13.591  67.926  1.00  0.00    -0.302 A  
HETATM   27  C   UNL     1     -12.158  13.070  67.060  1.00  0.00    -0.330 A  
HETATM   28  C   UNL     1     -11.943  13.034  65.680  1.00  0.00    -0.479 A  
HETATM   29  C   UNL     1     -10.756  13.528  65.146  1.00  0.00    -0.349 A  
HETATM   30  C   UNL     1      -9.788  14.070  65.986  1.00  0.00    -0.316 A  
HETATM   31  C   UNL     1     -10.003  14.109  67.366  1.00  0.00    -0.240 A  
ENDBRANCH  22  26
ENDBRANCH  20  22
ENDBRANCH   8  18
TORSDOF 6
ENDMDL
MODEL      109
REMARK 921   NORMALIZED FREE ENERGY PREDICTED BY IDOCK:   -4.71 KCAL/MOL
REMARK 922        TOTAL FREE ENERGY PREDICTED BY IDOCK:   -7.40 KCAL/MOL
REMARK 923 INTER-LIGAND FREE ENERGY PREDICTED BY IDOCK:   -7.16 KCAL/MOL
REMARK 924 INTRA-LIGAND FREE ENERGY PREDICTED BY IDOCK:   -0.24 KCAL/MOL
REMARK 927      BINDING AFFINITY PREDICTED BY RF-SCORE:    0.00 PKD
ROOT
HETATM    1  C   UNL     1      -9.931  10.819  68.161  1.00  0.00    -0.160 C  
HETATM    2  S   UNL     1      -8.143  10.987  68.364  1.00  0.00    -0.141 SA 
HETATM    3  C   UNL     1      -7.954   9.362  69.113  1.00  0.00    -0.091 C  
HETATM    4  C   UNL     1      -8.951   9.029  70.208  1.00  0.00    -0.221 C  
HETATM    5  OXT UNL     1     -10.659   8.612  72.489  1.00  0.00    -0.300 OA 
HETATM    6  CA  UNL     1     -10.158   9.651  70.362  1.00  0.00    -0.276 C  
HETATM    7  N   UNL     1     -10.545  10.604  69.457  1.00  0.00    -0.236 N  
HETATM    8  CA  UNL     1     -10.719  12.170  68.094  1.00  0.00    -0.211 C  
HETATM    9  C   UNL     1     -11.021   9.340  71.576  1.00  0.00    -0.375 C  
HETATM   10  O   UNL     1     -12.269   9.841  71.591  1.00  0.00    -0.371 OA 
HETATM   11  O   UNL     1     -12.375  11.875  70.088  1.00  0.00    -0.248 OA 
HETATM   12  C   UNL     1     -11.451  11.598  69.357  1.00  0.00    -0.307 C  
ENDROOT
BRANCH   4  13
HETATM   13  C   UNL     1      -8.393   7.975  71.166  1.00  0.00    -0.114 C  
BRANCH  13  14
HETATM   14  O   UNL     1      -8.446   6.666  70.557  1.00  0.00    -0.134 OA 
BRANCH  14  15
HETATM   15  C   UNL     1      -7.356   5.871  70.726  1.00  0.00    -0.085 C  
HETATM   16  C   UNL     1      -7.423   5.154  72.042  1.00  0.00    -0.092 C  
HETATM   17  O   UNL     1      -6.458   5.705  69.913  1.00  0.00    -0.035 OA 
ENDBRANCH  14  15
ENDBRANCH  13  14
ENDBRANCH   4  13
BRANCH   8  18
HETATM   18  N   UNL     1      -9.905  13.384  68.331  1.00  0.00    -0.255 N  
HETATM   19  H   UNL     1      -9.165  13.326  69.032  1.00  0.00     0.000 HD 
HETATM   20  C   UNL     1     -10.069  14.583  67.680  1.00  0.00    -0.228 C  
HETATM   21  O   UNL     1     -10.894  14.755  66.789  1.00  0.00    -0.303 OA 
BRANCH  20  22
HETATM   22  CA  UNL     1      -9.102  15.683  68.192  1.00  0.00    -0.181 C  
HETATM   23  H2  UNL     1      -8.588  14.585  69.909  1.00  0.00     0.000 HD 
HETATM   24  N   UNL     1      -8.905  15.523  69.662  1.00  0.00    -0.293 NA 
HETATM   25  H1  UNL     1      -8.270  16.246  69.999  1.00  0.00     0.000 HD 
BRANCH  22  26
HETATM   26  C   UNL     1      -9.601  17.071  67.836  1.00  0.00    -0.249 A  
HETATM   27  C   UNL     1      -9.890  17.374  66.496  1.00  0.00    -0.310 A  
HETATM   28  C   UNL     1     -10.343  18.645  66.132  1.00  0.00    -0.481 A  
HETATM   29  C   UNL     1     -10.523  19.626  67.104  1.00  0.00    -0.595 A  
HETATM   30  C   UNL     1     -10.265  19.336  68.440  1.00  0.00    -0.503 A  
HETATM   31  C   UNL     1      -9.815  18.065  68.806  1.00  0.00    -0.360 A  
ENDBRANCH  22  26
ENDBRANCH  20  22
ENDBRANCH   8  18
TORSDOF 6
ENDMDL
MODEL      110
REMARK 921   NORMALIZED FREE ENERGY PREDICTED BY IDOCK:   -4.70 KCAL/MOL
REMARK 922        TOTAL FREE ENERGY PREDICTED BY IDOCK:   -7.39 KCAL/MOL
REMARK 923 INTER-LIGAND FREE ENERGY PREDICTED BY IDOCK:   -6.60 KCAL/MOL
REMARK 924 INTRA-LIGAND FREE ENERGY PREDICTED BY IDOCK:   -0.79 KCAL/MOL
REMARK 927      BINDING AFFINITY PREDICTED BY RF-SCORE:    0.00 PKD
ROOT
HETATM    1  C   UNL     1      -9.587  12.762  68.917  1.00  0.00     0.236 C  
HETATM    2  S   UNL     1     -11.203  12.338  68.227  1.00  0.00    -0.292 SA 
HETATM    3  C   UNL     1     -11.356  10.829  69.195  1.00  0.00    -0.282 C  
HETATM    4  C   UNL     1     -10.128   9.937  69.208  1.00  0.00    -0.214 C  
HETATM    5  OXT UNL     1      -7.887   8.152  68.910  1.00  0.00    -0.108 OA 
HETATM    6  CA  UNL     1      -8.864  10.366  68.916  1.00  0.00    -0.161 C  
HETATM    7  N   UNL     1      -8.650  11.690  68.639  1.00  0.00    -0.127 N  
HETATM    8  CA  UNL     1      -8.699  13.676  68.009  1.00  0.00    -0.176 C  
HETATM    9  C   UNL     1      -7.726   9.360  68.821  1.00  0.00    -0.080 C  
HETATM   10  O   UNL     1      -6.478   9.849  68.706  1.00  0.00    -0.045 OA 
HETATM   11  O   UNL     1      -6.577  12.183  67.731  1.00  0.00    -0.078 OA 
HETATM   12  C   UNL     1      -7.701  12.468  68.077  1.00  0.00    -0.140 C  
ENDROOT
BRANCH   4  13
HETATM   13  C   UNL     1     -10.501   8.483  69.502  1.00  0.00    -0.220 C  
BRANCH  13  14
HETATM   14  O   UNL     1     -11.675   8.426  70.341  1.00  0.00    -0.151 OA 
BRANCH  14  15
HETATM   15  C   UNL     1     -12.010   7.205  70.838  1.00  0.00    -0.334 C  
HETATM   16  C   UNL     1     -13.340   7.263  71.529  1.00  0.00    -0.435 C  
HETATM   17  O   UNL     1     -11.362   6.177  70.708  1.00  0.00    -0.321 OA 
ENDBRANCH  14  15
ENDBRANCH  13  14
ENDBRANCH   4  13
BRANCH   8  18
HETATM   18  N   UNL     1      -9.257  13.959  66.667  1.00  0.00    -0.362 N  
HETATM   19  H   UNL     1      -9.183  13.226  65.961  1.00  0.00     0.000 HD 
HETATM   20  C   UNL     1      -9.866  15.135  66.299  1.00  0.00    -0.295 C  
HETATM   21  O   UNL     1     -10.051  16.066  67.074  1.00  0.00    -0.259 OA 
BRANCH  20  22
HETATM   22  CA  UNL     1     -10.291  15.150  64.807  1.00  0.00    -0.135 C  
HETATM   23  H2  UNL     1     -10.543  17.237  64.787  1.00  0.00     0.000 HD 
HETATM   24  N   UNL     1     -11.059  16.397  64.524  1.00  0.00    -1.003 NA 
HETATM   25  H1  UNL     1     -11.339  16.408  63.544  1.00  0.00     0.000 HD 
BRANCH  22  26
HETATM   26  C   UNL     1     -11.079  13.906  64.441  1.00  0.00    -0.332 A  
HETATM   27  C   UNL     1     -10.420  12.837  63.813  1.00  0.00    -0.335 A  
HETATM   28  C   UNL     1     -11.116  11.680  63.454  1.00  0.00    -0.422 A  
HETATM   29  C   UNL     1     -12.478  11.572  63.727  1.00  0.00    -0.066 A  
HETATM   30  C   UNL     1     -13.142  12.612  64.370  1.00  0.00    -0.071 A  
HETATM   31  C   UNL     1     -12.447  13.768  64.731  1.00  0.00    -0.386 A  
ENDBRANCH  22  26
ENDBRANCH  20  22
ENDBRANCH   8  18
TORSDOF 6
ENDMDL
MODEL      111
REMARK 921   NORMALIZED FREE ENERGY PREDICTED BY IDOCK:   -4.70 KCAL/MOL
REMARK 922        TOTAL FREE ENERGY PREDICTED BY IDOCK:   -7.39 KCAL/MOL
REMARK 923 INTER-LIGAND FREE ENERGY PREDICTED BY IDOCK:   -6.53 KCAL/MOL
REMARK 924 INTRA-LIGAND FREE ENERGY PREDICTED BY IDOCK:   -0.86 KCAL/MOL
REMARK 927      BINDING AFFINITY PREDICTED BY RF-SCORE:    0.00 PKD
ROOT
HETATM    1  C   UNL     1      -8.903   9.234  67.137  1.00  0.00    -0.127 C  
HETATM    2  S   UNL     1      -8.906  10.859  67.928  1.00  0.00    -0.138 SA 
HETATM    3  C   UNL     1      -8.427  10.211  69.537  1.00  0.00    -0.168 C  
HETATM    4  C   UNL     1      -9.197   8.988  70.002  1.00  0.00    -0.193 C  
HETATM    5  OXT UNL     1     -10.922   6.885  70.951  1.00  0.00    -0.237 OA 
HETATM    6  CA  UNL     1      -9.880   8.148  69.169  1.00  0.00    -0.182 C  
HETATM    7  N   UNL     1      -9.845   8.365  67.817  1.00  0.00    -0.166 N  
HETATM    8  CA  UNL     1      -9.816   9.112  65.872  1.00  0.00    -0.235 C  
HETATM    9  C   UNL     1     -10.735   7.032  69.752  1.00  0.00    -0.241 C  
HETATM   10  O   UNL     1     -11.241   6.129  68.893  1.00  0.00    -0.372 OA 
HETATM   11  O   UNL     1     -11.390   7.158  66.585  1.00  0.00     0.175 OA 
HETATM   12  C   UNL     1     -10.526   7.995  66.712  1.00  0.00    -0.248 C  
ENDROOT
BRANCH   4  13
HETATM   13  C   UNL     1      -9.184   8.870  71.527  1.00  0.00    -0.252 C  
BRANCH  13  14
HETATM   14  O   UNL     1      -8.108   8.007  71.954  1.00  0.00    -0.102 OA 
BRANCH  14  15
HETATM   15  C   UNL     1      -7.484   8.341  73.116  1.00  0.00    -0.105 C  
HETATM   16  C   UNL     1      -6.026   8.598  72.877  1.00  0.00    -0.081 C  
HETATM   17  O   UNL     1      -8.022   8.471  74.206  1.00  0.00    -0.348 OA 
ENDBRANCH  14  15
ENDBRANCH  13  14
ENDBRANCH   4  13
BRANCH   8  18
HETATM   18  N   UNL     1     -10.644  10.304  65.578  1.00  0.00    -0.066 N  
HETATM   19  H   UNL     1     -11.309  10.603  66.292  1.00  0.00     0.000 HD 
HETATM   20  C   UNL     1     -10.586  11.038  64.418  1.00  0.00    -0.325 C  
HETATM   21  O   UNL     1      -9.795  10.799  63.512  1.00  0.00    -0.298 OA 
BRANCH  20  22
HETATM   22  CA  UNL     1     -11.622  12.192  64.384  1.00  0.00    -0.350 C  
HETATM   23  H2  UNL     1     -11.906  12.022  62.308  1.00  0.00     0.000 HD 
HETATM   24  N   UNL     1     -11.703  12.744  63.000  1.00  0.00    -0.789 NA 
HETATM   25  H1  UNL     1     -12.384  13.502  62.978  1.00  0.00     0.000 HD 
BRANCH  22  26
HETATM   26  C   UNL     1     -11.291  13.266  65.403  1.00  0.00    -0.317 A  
HETATM   27  C   UNL     1     -12.333  13.885  66.112  1.00  0.00    -0.504 A  
HETATM   28  C   UNL     1     -12.064  14.884  67.051  1.00  0.00    -0.004 A  
HETATM   29  C   UNL     1     -10.750  15.271  67.301  1.00  0.00    -0.311 A  
HETATM   30  C   UNL     1      -9.702  14.653  66.625  1.00  0.00    -0.283 A  
HETATM   31  C   UNL     1      -9.970  13.652  65.687  1.00  0.00    -0.261 A  
ENDBRANCH  22  26
ENDBRANCH  20  22
ENDBRANCH   8  18
TORSDOF 6
ENDMDL
MODEL      112
REMARK 921   NORMALIZED FREE ENERGY PREDICTED BY IDOCK:   -4.69 KCAL/MOL
REMARK 922        TOTAL FREE ENERGY PREDICTED BY IDOCK:   -7.37 KCAL/MOL
REMARK 923 INTER-LIGAND FREE ENERGY PREDICTED BY IDOCK:   -6.50 KCAL/MOL
REMARK 924 INTRA-LIGAND FREE ENERGY PREDICTED BY IDOCK:   -0.86 KCAL/MOL
REMARK 927      BINDING AFFINITY PREDICTED BY RF-SCORE:    0.00 PKD
ROOT
HETATM    1  C   UNL     1      -9.035  11.813  68.327  1.00  0.00    -0.180 C  
HETATM    2  S   UNL     1     -10.698  11.656  67.638  1.00  0.00    -0.219 SA 
HETATM    3  C   UNL     1     -10.584   9.871  67.451  1.00  0.00    -0.277 C  
HETATM    4  C   UNL     1      -9.302   9.363  66.817  1.00  0.00    -0.202 C  
HETATM    5  OXT UNL     1      -6.998   8.513  65.310  1.00  0.00    -0.075 OA 
HETATM    6  CA  UNL     1      -8.134  10.071  66.772  1.00  0.00    -0.118 C  
HETATM    7  N   UNL     1      -8.069  11.300  67.374  1.00  0.00    -0.130 N  
HETATM    8  CA  UNL     1      -8.369  13.216  68.135  1.00  0.00    -0.161 C  
HETATM    9  C   UNL     1      -6.948   9.529  65.989  1.00  0.00    -0.091 C  
HETATM   10  O   UNL     1      -5.775  10.172  66.121  1.00  0.00    -0.056 OA 
HETATM   11  O   UNL     1      -6.203  12.562  66.836  1.00  0.00    -0.216 OA 
HETATM   12  C   UNL     1      -7.281  12.395  67.361  1.00  0.00    -0.148 C  
ENDROOT
BRANCH   4  13
HETATM   13  C   UNL     1      -9.510   7.999  66.157  1.00  0.00    -0.122 C  
BRANCH  13  14
HETATM   14  O   UNL     1      -9.442   6.948  67.146  1.00  0.00    -0.131 OA 
BRANCH  14  15
HETATM   15  C   UNL     1     -10.535   6.146  67.259  1.00  0.00    -0.255 C  
HETATM   16  C   UNL     1     -11.177   6.314  68.604  1.00  0.00    -0.328 C  
HETATM   17  O   UNL     1     -10.983   5.419  66.384  1.00  0.00    -0.243 OA 
ENDBRANCH  14  15
ENDBRANCH  13  14
ENDBRANCH   4  13
BRANCH   8  18
HETATM   18  N   UNL     1      -9.144  14.172  67.311  1.00  0.00    -0.203 N  
HETATM   19  H   UNL     1      -9.190  13.999  66.307  1.00  0.00     0.000 HD 
HETATM   20  C   UNL     1      -9.807  15.274  67.796  1.00  0.00    -0.220 C  
HETATM   21  O   UNL     1      -9.858  15.556  68.988  1.00  0.00    -0.207 OA 
BRANCH  20  22
HETATM   22  CA  UNL     1     -10.476  16.113  66.677  1.00  0.00    -0.300 C  
HETATM   23  H2  UNL     1     -10.827  14.428  65.471  1.00  0.00     0.000 HD 
HETATM   24  N   UNL     1     -10.419  15.359  65.391  1.00  0.00    -0.372 NA 
HETATM   25  H1  UNL     1     -10.859  15.911  64.655  1.00  0.00     0.000 HD 
BRANCH  22  26
HETATM   26  C   UNL     1      -9.841  17.486  66.556  1.00  0.00    -0.315 A  
HETATM   27  C   UNL     1      -8.446  17.589  66.437  1.00  0.00    -0.287 A  
HETATM   28  C   UNL     1      -7.828  18.838  66.333  1.00  0.00    -0.297 A  
HETATM   29  C   UNL     1      -8.596  19.999  66.334  1.00  0.00    -0.350 A  
HETATM   30  C   UNL     1      -9.982  19.916  66.427  1.00  0.00    -0.593 A  
HETATM   31  C   UNL     1     -10.602  18.668  66.529  1.00  0.00    -0.409 A  
ENDBRANCH  22  26
ENDBRANCH  20  22
ENDBRANCH   8  18
TORSDOF 6
ENDMDL
MODEL      113
REMARK 921   NORMALIZED FREE ENERGY PREDICTED BY IDOCK:   -4.65 KCAL/MOL
REMARK 922        TOTAL FREE ENERGY PREDICTED BY IDOCK:   -7.32 KCAL/MOL
REMARK 923 INTER-LIGAND FREE ENERGY PREDICTED BY IDOCK:   -6.51 KCAL/MOL
REMARK 924 INTRA-LIGAND FREE ENERGY PREDICTED BY IDOCK:   -0.81 KCAL/MOL
REMARK 927      BINDING AFFINITY PREDICTED BY RF-SCORE:    0.00 PKD
ROOT
HETATM    1  C   UNL     1      -8.232   9.073  66.822  1.00  0.00    -0.115 C  
HETATM    2  S   UNL     1      -9.871   8.858  66.092  1.00  0.00    -0.188 SA 
HETATM    3  C   UNL     1      -9.853  10.463  65.280  1.00  0.00    -0.297 C  
HETATM    4  C   UNL     1      -9.406  11.627  66.146  1.00  0.00    -0.237 C  
HETATM    5  OXT UNL     1      -8.870  13.815  67.942  1.00  0.00    -0.167 OA 
HETATM    6  CA  UNL     1      -8.663  11.495  67.285  1.00  0.00    -0.151 C  
HETATM    7  N   UNL     1      -8.233  10.252  67.668  1.00  0.00    -0.114 N  
HETATM    8  CA  UNL     1      -7.969   8.234  68.117  1.00  0.00    -0.123 C  
HETATM    9  C   UNL     1      -8.388  12.712  68.156  1.00  0.00    -0.175 C  
HETATM   10  O   UNL     1      -7.509  12.565  69.163  1.00  0.00     0.021 OA 
HETATM   11  O   UNL     1      -7.387  10.123  69.820  1.00  0.00    -0.123 OA 
HETATM   12  C   UNL     1      -7.744   9.643  68.768  1.00  0.00    -0.080 C  
ENDROOT
BRANCH   4  13
HETATM   13  C   UNL     1      -9.970  12.952  65.631  1.00  0.00    -0.235 C  
BRANCH  13  14
HETATM   14  O   UNL     1     -10.467  12.796  64.284  1.00  0.00    -0.361 OA 
BRANCH  14  15
HETATM   15  C   UNL     1     -11.716  13.275  64.035  1.00  0.00    -0.430 C  
HETATM   16  C   UNL     1     -11.941  14.565  64.764  1.00  0.00    -0.449 C  
HETATM   17  O   UNL     1     -12.539  12.771  63.285  1.00  0.00    -0.676 OA 
ENDBRANCH  14  15
ENDBRANCH  13  14
ENDBRANCH   4  13
BRANCH   8  18
HETATM   18  N   UNL     1      -9.139   7.483  68.626  1.00  0.00    -0.135 N  
HETATM   19  H   UNL     1      -9.812   7.991  69.200  1.00  0.00     0.000 HD 
HETATM   20  C   UNL     1      -9.387   6.153  68.386  1.00  0.00    -0.116 C  
HETATM   21  O   UNL     1      -8.672   5.455  67.675  1.00  0.00    -0.108 OA 
BRANCH  20  22
HETATM   22  CA  UNL     1     -10.661   5.639  69.106  1.00  0.00    -0.264 C  
HETATM   23  H2  UNL     1     -11.939   6.806  67.914  1.00  0.00     0.000 HD 
HETATM   24  N   UNL     1     -11.772   6.613  68.901  1.00  0.00    -0.444 NA 
HETATM   25  H1  UNL     1     -12.610   6.275  69.375  1.00  0.00     0.000 HD 
BRANCH  22  26
HETATM   26  C   UNL     1     -10.400   5.379  70.578  1.00  0.00    -0.344 A  
HETATM   27  C   UNL     1     -11.108   6.116  71.541  1.00  0.00    -0.342 A  
HETATM   28  C   UNL     1     -10.887   5.909  72.905  1.00  0.00    -0.293 A  
HETATM   29  C   UNL     1      -9.963   4.955  73.325  1.00  0.00    -0.181 A  
HETATM   30  C   UNL     1      -9.269   4.198  72.385  1.00  0.00    -0.151 A  
HETATM   31  C   UNL     1      -9.491   4.403  71.021  1.00  0.00    -0.232 A  
ENDBRANCH  22  26
ENDBRANCH  20  22
ENDBRANCH   8  18
TORSDOF 6
ENDMDL
MODEL      114
REMARK 921   NORMALIZED FREE ENERGY PREDICTED BY IDOCK:   -4.64 KCAL/MOL
REMARK 922        TOTAL FREE ENERGY PREDICTED BY IDOCK:   -7.31 KCAL/MOL
REMARK 923 INTER-LIGAND FREE ENERGY PREDICTED BY IDOCK:   -6.15 KCAL/MOL
REMARK 924 INTRA-LIGAND FREE ENERGY PREDICTED BY IDOCK:   -1.16 KCAL/MOL
REMARK 927      BINDING AFFINITY PREDICTED BY RF-SCORE:    0.00 PKD
ROOT
HETATM    1  C   UNL     1      -8.503   9.299  66.572  1.00  0.00    -0.126 C  
HETATM    2  S   UNL     1     -10.277   9.388  66.237  1.00  0.00    -0.148 SA 
HETATM    3  C   UNL     1     -10.209  11.095  65.675  1.00  0.00    -0.256 C  
HETATM    4  C   UNL     1      -9.418  12.041  66.561  1.00  0.00    -0.234 C  
HETATM    5  OXT UNL     1      -8.188  13.824  68.460  1.00  0.00    -0.150 OA 
HETATM    6  CA  UNL     1      -8.467  11.640  67.456  1.00  0.00    -0.150 C  
HETATM    7  N   UNL     1      -8.147  10.311  67.548  1.00  0.00    -0.110 N  
HETATM    8  CA  UNL     1      -8.083   8.231  67.635  1.00  0.00    -0.126 C  
HETATM    9  C   UNL     1      -7.834  12.656  68.395  1.00  0.00    -0.136 C  
HETATM   10  O   UNL     1      -6.784  12.247  69.130  1.00  0.00    -0.099 OA 
HETATM   11  O   UNL     1      -6.872   9.731  69.392  1.00  0.00    -0.051 OA 
HETATM   12  C   UNL     1      -7.519   9.476  68.402  1.00  0.00    -0.077 C  
ENDROOT
BRANCH   4  13
HETATM   13  C   UNL     1      -9.886  13.487  66.387  1.00  0.00    -0.295 C  
BRANCH  13  14
HETATM   14  O   UNL     1     -11.269  13.617  66.781  1.00  0.00    -0.302 OA 
BRANCH  14  15
HETATM   15  C   UNL     1     -11.503  14.004  68.064  1.00  0.00    -0.311 C  
HETATM   16  C   UNL     1     -11.346  15.489  68.205  1.00  0.00    -0.348 C  
HETATM   17  O   UNL     1     -11.847  13.273  68.981  1.00  0.00    -0.295 OA 
ENDBRANCH  14  15
ENDBRANCH  13  14
ENDBRANCH   4  13
BRANCH   8  18
HETATM   18  N   UNL     1      -9.206   7.534  68.303  1.00  0.00    -0.139 N  
HETATM   19  H   UNL     1     -10.151   7.857  68.095  1.00  0.00     0.000 HD 
HETATM   20  C   UNL     1      -9.073   6.485  69.181  1.00  0.00    -0.136 C  
HETATM   21  O   UNL     1      -7.991   5.985  69.470  1.00  0.00    -0.102 OA 
BRANCH  20  22
HETATM   22  CA  UNL     1     -10.431   6.009  69.760  1.00  0.00    -0.255 C  
HETATM   23  H2  UNL     1     -11.488   6.571  68.032  1.00  0.00     0.000 HD 
HETATM   24  N   UNL     1     -11.543   6.698  69.043  1.00  0.00    -0.603 NA 
HETATM   25  H1  UNL     1     -12.436   6.385  69.423  1.00  0.00     0.000 HD 
BRANCH  22  26
HETATM   26  C   UNL     1     -10.504   6.228  71.259  1.00  0.00    -0.264 A  
HETATM   27  C   UNL     1     -10.582   5.116  72.113  1.00  0.00    -0.273 A  
HETATM   28  C   UNL     1     -10.659   5.282  73.498  1.00  0.00    -0.313 A  
HETATM   29  C   UNL     1     -10.649   6.561  74.049  1.00  0.00    -0.202 A  
HETATM   30  C   UNL     1     -10.548   7.674  73.221  1.00  0.00    -0.411 A  
HETATM   31  C   UNL     1     -10.469   7.510  71.836  1.00  0.00    -0.235 A  
ENDBRANCH  22  26
ENDBRANCH  20  22
ENDBRANCH   8  18
TORSDOF 6
ENDMDL
MODEL      115
REMARK 921   NORMALIZED FREE ENERGY PREDICTED BY IDOCK:   -4.63 KCAL/MOL
REMARK 922        TOTAL FREE ENERGY PREDICTED BY IDOCK:   -7.28 KCAL/MOL
REMARK 923 INTER-LIGAND FREE ENERGY PREDICTED BY IDOCK:   -6.45 KCAL/MOL
REMARK 924 INTRA-LIGAND FREE ENERGY PREDICTED BY IDOCK:   -0.84 KCAL/MOL
REMARK 927      BINDING AFFINITY PREDICTED BY RF-SCORE:    0.00 PKD
ROOT
HETATM    1  C   UNL     1      -9.121   9.264  70.868  1.00  0.00    -0.222 C  
HETATM    2  S   UNL     1      -8.377   8.135  69.669  1.00  0.00    -0.126 SA 
HETATM    3  C   UNL     1      -8.252   9.388  68.384  1.00  0.00    -0.117 C  
HETATM    4  C   UNL     1      -9.498  10.227  68.169  1.00  0.00    -0.155 C  
HETATM    5  OXT UNL     1     -11.999  11.540  67.600  1.00  0.00    -0.630 OA 
HETATM    6  CA  UNL     1     -10.491  10.380  69.095  1.00  0.00    -0.227 C  
HETATM    7  N   UNL     1     -10.358   9.795  70.327  1.00  0.00    -0.276 N  
HETATM    8  CA  UNL     1      -9.986   8.577  71.976  1.00  0.00    -0.313 C  
HETATM    9  C   UNL     1     -11.763  11.128  68.726  1.00  0.00    -0.326 C  
HETATM   10  O   UNL     1     -12.628  11.403  69.719  1.00  0.00    -0.142 OA 
HETATM   11  O   UNL     1     -12.284   9.757  71.612  1.00  0.00    -0.371 OA 
HETATM   12  C   UNL     1     -11.131   9.469  71.383  1.00  0.00    -0.368 C  
ENDROOT
BRANCH   4  13
HETATM   13  C   UNL     1      -9.543  10.803  66.752  1.00  0.00    -0.172 C  
BRANCH  13  14
HETATM   14  O   UNL     1      -9.516   9.737  65.777  1.00  0.00    -0.199 OA 
BRANCH  14  15
HETATM   15  C   UNL     1      -9.626  10.103  64.472  1.00  0.00    -0.311 C  
HETATM   16  C   UNL     1      -8.621   9.371  63.632  1.00  0.00    -0.220 C  
HETATM   17  O   UNL     1     -10.452  10.878  64.012  1.00  0.00    -0.364 OA 
ENDBRANCH  14  15
ENDBRANCH  13  14
ENDBRANCH   4  13
BRANCH   8  18
HETATM   18  N   UNL     1     -10.173   7.118  71.811  1.00  0.00    -0.195 N  
HETATM   19  H   UNL     1     -10.124   6.740  70.865  1.00  0.00     0.000 HD 
HETATM   20  C   UNL     1     -10.407   6.232  72.836  1.00  0.00    -0.207 C  
HETATM   21  O   UNL     1     -10.441   6.565  74.016  1.00  0.00    -0.331 OA 
BRANCH  20  22
HETATM   22  CA  UNL     1     -10.620   4.779  72.338  1.00  0.00    -0.180 C  
HETATM   23  H2  UNL     1     -11.135   4.082  74.253  1.00  0.00     0.000 HD 
HETATM   24  N   UNL     1     -10.503   3.838  73.490  1.00  0.00    -0.162 NA 
HETATM   25  H1  UNL     1     -10.643   2.883  73.163  1.00  0.00     0.000 HD 
BRANCH  22  26
HETATM   26  C   UNL     1      -9.656   4.427  71.221  1.00  0.00    -0.242 A  
HETATM   27  C   UNL     1     -10.090   4.510  69.888  1.00  0.00    -0.195 A  
HETATM   28  C   UNL     1      -9.230   4.186  68.835  1.00  0.00    -0.208 A  
HETATM   29  C   UNL     1      -7.924   3.783  69.100  1.00  0.00    -0.059 A  
HETATM   30  C   UNL     1      -7.469   3.717  70.413  1.00  0.00    -0.041 A  
HETATM   31  C   UNL     1      -8.326   4.044  71.467  1.00  0.00    -0.089 A  
ENDBRANCH  22  26
ENDBRANCH  20  22
ENDBRANCH   8  18
TORSDOF 6
ENDMDL
MODEL      116
REMARK 921   NORMALIZED FREE ENERGY PREDICTED BY IDOCK:   -4.60 KCAL/MOL
REMARK 922        TOTAL FREE ENERGY PREDICTED BY IDOCK:   -7.25 KCAL/MOL
REMARK 923 INTER-LIGAND FREE ENERGY PREDICTED BY IDOCK:   -6.20 KCAL/MOL
REMARK 924 INTRA-LIGAND FREE ENERGY PREDICTED BY IDOCK:   -1.05 KCAL/MOL
REMARK 927      BINDING AFFINITY PREDICTED BY RF-SCORE:    0.00 PKD
ROOT
HETATM    1  C   UNL     1      -7.634  10.702  67.258  1.00  0.00    -0.100 C  
HETATM    2  S   UNL     1      -7.597  11.686  68.773  1.00  0.00    -0.090 SA 
HETATM    3  C   UNL     1      -7.260  10.270  69.830  1.00  0.00    -0.147 C  
HETATM    4  C   UNL     1      -8.125   9.049  69.578  1.00  0.00    -0.105 C  
HETATM    5  OXT UNL     1     -10.023   6.904  69.261  1.00  0.00    -0.155 OA 
HETATM    6  CA  UNL     1      -8.799   8.812  68.413  1.00  0.00    -0.138 C  
HETATM    7  N   UNL     1      -8.665   9.687  67.367  1.00  0.00    -0.128 N  
HETATM    8  CA  UNL     1      -8.468  11.319  66.087  1.00  0.00    -0.135 C  
HETATM    9  C   UNL     1      -9.750   7.629  68.315  1.00  0.00    -0.157 C  
HETATM   10  O   UNL     1     -10.250   7.337  67.100  1.00  0.00    -0.213 OA 
HETATM   11  O   UNL     1     -10.192   9.410  65.649  1.00  0.00    -0.178 OA 
HETATM   12  C   UNL     1      -9.292   9.991  66.212  1.00  0.00    -0.168 C  
ENDROOT
BRANCH   4  13
HETATM   13  C   UNL     1      -8.218   8.167  70.824  1.00  0.00    -0.111 C  
BRANCH  13  14
HETATM   14  O   UNL     1      -8.852   8.888  71.903  1.00  0.00    -0.342 OA 
BRANCH  14  15
HETATM   15  C   UNL     1     -10.097   8.475  72.263  1.00  0.00    -0.316 C  
HETATM   16  C   UNL     1     -11.146   9.272  71.546  1.00  0.00    -0.443 C  
HETATM   17  O   UNL     1     -10.353   7.552  73.022  1.00  0.00    -0.257 OA 
ENDBRANCH  14  15
ENDBRANCH  13  14
ENDBRANCH   4  13
BRANCH   8  18
HETATM   18  N   UNL     1      -9.208  12.555  66.427  1.00  0.00    -0.347 N  
HETATM   19  H   UNL     1      -9.084  12.936  67.366  1.00  0.00     0.000 HD 
HETATM   20  C   UNL     1     -10.050  13.230  65.576  1.00  0.00    -0.263 C  
HETATM   21  O   UNL     1     -10.240  12.891  64.412  1.00  0.00    -0.362 OA 
BRANCH  20  22
HETATM   22  CA  UNL     1     -10.725  14.456  66.244  1.00  0.00    -0.307 C  
HETATM   23  H2  UNL     1     -12.292  14.495  64.843  1.00  0.00     0.000 HD 
HETATM   24  N   UNL     1     -11.611  15.134  65.253  1.00  0.00    -0.262 NA 
HETATM   25  H1  UNL     1     -12.055  15.940  65.692  1.00  0.00     0.000 HD 
BRANCH  22  26
HETATM   26  C   UNL     1      -9.697  15.408  66.826  1.00  0.00    -0.254 A  
HETATM   27  C   UNL     1      -9.725  15.691  68.202  1.00  0.00    -0.204 A  
HETATM   28  C   UNL     1      -8.799  16.568  68.770  1.00  0.00    -0.255 A  
HETATM   29  C   UNL     1      -7.826  17.168  67.973  1.00  0.00    -0.195 A  
HETATM   30  C   UNL     1      -7.768  16.881  66.613  1.00  0.00    -0.298 A  
HETATM   31  C   UNL     1      -8.692  16.001  66.044  1.00  0.00    -0.267 A  
ENDBRANCH  22  26
ENDBRANCH  20  22
ENDBRANCH   8  18
TORSDOF 6
ENDMDL
MODEL      117
REMARK 921   NORMALIZED FREE ENERGY PREDICTED BY IDOCK:   -4.58 KCAL/MOL
REMARK 922        TOTAL FREE ENERGY PREDICTED BY IDOCK:   -7.22 KCAL/MOL
REMARK 923 INTER-LIGAND FREE ENERGY PREDICTED BY IDOCK:   -6.21 KCAL/MOL
REMARK 924 INTRA-LIGAND FREE ENERGY PREDICTED BY IDOCK:   -1.01 KCAL/MOL
REMARK 927      BINDING AFFINITY PREDICTED BY RF-SCORE:    0.00 PKD
ROOT
HETATM    1  C   UNL     1      -7.928  10.328  67.761  1.00  0.00    -0.102 C  
HETATM    2  S   UNL     1      -8.695  10.220  69.393  1.00  0.00    -0.124 SA 
HETATM    3  C   UNL     1      -7.893   8.662  69.801  1.00  0.00    -0.093 C  
HETATM    4  C   UNL     1      -7.943   7.601  68.717  1.00  0.00    -0.126 C  
HETATM    5  OXT UNL     1      -8.371   5.541  66.749  1.00  0.00    -0.108 OA 
HETATM    6  CA  UNL     1      -8.160   7.863  67.394  1.00  0.00    -0.123 C  
HETATM    7  N   UNL     1      -8.292   9.162  66.979  1.00  0.00    -0.119 N  
HETATM    8  CA  UNL     1      -8.715  11.185  66.715  1.00  0.00    -0.157 C  
HETATM    9  C   UNL     1      -8.331   6.715  66.411  1.00  0.00    -0.121 C  
HETATM   10  O   UNL     1      -8.365   7.022  65.102  1.00  0.00    -0.134 OA 
HETATM   11  O   UNL     1      -9.096   9.429  64.824  1.00  0.00    -0.227 OA 
HETATM   12  C   UNL     1      -8.749   9.842  65.907  1.00  0.00    -0.139 C  
ENDROOT
BRANCH   4  13
HETATM   13  C   UNL     1      -7.810   6.196  69.309  1.00  0.00    -0.104 C  
BRANCH  13  14
HETATM   14  O   UNL     1      -8.776   6.004  70.365  1.00  0.00    -0.140 OA 
BRANCH  14  15
HETATM   15  C   UNL     1      -9.915   5.336  70.035  1.00  0.00    -0.245 C  
HETATM   16  C   UNL     1     -11.113   6.001  70.645  1.00  0.00    -0.371 C  
HETATM   17  O   UNL     1      -9.986   4.360  69.302  1.00  0.00    -0.183 OA 
ENDBRANCH  14  15
ENDBRANCH  13  14
ENDBRANCH   4  13
BRANCH   8  18
HETATM   18  N   UNL     1     -10.033  11.680  67.173  1.00  0.00    -0.198 N  
HETATM   19  H   UNL     1     -10.834  11.058  67.063  1.00  0.00     0.000 HD 
HETATM   20  C   UNL     1     -10.261  12.913  67.736  1.00  0.00    -0.224 C  
HETATM   21  O   UNL     1      -9.368  13.724  67.959  1.00  0.00    -0.186 OA 
BRANCH  20  22
HETATM   22  CA  UNL     1     -11.758  13.161  68.057  1.00  0.00    -0.355 C  
HETATM   23  H2  UNL     1     -11.763  15.036  67.108  1.00  0.00     0.000 HD 
HETATM   24  N   UNL     1     -12.041  14.624  67.999  1.00  0.00    -0.582 NA 
HETATM   25  H1  UNL     1     -13.025  14.788  68.209  1.00  0.00     0.000 HD 
BRANCH  22  26
HETATM   26  C   UNL     1     -12.146  12.563  69.396  1.00  0.00    -0.237 A  
HETATM   27  C   UNL     1     -12.383  13.416  70.486  1.00  0.00    -0.401 A  
HETATM   28  C   UNL     1     -12.734  12.898  71.735  1.00  0.00    -0.250 A  
HETATM   29  C   UNL     1     -12.862  11.523  71.910  1.00  0.00    -0.372 A  
HETATM   30  C   UNL     1     -12.654  10.663  70.836  1.00  0.00    -0.503 A  
HETATM   31  C   UNL     1     -12.306  11.180  69.585  1.00  0.00    -0.287 A  
ENDBRANCH  22  26
ENDBRANCH  20  22
ENDBRANCH   8  18
TORSDOF 6
ENDMDL
MODEL      118
REMARK 921   NORMALIZED FREE ENERGY PREDICTED BY IDOCK:   -4.58 KCAL/MOL
REMARK 922        TOTAL FREE ENERGY PREDICTED BY IDOCK:   -7.22 KCAL/MOL
REMARK 923 INTER-LIGAND FREE ENERGY PREDICTED BY IDOCK:   -6.41 KCAL/MOL
REMARK 924 INTRA-LIGAND FREE ENERGY PREDICTED BY IDOCK:   -0.81 KCAL/MOL
REMARK 927      BINDING AFFINITY PREDICTED BY RF-SCORE:    0.00 PKD
ROOT
HETATM    1  C   UNL     1     -11.765   6.678  71.162  1.00  0.00    -0.346 C  
HETATM    2  S   UNL     1     -11.111   7.032  69.515  1.00  0.00    -0.145 SA 
HETATM    3  C   UNL     1     -10.365   5.405  69.329  1.00  0.00    -0.251 C  
HETATM    4  C   UNL     1      -9.565   4.916  70.523  1.00  0.00    -0.253 C  
HETATM    5  OXT UNL     1      -7.798   4.212  72.687  1.00  0.00    -0.077 OA 
HETATM    6  CA  UNL     1      -9.712   5.394  71.795  1.00  0.00    -0.162 C  
HETATM    7  N   UNL     1     -10.671   6.338  72.052  1.00  0.00    -0.220 N  
HETATM    8  CA  UNL     1     -12.008   7.936  72.062  1.00  0.00    -0.319 C  
HETATM    9  C   UNL     1      -8.762   4.936  72.891  1.00  0.00    -0.117 C  
HETATM   10  O   UNL     1      -9.057   5.296  74.153  1.00  0.00    -0.118 OA 
HETATM   11  O   UNL     1     -10.505   7.371  74.118  1.00  0.00    -0.201 OA 
HETATM   12  C   UNL     1     -10.982   7.231  73.014  1.00  0.00    -0.344 C  
ENDROOT
BRANCH   4  13
HETATM   13  C   UNL     1      -8.513   3.888  70.103  1.00  0.00    -0.060 C  
BRANCH  13  14
HETATM   14  O   UNL     1      -7.563   4.485  69.193  1.00  0.00    -0.055 OA 
BRANCH  14  15
HETATM   15  C   UNL     1      -7.477   3.933  67.953  1.00  0.00    -0.067 C  
HETATM   16  C   UNL     1      -7.384   5.001  66.904  1.00  0.00    -0.086 C  
HETATM   17  O   UNL     1      -7.428   2.737  67.704  1.00  0.00    -0.056 OA 
ENDBRANCH  14  15
ENDBRANCH  13  14
ENDBRANCH   4  13
BRANCH   8  18
HETATM   18  N   UNL     1     -11.553   9.220  71.482  1.00  0.00    -0.356 N  
HETATM   19  H   UNL     1     -10.558   9.436  71.538  1.00  0.00     0.000 HD 
HETATM   20  C   UNL     1     -12.369  10.143  70.873  1.00  0.00    -0.363 C  
HETATM   21  O   UNL     1     -13.572   9.971  70.709  1.00  0.00    -0.252 OA 
BRANCH  20  22
HETATM   22  CA  UNL     1     -11.605  11.415  70.421  1.00  0.00    -0.172 C  
HETATM   23  H2  UNL     1     -12.348  12.562  72.018  1.00  0.00     0.000 HD 
HETATM   24  N   UNL     1     -12.263  12.621  71.004  1.00  0.00    -0.398 NA 
HETATM   25  H1  UNL     1     -11.761  13.457  70.707  1.00  0.00     0.000 HD 
BRANCH  22  26
HETATM   26  C   UNL     1     -11.510  11.498  68.909  1.00  0.00    -0.352 A  
HETATM   27  C   UNL     1     -11.850  12.698  68.265  1.00  0.00    -0.354 A  
HETATM   28  C   UNL     1     -11.782  12.807  66.874  1.00  0.00    -0.447 A  
HETATM   29  C   UNL     1     -11.363  11.721  66.109  1.00  0.00    -0.342 A  
HETATM   30  C   UNL     1     -10.999  10.531  66.732  1.00  0.00    -0.150 A  
HETATM   31  C   UNL     1     -11.064  10.422  68.123  1.00  0.00    -0.344 A  
ENDBRANCH  22  26
ENDBRANCH  20  22
ENDBRANCH   8  18
TORSDOF 6
ENDMDL
MODEL      119
REMARK 921   NORMALIZED FREE ENERGY PREDICTED BY IDOCK:   -4.56 KCAL/MOL
REMARK 922        TOTAL FREE ENERGY PREDICTED BY IDOCK:   -7.20 KCAL/MOL
REMARK 923 INTER-LIGAND FREE ENERGY PREDICTED BY IDOCK:   -6.52 KCAL/MOL
REMARK 924 INTRA-LIGAND FREE ENERGY PREDICTED BY IDOCK:   -0.67 KCAL/MOL
REMARK 927      BINDING AFFINITY PREDICTED BY RF-SCORE:    0.00 PKD
ROOT
HETATM    1  C   UNL     1     -11.688   6.743  69.987  1.00  0.00    -0.272 C  
HETATM    2  S   UNL     1     -10.456   6.277  68.749  1.00  0.00    -0.264 SA 
HETATM    3  C   UNL     1     -10.039   4.731  69.568  1.00  0.00    -0.190 C  
HETATM    4  C   UNL     1      -9.810   4.828  71.065  1.00  0.00    -0.267 C  
HETATM    5  OXT UNL     1      -9.068   5.157  73.829  1.00  0.00    -0.123 OA 
HETATM    6  CA  UNL     1     -10.280   5.843  71.850  1.00  0.00    -0.203 C  
HETATM    7  N   UNL     1     -11.055   6.824  71.290  1.00  0.00    -0.252 N  
HETATM    8  CA  UNL     1     -11.960   8.279  70.105  1.00  0.00     0.442 C  
HETATM    9  C   UNL     1      -9.874   5.918  73.315  1.00  0.00    -0.170 C  
HETATM   10  O   UNL     1     -10.500   6.828  74.082  1.00  0.00    -0.365 OA 
HETATM   11  O   UNL     1     -11.394   8.690  72.619  1.00  0.00    -0.286 OA 
HETATM   12  C   UNL     1     -11.485   8.068  71.584  1.00  0.00    -0.266 C  
ENDROOT
BRANCH   4  13
HETATM   13  C   UNL     1      -8.912   3.695  71.564  1.00  0.00    -0.107 C  
BRANCH  13  14
HETATM   14  O   UNL     1      -7.552   3.902  71.124  1.00  0.00    -0.046 OA 
BRANCH  14  15
HETATM   15  C   UNL     1      -6.587   3.194  71.771  1.00  0.00    -0.015 C  
HETATM   16  C   UNL     1      -6.723   1.729  71.482  1.00  0.00    -0.023 C  
HETATM   17  O   UNL     1      -5.692   3.666  72.457  1.00  0.00    -0.007 OA 
ENDBRANCH  14  15
ENDBRANCH  13  14
ENDBRANCH   4  13
BRANCH   8  18
HETATM   18  N   UNL     1     -11.083   9.138  69.277  1.00  0.00    -0.440 N  
HETATM   19  H   UNL     1     -10.172   8.763  69.010  1.00  0.00     0.000 HD 
HETATM   20  C   UNL     1     -11.401  10.401  68.840  1.00  0.00    -0.219 C  
HETATM   21  O   UNL     1     -12.483  10.935  69.061  1.00  0.00    -0.425 OA 
BRANCH  20  22
HETATM   22  CA  UNL     1     -10.251  11.069  68.042  1.00  0.00    -0.179 C  
HETATM   23  H2  UNL     1      -9.458  11.998  69.753  1.00  0.00     0.000 HD 
HETATM   24  N   UNL     1      -9.739  12.245  68.804  1.00  0.00    -0.411 NA 
HETATM   25  H1  UNL     1      -8.982  12.685  68.280  1.00  0.00     0.000 HD 
BRANCH  22  26
HETATM   26  C   UNL     1     -10.694  11.452  66.642  1.00  0.00    -0.316 A  
HETATM   27  C   UNL     1     -10.258  10.684  65.550  1.00  0.00    -0.329 A  
HETATM   28  C   UNL     1     -10.640  11.013  64.248  1.00  0.00    -0.402 A  
HETATM   29  C   UNL     1     -11.471  12.108  64.019  1.00  0.00    -0.488 A  
HETATM   30  C   UNL     1     -11.931  12.866  65.091  1.00  0.00    -0.452 A  
HETATM   31  C   UNL     1     -11.552  12.537  66.394  1.00  0.00    -0.449 A  
ENDBRANCH  22  26
ENDBRANCH  20  22
ENDBRANCH   8  18
TORSDOF 6
ENDMDL
MODEL      120
REMARK 921   NORMALIZED FREE ENERGY PREDICTED BY IDOCK:   -4.56 KCAL/MOL
REMARK 922        TOTAL FREE ENERGY PREDICTED BY IDOCK:   -7.19 KCAL/MOL
REMARK 923 INTER-LIGAND FREE ENERGY PREDICTED BY IDOCK:   -6.30 KCAL/MOL
REMARK 924 INTRA-LIGAND FREE ENERGY PREDICTED BY IDOCK:   -0.89 KCAL/MOL
REMARK 927      BINDING AFFINITY PREDICTED BY RF-SCORE:    0.00 PKD
ROOT
HETATM    1  C   UNL     1     -10.543   8.078  68.090  1.00  0.00    -0.116 C  
HETATM    2  S   UNL     1      -9.183   7.715  66.957  1.00  0.00    -0.145 SA 
HETATM    3  C   UNL     1      -8.472   6.451  68.022  1.00  0.00    -0.118 C  
HETATM    4  C   UNL     1      -8.340   6.832  69.486  1.00  0.00    -0.132 C  
HETATM    5  OXT UNL     1      -7.819   7.751  72.166  1.00  0.00    -0.094 OA 
HETATM    6  CA  UNL     1      -9.059   7.824  70.089  1.00  0.00    -0.153 C  
HETATM    7  N   UNL     1     -10.005   8.504  69.368  1.00  0.00    -0.189 N  
HETATM    8  CA  UNL     1     -11.155   9.512  67.953  1.00  0.00     0.011 C  
HETATM    9  C   UNL     1      -8.749   8.219  71.526  1.00  0.00    -0.163 C  
HETATM   10  O   UNL     1      -9.596   9.073  72.128  1.00  0.00    -0.312 OA 
HETATM   11  O   UNL     1     -10.811  10.430  70.371  1.00  0.00    -0.289 OA 
HETATM   12  C   UNL     1     -10.714   9.649  69.451  1.00  0.00    -0.228 C  
ENDROOT
BRANCH   4  13
HETATM   13  C   UNL     1      -7.237   6.024  70.172  1.00  0.00    -0.076 C  
BRANCH  13  14
HETATM   14  O   UNL     1      -7.673   4.665  70.391  1.00  0.00    -0.053 OA 
BRANCH  14  15
HETATM   15  C   UNL     1      -8.675   4.484  71.292  1.00  0.00    -0.112 C  
HETATM   16  C   UNL     1      -8.125   4.395  72.684  1.00  0.00    -0.098 C  
HETATM   17  O   UNL     1      -9.870   4.447  71.036  1.00  0.00    -0.177 OA 
ENDBRANCH  14  15
ENDBRANCH  13  14
ENDBRANCH   4  13
BRANCH   8  18
HETATM   18  N   UNL     1     -10.452  10.405  67.004  1.00  0.00    -0.243 N  
HETATM   19  H   UNL     1      -9.529  10.116  66.679  1.00  0.00     0.000 HD 
HETATM   20  C   UNL     1     -10.948  11.596  66.527  1.00  0.00    -0.299 C  
HETATM   21  O   UNL     1     -12.062  12.020  66.813  1.00  0.00    -0.613 OA 
BRANCH  20  22
HETATM   22  CA  UNL     1      -9.951  12.332  65.596  1.00  0.00    -0.251 C  
HETATM   23  H2  UNL     1      -8.444  10.897  65.892  1.00  0.00     0.000 HD 
HETATM   24  N   UNL     1      -8.559  11.910  65.927  1.00  0.00    -0.388 NA 
HETATM   25  H1  UNL     1      -7.903  12.394  65.315  1.00  0.00     0.000 HD 
BRANCH  22  26
HETATM   26  C   UNL     1     -10.120  13.838  65.680  1.00  0.00    -0.315 A  
HETATM   27  C   UNL     1      -9.470  14.546  66.704  1.00  0.00    -0.301 A  
HETATM   28  C   UNL     1      -9.611  15.931  66.816  1.00  0.00    -0.252 A  
HETATM   29  C   UNL     1     -10.395  16.629  65.900  1.00  0.00    -0.355 A  
HETATM   30  C   UNL     1     -11.027  15.948  64.865  1.00  0.00    -0.427 A  
HETATM   31  C   UNL     1     -10.885  14.563  64.750  1.00  0.00    -0.410 A  
ENDBRANCH  22  26
ENDBRANCH  20  22
ENDBRANCH   8  18
TORSDOF 6
ENDMDL
MODEL      121
REMARK 921   NORMALIZED FREE ENERGY PREDICTED BY IDOCK:   -4.56 KCAL/MOL
REMARK 922        TOTAL FREE ENERGY PREDICTED BY IDOCK:   -7.19 KCAL/MOL
REMARK 923 INTER-LIGAND FREE ENERGY PREDICTED BY IDOCK:   -6.49 KCAL/MOL
REMARK 924 INTRA-LIGAND FREE ENERGY PREDICTED BY IDOCK:   -0.70 KCAL/MOL
REMARK 927      BINDING AFFINITY PREDICTED BY RF-SCORE:    0.00 PKD
ROOT
HETATM    1  C   UNL     1      -8.896  10.969  68.574  1.00  0.00    -0.159 C  
HETATM    2  S   UNL     1      -8.857  11.278  66.794  1.00  0.00    -0.175 SA 
HETATM    3  C   UNL     1      -9.080  13.054  66.975  1.00  0.00    -0.230 C  
HETATM    4  C   UNL     1     -10.179  13.478  67.932  1.00  0.00    -0.247 C  
HETATM    5  OXT UNL     1     -12.490  14.189  69.500  1.00  0.00    -0.298 OA 
HETATM    6  CA  UNL     1     -10.688  12.681  68.918  1.00  0.00    -0.164 C  
HETATM    7  N   UNL     1     -10.159  11.433  69.116  1.00  0.00    -0.092 N  
HETATM    8  CA  UNL     1      -9.334   9.524  68.985  1.00  0.00    -0.155 C  
HETATM    9  C   UNL     1     -11.885  13.152  69.731  1.00  0.00    -0.316 C  
HETATM   10  O   UNL     1     -12.234  12.414  70.800  1.00  0.00    -0.369 OA 
HETATM   11  O   UNL     1     -11.398  10.044  70.494  1.00  0.00    -0.284 OA 
HETATM   12  C   UNL     1     -10.484  10.280  69.736  1.00  0.00    -0.259 C  
ENDROOT
BRANCH   4  13
HETATM   13  C   UNL     1     -10.704  14.874  67.593  1.00  0.00    -0.270 C  
BRANCH  13  14
HETATM   14  O   UNL     1     -11.526  14.826  66.406  1.00  0.00    -0.350 OA 
BRANCH  14  15
HETATM   15  C   UNL     1     -11.038  15.451  65.301  1.00  0.00    -0.360 C  
HETATM   16  C   UNL     1     -11.934  15.215  64.122  1.00  0.00    -0.187 C  
HETATM   17  O   UNL     1     -10.039  16.155  65.259  1.00  0.00    -0.505 OA 
ENDBRANCH  14  15
ENDBRANCH  13  14
ENDBRANCH   4  13
BRANCH   8  18
HETATM   18  N   UNL     1      -9.773   8.659  67.866  1.00  0.00    -0.156 N  
HETATM   19  H   UNL     1     -10.403   9.065  67.175  1.00  0.00     0.000 HD 
HETATM   20  C   UNL     1      -9.396   7.349  67.688  1.00  0.00    -0.133 C  
HETATM   21  O   UNL     1      -8.608   6.771  68.429  1.00  0.00    -0.124 OA 
BRANCH  20  22
HETATM   22  CA  UNL     1     -10.070   6.692  66.455  1.00  0.00    -0.072 C  
HETATM   23  H2  UNL     1     -11.999   7.249  67.076  1.00  0.00     0.000 HD 
HETATM   24  N   UNL     1     -11.503   6.415  66.764  1.00  0.00    -0.746 NA 
HETATM   25  H1  UNL     1     -11.946   5.982  65.954  1.00  0.00     0.000 HD 
BRANCH  22  26
HETATM   26  C   UNL     1      -9.333   5.439  66.021  1.00  0.00    -0.167 A  
HETATM   27  C   UNL     1      -8.273   5.548  65.106  1.00  0.00    -0.141 A  
HETATM   28  C   UNL     1      -7.579   4.414  64.678  1.00  0.00    -0.073 A  
HETATM   29  C   UNL     1      -7.926   3.157  65.165  1.00  0.00    -0.082 A  
HETATM   30  C   UNL     1      -8.958   3.032  66.090  1.00  0.00    -0.150 A  
HETATM   31  C   UNL     1      -9.652   4.165  66.521  1.00  0.00    -0.220 A  
ENDBRANCH  22  26
ENDBRANCH  20  22
ENDBRANCH   8  18
TORSDOF 6
ENDMDL
MODEL      122
REMARK 921   NORMALIZED FREE ENERGY PREDICTED BY IDOCK:   -4.55 KCAL/MOL
REMARK 922        TOTAL FREE ENERGY PREDICTED BY IDOCK:   -7.18 KCAL/MOL
REMARK 923 INTER-LIGAND FREE ENERGY PREDICTED BY IDOCK:   -6.34 KCAL/MOL
REMARK 924 INTRA-LIGAND FREE ENERGY PREDICTED BY IDOCK:   -0.84 KCAL/MOL
REMARK 927      BINDING AFFINITY PREDICTED BY RF-SCORE:    0.00 PKD
ROOT
HETATM    1  C   UNL     1      -8.280   9.336  66.684  1.00  0.00    -0.115 C  
HETATM    2  S   UNL     1      -9.964   8.694  66.554  1.00  0.00    -0.255 SA 
HETATM    3  C   UNL     1     -10.622  10.218  65.862  1.00  0.00    -0.013 C  
HETATM    4  C   UNL     1     -10.203  11.491  66.574  1.00  0.00    -0.253 C  
HETATM    5  OXT UNL     1      -9.634  13.818  68.175  1.00  0.00    -0.205 OA 
HETATM    6  CA  UNL     1      -9.104  11.595  67.379  1.00  0.00    -0.169 C  
HETATM    7  N   UNL     1      -8.277  10.513  67.532  1.00  0.00    -0.114 N  
HETATM    8  CA  UNL     1      -7.388   8.644  67.768  1.00  0.00    -0.092 C  
HETATM    9  C   UNL     1      -8.853  12.878  68.157  1.00  0.00    -0.194 C  
HETATM   10  O   UNL     1      -7.673  12.994  68.792  1.00  0.00    -0.094 OA 
HETATM   11  O   UNL     1      -6.736  10.688  69.251  1.00  0.00    -0.057 OA 
HETATM   12  C   UNL     1      -7.305  10.090  68.366  1.00  0.00    -0.077 C  
ENDROOT
BRANCH   4  13
HETATM   13  C   UNL     1     -11.217  12.614  66.348  1.00  0.00    -0.305 C  
BRANCH  13  14
HETATM   14  O   UNL     1     -10.965  13.271  65.087  1.00  0.00    -0.285 OA 
BRANCH  14  15
HETATM   15  C   UNL     1     -12.020  13.379  64.234  1.00  0.00    -0.430 C  
HETATM   16  C   UNL     1     -12.496  12.022  63.810  1.00  0.00    -0.594 C  
HETATM   17  O   UNL     1     -12.556  14.421  63.887  1.00  0.00    -0.814 OA 
ENDBRANCH  14  15
ENDBRANCH  13  14
ENDBRANCH   4  13
BRANCH   8  18
HETATM   18  N   UNL     1      -8.088   7.650  68.614  1.00  0.00    -0.126 N  
HETATM   19  H   UNL     1      -8.997   7.315  68.294  1.00  0.00     0.000 HD 
HETATM   20  C   UNL     1      -7.605   7.143  69.797  1.00  0.00    -0.103 C  
HETATM   21  O   UNL     1      -6.506   7.438  70.255  1.00  0.00    -0.034 OA 
BRANCH  20  22
HETATM   22  CA  UNL     1      -8.596   6.166  70.481  1.00  0.00    -0.138 C  
HETATM   23  H2  UNL     1      -8.236   4.645  69.075  1.00  0.00     0.000 HD 
HETATM   24  N   UNL     1      -9.028   5.130  69.498  1.00  0.00    -0.098 NA 
HETATM   25  H1  UNL     1      -9.679   4.487  69.947  1.00  0.00     0.000 HD 
BRANCH  22  26
HETATM   26  C   UNL     1      -9.778   6.903  71.082  1.00  0.00    -0.177 A  
HETATM   27  C   UNL     1     -11.032   6.817  70.454  1.00  0.00    -0.330 A  
HETATM   28  C   UNL     1     -12.139   7.490  70.976  1.00  0.00    -0.305 A  
HETATM   29  C   UNL     1     -12.012   8.249  72.137  1.00  0.00    -0.429 A  
HETATM   30  C   UNL     1     -10.784   8.326  72.786  1.00  0.00    -0.313 A  
HETATM   31  C   UNL     1      -9.676   7.651  72.267  1.00  0.00    -0.226 A  
ENDBRANCH  22  26
ENDBRANCH  20  22
ENDBRANCH   8  18
TORSDOF 6
ENDMDL
MODEL      123
REMARK 921   NORMALIZED FREE ENERGY PREDICTED BY IDOCK:   -4.54 KCAL/MOL
REMARK 922        TOTAL FREE ENERGY PREDICTED BY IDOCK:   -7.17 KCAL/MOL
REMARK 923 INTER-LIGAND FREE ENERGY PREDICTED BY IDOCK:   -6.48 KCAL/MOL
REMARK 924 INTRA-LIGAND FREE ENERGY PREDICTED BY IDOCK:   -0.68 KCAL/MOL
REMARK 927      BINDING AFFINITY PREDICTED BY RF-SCORE:    0.00 PKD
ROOT
HETATM    1  C   UNL     1      -8.707  11.628  67.453  1.00  0.00    -0.155 C  
HETATM    2  S   UNL     1      -7.336  11.804  68.617  1.00  0.00    -0.115 SA 
HETATM    3  C   UNL     1      -7.696  10.257  69.462  1.00  0.00    -0.165 C  
HETATM    4  C   UNL     1      -9.153  10.035  69.823  1.00  0.00    -0.219 C  
HETATM    5  OXT UNL     1     -11.870   9.846  70.763  1.00  0.00    -0.288 OA 
HETATM    6  CA  UNL     1     -10.200  10.675  69.221  1.00  0.00    -0.213 C  
HETATM    7  N   UNL     1      -9.955  11.540  68.187  1.00  0.00    -0.186 N  
HETATM    8  CA  UNL     1      -9.241  12.970  66.850  1.00  0.00    -0.236 C  
HETATM    9  C   UNL     1     -11.612  10.485  69.754  1.00  0.00    -0.294 C  
HETATM   10  O   UNL     1     -12.621  10.992  69.023  1.00  0.00    -0.378 OA 
HETATM   11  O   UNL     1     -11.745  12.875  67.575  1.00  0.00    -0.337 OA 
HETATM   12  C   UNL     1     -10.588  12.525  67.518  1.00  0.00    -0.220 C  
ENDROOT
BRANCH   4  13
HETATM   13  C   UNL     1      -9.293   9.074  71.005  1.00  0.00    -0.271 C  
BRANCH  13  14
HETATM   14  O   UNL     1      -8.086   8.297  71.165  1.00  0.00    -0.094 OA 
BRANCH  14  15
HETATM   15  C   UNL     1      -7.944   7.627  72.340  1.00  0.00    -0.107 C  
HETATM   16  C   UNL     1      -7.388   6.255  72.102  1.00  0.00    -0.093 C  
HETATM   17  O   UNL     1      -8.180   8.075  73.453  1.00  0.00    -0.165 OA 
ENDBRANCH  14  15
ENDBRANCH  13  14
ENDBRANCH   4  13
BRANCH   8  18
HETATM   18  N   UNL     1      -8.632  14.196  67.414  1.00  0.00    -0.198 N  
HETATM   19  H   UNL     1      -8.106  14.105  68.283  1.00  0.00     0.000 HD 
HETATM   20  C   UNL     1      -8.721  15.449  66.855  1.00  0.00    -0.254 C  
HETATM   21  O   UNL     1      -9.288  15.669  65.790  1.00  0.00    -0.332 OA 
BRANCH  20  22
HETATM   22  CA  UNL     1      -8.030  16.541  67.713  1.00  0.00    -0.160 C  
HETATM   23  H2  UNL     1      -9.262  16.170  69.374  1.00  0.00     0.000 HD 
HETATM   24  N   UNL     1      -8.947  16.960  68.812  1.00  0.00    -0.266 NA 
HETATM   25  H1  UNL     1      -8.493  17.678  69.376  1.00  0.00     0.000 HD 
BRANCH  22  26
HETATM   26  C   UNL     1      -7.589  17.718  66.864  1.00  0.00    -0.238 A  
HETATM   27  C   UNL     1      -6.387  17.634  66.143  1.00  0.00    -0.274 A  
HETATM   28  C   UNL     1      -5.948  18.703  65.358  1.00  0.00    -0.280 A  
HETATM   29  C   UNL     1      -6.708  19.867  65.275  1.00  0.00    -0.330 A  
HETATM   30  C   UNL     1      -7.913  19.960  65.964  1.00  0.00    -0.328 A  
HETATM   31  C   UNL     1      -8.356  18.891  66.747  1.00  0.00    -0.289 A  
ENDBRANCH  22  26
ENDBRANCH  20  22
ENDBRANCH   8  18
TORSDOF 6
ENDMDL
MODEL      124
REMARK 921   NORMALIZED FREE ENERGY PREDICTED BY IDOCK:   -4.52 KCAL/MOL
REMARK 922        TOTAL FREE ENERGY PREDICTED BY IDOCK:   -7.14 KCAL/MOL
REMARK 923 INTER-LIGAND FREE ENERGY PREDICTED BY IDOCK:   -7.11 KCAL/MOL
REMARK 924 INTRA-LIGAND FREE ENERGY PREDICTED BY IDOCK:   -0.04 KCAL/MOL
REMARK 927      BINDING AFFINITY PREDICTED BY RF-SCORE:    0.00 PKD
ROOT
HETATM    1  C   UNL     1     -11.835  10.339  69.702  1.00  0.00    -0.111 C  
HETATM    2  S   UNL     1     -10.462  11.360  69.123  1.00  0.00    -0.064 SA 
HETATM    3  C   UNL     1      -9.343   9.964  68.935  1.00  0.00    -0.170 C  
HETATM    4  C   UNL     1      -9.307   8.996  70.104  1.00  0.00    -0.213 C  
HETATM    5  OXT UNL     1      -9.053   7.401  72.489  1.00  0.00    -0.134 OA 
HETATM    6  CA  UNL     1     -10.300   8.879  71.035  1.00  0.00    -0.253 C  
HETATM    7  N   UNL     1     -11.437   9.633  70.905  1.00  0.00    -0.323 N  
HETATM    8  CA  UNL     1     -12.893  11.087  70.579  1.00  0.00    -0.174 C  
HETATM    9  C   UNL     1     -10.102   7.979  72.245  1.00  0.00    -0.246 C  
HETATM   10  O   UNL     1     -11.170   7.762  73.034  1.00  0.00    -0.405 OA 
HETATM   11  O   UNL     1     -12.813   9.668  72.767  1.00  0.00    -0.089 OA 
HETATM   12  C   UNL     1     -12.485  10.025  71.658  1.00  0.00    -0.418 C  
ENDROOT
BRANCH   4  13
HETATM   13  C   UNL     1      -7.981   8.236  70.156  1.00  0.00    -0.106 C  
BRANCH  13  14
HETATM   14  O   UNL     1      -7.789   7.480  68.940  1.00  0.00    -0.118 OA 
BRANCH  14  15
HETATM   15  C   UNL     1      -8.590   6.394  68.765  1.00  0.00    -0.123 C  
HETATM   16  C   UNL     1      -7.966   5.174  69.373  1.00  0.00    -0.084 C  
HETATM   17  O   UNL     1      -9.692   6.396  68.235  1.00  0.00    -0.126 OA 
ENDBRANCH  14  15
ENDBRANCH  13  14
ENDBRANCH   4  13
BRANCH   8  18
HETATM   18  N   UNL     1     -12.554  12.489  70.912  1.00  0.00    -0.304 N  
HETATM   19  H   UNL     1     -11.771  12.915  70.416  1.00  0.00     0.000 HD 
HETATM   20  C   UNL     1     -13.213  13.261  71.839  1.00  0.00    -0.431 C  
HETATM   21  O   UNL     1     -14.195  12.870  72.461  1.00  0.00    -0.526 OA 
BRANCH  20  22
HETATM   22  CA  UNL     1     -12.583  14.668  72.006  1.00  0.00    -0.334 C  
HETATM   23  H2  UNL     1     -14.023  15.264  73.417  1.00  0.00     0.000 HD 
HETATM   24  N   UNL     1     -13.607  15.607  72.551  1.00  0.00    -0.528 NA 
HETATM   25  H1  UNL     1     -13.193  16.532  72.661  1.00  0.00     0.000 HD 
BRANCH  22  26
HETATM   26  C   UNL     1     -11.992  15.171  70.703  1.00  0.00    -0.371 A  
HETATM   27  C   UNL     1     -11.038  16.201  70.734  1.00  0.00    -0.281 A  
HETATM   28  C   UNL     1     -10.479  16.694  69.552  1.00  0.00    -0.281 A  
HETATM   29  C   UNL     1     -10.859  16.158  68.324  1.00  0.00    -0.326 A  
HETATM   30  C   UNL     1     -11.786  15.121  68.275  1.00  0.00    -0.336 A  
HETATM   31  C   UNL     1     -12.343  14.625  69.456  1.00  0.00    -0.232 A  
ENDBRANCH  22  26
ENDBRANCH  20  22
ENDBRANCH   8  18
TORSDOF 6
ENDMDL
MODEL      125
REMARK 921   NORMALIZED FREE ENERGY PREDICTED BY IDOCK:   -4.42 KCAL/MOL
REMARK 922        TOTAL FREE ENERGY PREDICTED BY IDOCK:   -7.01 KCAL/MOL
REMARK 923 INTER-LIGAND FREE ENERGY PREDICTED BY IDOCK:   -7.39 KCAL/MOL
REMARK 924 INTRA-LIGAND FREE ENERGY PREDICTED BY IDOCK:    0.38 KCAL/MOL
REMARK 927      BINDING AFFINITY PREDICTED BY RF-SCORE:    0.00 PKD
ROOT
HETATM    1  C   UNL     1     -10.192  14.313  66.721  1.00  0.00    -0.272 C  
HETATM    2  S   UNL     1      -9.447  13.185  67.920  1.00  0.00    -0.225 SA 
HETATM    3  C   UNL     1      -8.549  12.255  66.670  1.00  0.00    -0.099 C  
HETATM    4  C   UNL     1      -9.357  11.855  65.449  1.00  0.00    -0.048 C  
HETATM    5  OXT UNL     1     -11.040  10.855  63.335  1.00  0.00     0.002 OA 
HETATM    6  CA  UNL     1     -10.514  12.470  65.059  1.00  0.00    -0.297 C  
HETATM    7  N   UNL     1     -10.972  13.552  65.764  1.00  0.00    -0.277 N  
HETATM    8  CA  UNL     1     -11.534  14.974  67.179  1.00  0.00    -0.297 C  
HETATM    9  C   UNL     1     -11.321  11.901  63.902  1.00  0.00    -0.428 C  
HETATM   10  O   UNL     1     -12.350  12.638  63.446  1.00  0.00    -0.602 OA 
HETATM   11  O   UNL     1     -13.141  14.198  65.275  1.00  0.00    -0.763 OA 
HETATM   12  C   UNL     1     -12.111  14.259  65.908  1.00  0.00    -0.404 C  
ENDROOT
BRANCH   4  13
HETATM   13  C   UNL     1      -8.762  10.623  64.767  1.00  0.00    -0.160 C  
BRANCH  13  14
HETATM   14  O   UNL     1      -7.338  10.559  65.001  1.00  0.00    -0.106 OA 
BRANCH  14  15
HETATM   15  C   UNL     1      -6.628   9.709  64.211  1.00  0.00    -0.111 C  
HETATM   16  C   UNL     1      -6.817  10.052  62.763  1.00  0.00    -0.127 C  
HETATM   17  O   UNL     1      -5.890   8.817  64.602  1.00  0.00    -0.062 OA 
ENDBRANCH  14  15
ENDBRANCH  13  14
ENDBRANCH   4  13
BRANCH   8  18
HETATM   18  N   UNL     1     -12.065  14.487  68.472  1.00  0.00    -0.572 N  
HETATM   19  H   UNL     1     -12.787  13.767  68.445  1.00  0.00     0.000 HD 
HETATM   20  C   UNL     1     -11.658  14.930  69.708  1.00  0.00    -0.303 C  
HETATM   21  O   UNL     1     -10.767  15.758  69.864  1.00  0.00    -0.276 OA 
BRANCH  20  22
HETATM   22  CA  UNL     1     -12.444  14.271  70.872  1.00  0.00    -0.354 C  
HETATM   23  H2  UNL     1     -13.944  13.543  69.592  1.00  0.00     0.000 HD 
HETATM   24  N   UNL     1     -13.864  14.073  70.460  1.00  0.00     0.157 NA 
HETATM   25  H1  UNL     1     -14.381  13.640  71.225  1.00  0.00     0.000 HD 
BRANCH  22  26
HETATM   26  C   UNL     1     -12.333  15.085  72.148  1.00  0.00    -0.433 A  
HETATM   27  C   UNL     1     -12.728  14.508  73.366  1.00  0.00    -0.428 A  
HETATM   28  C   UNL     1     -12.647  15.232  74.558  1.00  0.00    -0.394 A  
HETATM   29  C   UNL     1     -12.163  16.537  74.551  1.00  0.00    -0.413 A  
HETATM   30  C   UNL     1     -11.745  17.117  73.357  1.00  0.00     0.398 A  
HETATM   31  C   UNL     1     -11.823  16.394  72.164  1.00  0.00    -0.499 A  
ENDBRANCH  22  26
ENDBRANCH  20  22
ENDBRANCH   8  18
TORSDOF 6
ENDMDL
MODEL      126
REMARK 921   NORMALIZED FREE ENERGY PREDICTED BY IDOCK:   -4.42 KCAL/MOL
REMARK 922        TOTAL FREE ENERGY PREDICTED BY IDOCK:   -7.01 KCAL/MOL
REMARK 923 INTER-LIGAND FREE ENERGY PREDICTED BY IDOCK:   -6.02 KCAL/MOL
REMARK 924 INTRA-LIGAND FREE ENERGY PREDICTED BY IDOCK:   -0.99 KCAL/MOL
REMARK 927      BINDING AFFINITY PREDICTED BY RF-SCORE:    0.00 PKD
ROOT
HETATM    1  C   UNL     1      -8.670  11.206  68.820  1.00  0.00    -0.128 C  
HETATM    2  S   UNL     1      -7.898  11.075  67.192  1.00  0.00    -0.141 SA 
HETATM    3  C   UNL     1      -7.954  12.847  66.889  1.00  0.00     0.079 C  
HETATM    4  C   UNL     1      -9.279  13.519  67.199  1.00  0.00    -0.236 C  
HETATM    5  OXT UNL     1     -11.913  14.650  67.493  1.00  0.00    -0.375 OA 
HETATM    6  CA  UNL     1     -10.228  12.998  68.032  1.00  0.00    -0.233 C  
HETATM    7  N   UNL     1      -9.977  11.821  68.686  1.00  0.00    -0.202 N  
HETATM    8  CA  UNL     1      -9.409   9.915  69.308  1.00  0.00    -0.206 C  
HETATM    9  C   UNL     1     -11.580  13.684  68.164  1.00  0.00    -0.332 C  
HETATM   10  O   UNL     1     -12.409  13.235  69.124  1.00  0.00    -0.197 OA 
HETATM   11  O   UNL     1     -11.818  10.840  69.691  1.00  0.00    -0.284 OA 
HETATM   12  C   UNL     1     -10.659  10.861  69.344  1.00  0.00    -0.197 C  
ENDROOT
BRANCH   4  13
HETATM   13  C   UNL     1      -9.452  14.806  66.390  1.00  0.00    -0.301 C  
BRANCH  13  14
HETATM   14  O   UNL     1      -8.633  15.859  66.942  1.00  0.00    -0.198 OA 
BRANCH  14  15
HETATM   15  C   UNL     1      -9.273  16.809  67.676  1.00  0.00    -0.223 C  
HETATM   16  C   UNL     1      -9.975  17.785  66.779  1.00  0.00    -0.333 C  
HETATM   17  O   UNL     1      -9.328  16.855  68.896  1.00  0.00    -0.256 OA 
ENDBRANCH  14  15
ENDBRANCH  13  14
ENDBRANCH   4  13
BRANCH   8  18
HETATM   18  N   UNL     1      -9.476   8.818  68.316  1.00  0.00    -0.140 N  
HETATM   19  H   UNL     1      -8.958   8.937  67.445  1.00  0.00     0.000 HD 
HETATM   20  C   UNL     1     -10.184   7.651  68.478  1.00  0.00    -0.199 C  
HETATM   21  O   UNL     1     -10.807   7.380  69.499  1.00  0.00    -0.236 OA 
BRANCH  20  22
HETATM   22  CA  UNL     1     -10.108   6.724  67.237  1.00  0.00    -0.182 C  
HETATM   23  H2  UNL     1     -12.000   7.318  66.540  1.00  0.00     0.000 HD 
HETATM   24  N   UNL     1     -11.486   6.458  66.732  1.00  0.00    -0.746 NA 
HETATM   25  H1  UNL     1     -11.436   5.848  65.916  1.00  0.00     0.000 HD 
BRANCH  22  26
HETATM   26  C   UNL     1      -9.362   5.440  67.548  1.00  0.00    -0.119 A  
HETATM   27  C   UNL     1      -8.109   5.509  68.178  1.00  0.00    -0.096 A  
HETATM   28  C   UNL     1      -7.391   4.346  68.471  1.00  0.00    -0.060 A  
HETATM   29  C   UNL     1      -7.920   3.099  68.147  1.00  0.00    -0.069 A  
HETATM   30  C   UNL     1      -9.171   3.010  67.544  1.00  0.00    -0.233 A  
HETATM   31  C   UNL     1      -9.891   4.171  67.253  1.00  0.00    -0.171 A  
ENDBRANCH  22  26
ENDBRANCH  20  22
ENDBRANCH   8  18
TORSDOF 6
ENDMDL
MODEL      127
REMARK 921   NORMALIZED FREE ENERGY PREDICTED BY IDOCK:   -4.41 KCAL/MOL
REMARK 922        TOTAL FREE ENERGY PREDICTED BY IDOCK:   -6.99 KCAL/MOL
REMARK 923 INTER-LIGAND FREE ENERGY PREDICTED BY IDOCK:   -6.07 KCAL/MOL
REMARK 924 INTRA-LIGAND FREE ENERGY PREDICTED BY IDOCK:   -0.92 KCAL/MOL
REMARK 927      BINDING AFFINITY PREDICTED BY RF-SCORE:    0.00 PKD
ROOT
HETATM    1  C   UNL     1      -9.185  10.558  67.419  1.00  0.00    -0.142 C  
HETATM    2  S   UNL     1     -10.909  10.137  67.758  1.00  0.00    -0.274 SA 
HETATM    3  C   UNL     1     -11.553  11.617  66.962  1.00  0.00    -0.189 C  
HETATM    4  C   UNL     1     -10.859  12.913  67.338  1.00  0.00    -0.272 C  
HETATM    5  OXT UNL     1      -9.712  15.353  68.353  1.00  0.00    -0.205 OA 
HETATM    6  CA  UNL     1      -9.601  12.985  67.865  1.00  0.00    -0.215 C  
HETATM    7  N   UNL     1      -8.872  11.837  68.029  1.00  0.00    -0.158 N  
HETATM    8  CA  UNL     1      -8.143   9.920  68.398  1.00  0.00    -0.101 C  
HETATM    9  C   UNL     1      -9.053  14.324  68.338  1.00  0.00    -0.194 C  
HETATM   10  O   UNL     1      -7.753  14.372  68.682  1.00  0.00    -0.127 OA 
HETATM   11  O   UNL     1      -6.970  12.055  69.332  1.00  0.00    -0.075 OA 
HETATM   12  C   UNL     1      -7.783  11.415  68.704  1.00  0.00    -0.137 C  
ENDROOT
BRANCH   4  13
HETATM   13  C   UNL     1     -11.781  14.116  67.135  1.00  0.00    -0.403 C  
BRANCH  13  14
HETATM   14  O   UNL     1     -12.473  14.010  65.872  1.00  0.00    -0.470 OA 
BRANCH  14  15
HETATM   15  C   UNL     1     -11.772  14.363  64.761  1.00  0.00    -0.416 C  
HETATM   16  C   UNL     1     -12.051  13.411  63.636  1.00  0.00    -0.513 C  
HETATM   17  O   UNL     1     -11.049  15.343  64.652  1.00  0.00    -0.399 OA 
ENDBRANCH  14  15
ENDBRANCH  13  14
ENDBRANCH   4  13
BRANCH   8  18
HETATM   18  N   UNL     1      -8.727   9.167  69.531  1.00  0.00    -0.134 N  
HETATM   19  H   UNL     1      -9.107   9.705  70.309  1.00  0.00     0.000 HD 
HETATM   20  C   UNL     1      -8.795   7.796  69.615  1.00  0.00    -0.139 C  
HETATM   21  O   UNL     1      -8.412   7.049  68.721  1.00  0.00    -0.121 OA 
BRANCH  20  22
HETATM   22  CA  UNL     1      -9.407   7.306  70.953  1.00  0.00    -0.159 C  
HETATM   23  H2  UNL     1     -11.334   7.971  70.442  1.00  0.00     0.000 HD 
HETATM   24  N   UNL     1     -10.676   8.045  71.217  1.00  0.00    -0.226 NA 
HETATM   25  H1  UNL     1     -11.078   7.722  72.097  1.00  0.00     0.000 HD 
BRANCH  22  26
HETATM   26  C   UNL     1      -8.422   7.445  72.099  1.00  0.00    -0.124 A  
HETATM   27  C   UNL     1      -8.863   7.975  73.322  1.00  0.00    -0.330 A  
HETATM   28  C   UNL     1      -7.981   8.124  74.395  1.00  0.00    -0.308 A  
HETATM   29  C   UNL     1      -6.649   7.738  74.263  1.00  0.00    -0.111 A  
HETATM   30  C   UNL     1      -6.200   7.189  73.066  1.00  0.00    -0.056 A  
HETATM   31  C   UNL     1      -7.082   7.036  71.993  1.00  0.00    -0.073 A  
ENDBRANCH  22  26
ENDBRANCH  20  22
ENDBRANCH   8  18
TORSDOF 6
ENDMDL
MODEL      128
REMARK 921   NORMALIZED FREE ENERGY PREDICTED BY IDOCK:   -4.39 KCAL/MOL
REMARK 922        TOTAL FREE ENERGY PREDICTED BY IDOCK:   -6.96 KCAL/MOL
REMARK 923 INTER-LIGAND FREE ENERGY PREDICTED BY IDOCK:   -5.97 KCAL/MOL
REMARK 924 INTRA-LIGAND FREE ENERGY PREDICTED BY IDOCK:   -1.00 KCAL/MOL
REMARK 927      BINDING AFFINITY PREDICTED BY RF-SCORE:    0.00 PKD
ROOT
HETATM    1  C   UNL     1     -10.899   9.671  68.310  1.00  0.00    -0.182 C  
HETATM    2  S   UNL     1      -9.510   8.568  68.654  1.00  0.00    -0.144 SA 
HETATM    3  C   UNL     1     -10.514   7.391  69.573  1.00  0.00    -0.232 C  
HETATM    4  C   UNL     1     -11.451   7.999  70.602  1.00  0.00    -0.237 C  
HETATM    5  OXT UNL     1     -12.945   9.200  72.752  1.00  0.00    -0.342 OA 
HETATM    6  CA  UNL     1     -11.870   9.299  70.587  1.00  0.00    -0.192 C  
HETATM    7  N   UNL     1     -11.480  10.120  69.561  1.00  0.00    -0.205 N  
HETATM    8  CA  UNL     1     -10.509  11.162  68.041  1.00  0.00    -0.188 C  
HETATM    9  C   UNL     1     -12.695   9.843  71.743  1.00  0.00    -0.428 C  
HETATM   10  O   UNL     1     -13.229  11.069  71.598  1.00  0.00    -0.414 OA 
HETATM   11  O   UNL     1     -11.882  12.375  69.899  1.00  0.00    -0.322 OA 
HETATM   12  C   UNL     1     -11.424  11.439  69.284  1.00  0.00    -0.303 C  
ENDROOT
BRANCH   4  13
HETATM   13  C   UNL     1     -11.790   6.995  71.705  1.00  0.00    -0.313 C  
BRANCH  13  14
HETATM   14  O   UNL     1     -11.105   5.745  71.473  1.00  0.00    -0.265 OA 
BRANCH  14  15
HETATM   15  C   UNL     1     -10.684   5.067  72.575  1.00  0.00    -0.212 C  
HETATM   16  C   UNL     1      -9.813   3.911  72.184  1.00  0.00    -0.235 C  
HETATM   17  O   UNL     1     -10.926   5.367  73.736  1.00  0.00    -0.283 OA 
ENDBRANCH  14  15
ENDBRANCH  13  14
ENDBRANCH   4  13
BRANCH   8  18
HETATM   18  N   UNL     1      -9.075  11.480  68.229  1.00  0.00    -0.180 N  
HETATM   19  H   UNL     1      -8.752  11.656  69.181  1.00  0.00     0.000 HD 
HETATM   20  C   UNL     1      -8.145  11.556  67.220  1.00  0.00    -0.153 C  
HETATM   21  O   UNL     1      -8.409  11.321  66.045  1.00  0.00    -0.153 OA 
BRANCH  20  22
HETATM   22  CA  UNL     1      -6.739  11.968  67.727  1.00  0.00    -0.096 C  
HETATM   23  H2  UNL     1      -6.162  12.721  65.852  1.00  0.00     0.000 HD 
HETATM   24  N   UNL     1      -5.809  12.086  66.567  1.00  0.00    -0.503 NA 
HETATM   25  H1  UNL     1      -4.884  12.356  66.901  1.00  0.00     0.000 HD 
BRANCH  22  26
HETATM   26  C   UNL     1      -6.219  10.999  68.773  1.00  0.00    -0.044 A  
HETATM   27  C   UNL     1      -5.930   9.677  68.399  1.00  0.00    -0.043 A  
HETATM   28  C   UNL     1      -5.458   8.756  69.338  1.00  0.00    -0.035 A  
HETATM   29  C   UNL     1      -5.260   9.146  70.661  1.00  0.00    -0.024 A  
HETATM   30  C   UNL     1      -5.520  10.459  71.044  1.00  0.00    -0.087 A  
HETATM   31  C   UNL     1      -5.989  11.381  70.105  1.00  0.00    -0.152 A  
ENDBRANCH  22  26
ENDBRANCH  20  22
ENDBRANCH   8  18
TORSDOF 6
ENDMDL
MODEL      129
REMARK 921   NORMALIZED FREE ENERGY PREDICTED BY IDOCK:   -4.39 KCAL/MOL
REMARK 922        TOTAL FREE ENERGY PREDICTED BY IDOCK:   -6.96 KCAL/MOL
REMARK 923 INTER-LIGAND FREE ENERGY PREDICTED BY IDOCK:   -6.14 KCAL/MOL
REMARK 924 INTRA-LIGAND FREE ENERGY PREDICTED BY IDOCK:   -0.83 KCAL/MOL
REMARK 927      BINDING AFFINITY PREDICTED BY RF-SCORE:    0.00 PKD
ROOT
HETATM    1  C   UNL     1      -8.148   8.476  68.754  1.00  0.00    -0.120 C  
HETATM    2  S   UNL     1      -7.823   9.840  69.895  1.00  0.00    -0.174 SA 
HETATM    3  C   UNL     1      -7.869   8.790  71.355  1.00  0.00    -0.128 C  
HETATM    4  C   UNL     1      -9.038   7.823  71.425  1.00  0.00    -0.154 C  
HETATM    5  OXT UNL     1     -11.451   6.265  71.642  1.00  0.00    -0.282 OA 
HETATM    6  CA  UNL     1      -9.767   7.419  70.343  1.00  0.00    -0.175 C  
HETATM    7  N   UNL     1      -9.414   7.856  69.093  1.00  0.00    -0.155 N  
HETATM    8  CA  UNL     1      -8.799   8.892  67.394  1.00  0.00    -0.129 C  
HETATM    9  C   UNL     1     -11.006   6.559  70.542  1.00  0.00    -0.294 C  
HETATM   10  O   UNL     1     -11.583   6.044  69.442  1.00  0.00    -0.275 OA 
HETATM   11  O   UNL     1     -10.984   7.466  67.436  1.00  0.00    -0.243 OA 
HETATM   12  C   UNL     1      -9.952   7.936  67.858  1.00  0.00    -0.178 C  
ENDROOT
BRANCH   4  13
HETATM   13  C   UNL     1      -9.349   7.433  72.871  1.00  0.00    -0.164 C  
BRANCH  13  14
HETATM   14  O   UNL     1      -8.170   6.898  73.511  1.00  0.00    -0.104 OA 
BRANCH  14  15
HETATM   15  C   UNL     1      -7.828   5.621  73.191  1.00  0.00    -0.100 C  
HETATM   16  C   UNL     1      -8.972   4.687  73.452  1.00  0.00    -0.108 C  
HETATM   17  O   UNL     1      -6.763   5.265  72.707  1.00  0.00    -0.065 OA 
ENDBRANCH  14  15
ENDBRANCH  13  14
ENDBRANCH   4  13
BRANCH   8  18
HETATM   18  N   UNL     1      -9.170  10.322  67.286  1.00  0.00    -0.141 N  
HETATM   19  H   UNL     1      -9.974  10.642  67.827  1.00  0.00     0.000 HD 
HETATM   20  C   UNL     1      -8.514  11.251  66.514  1.00  0.00    -0.171 C  
HETATM   21  O   UNL     1      -7.510  10.990  65.860  1.00  0.00    -0.095 OA 
BRANCH  20  22
HETATM   22  CA  UNL     1      -9.178  12.651  66.565  1.00  0.00    -0.200 C  
HETATM   23  H2  UNL     1      -9.075  12.746  68.662  1.00  0.00     0.000 HD 
HETATM   24  N   UNL     1      -9.762  12.874  67.919  1.00  0.00    -0.211 NA 
HETATM   25  H1  UNL     1     -10.199  13.795  67.952  1.00  0.00     0.000 HD 
BRANCH  22  26
HETATM   26  C   UNL     1     -10.214  12.815  65.468  1.00  0.00    -0.293 A  
HETATM   27  C   UNL     1     -10.187  11.949  64.363  1.00  0.00    -0.333 A  
HETATM   28  C   UNL     1     -11.120  12.077  63.332  1.00  0.00    -0.476 A  
HETATM   29  C   UNL     1     -12.099  13.066  63.395  1.00  0.00    -0.591 A  
HETATM   30  C   UNL     1     -12.156  13.918  64.493  1.00  0.00    -0.473 A  
HETATM   31  C   UNL     1     -11.225  13.790  65.527  1.00  0.00    -0.303 A  
ENDBRANCH  22  26
ENDBRANCH  20  22
ENDBRANCH   8  18
TORSDOF 6
ENDMDL
MODEL      130
REMARK 921   NORMALIZED FREE ENERGY PREDICTED BY IDOCK:   -4.38 KCAL/MOL
REMARK 922        TOTAL FREE ENERGY PREDICTED BY IDOCK:   -6.95 KCAL/MOL
REMARK 923 INTER-LIGAND FREE ENERGY PREDICTED BY IDOCK:   -6.00 KCAL/MOL
REMARK 924 INTRA-LIGAND FREE ENERGY PREDICTED BY IDOCK:   -0.94 KCAL/MOL
REMARK 927      BINDING AFFINITY PREDICTED BY RF-SCORE:    0.00 PKD
ROOT
HETATM    1  C   UNL     1      -8.732   5.301  69.696  1.00  0.00    -0.101 C  
HETATM    2  S   UNL     1      -7.115   6.083  69.895  1.00  0.00    -0.074 SA 
HETATM    3  C   UNL     1      -6.906   5.500  71.584  1.00  0.00    -0.066 C  
HETATM    4  C   UNL     1      -8.109   5.688  72.492  1.00  0.00    -0.103 C  
HETATM    5  OXT UNL     1     -10.303   6.382  74.224  1.00  0.00    -0.332 OA 
HETATM    6  CA  UNL     1      -9.388   5.862  72.045  1.00  0.00    -0.150 C  
HETATM    7  N   UNL     1      -9.644   5.817  70.700  1.00  0.00    -0.170 N  
HETATM    8  CA  UNL     1      -9.659   5.961  68.622  1.00  0.00    -0.123 C  
HETATM    9  C   UNL     1     -10.499   6.182  73.034  1.00  0.00    -0.226 C  
HETATM   10  O   UNL     1     -11.762   6.169  72.570  1.00  0.00    -0.278 OA 
HETATM   11  O   UNL     1     -11.742   6.567  70.071  1.00  0.00    -0.416 OA 
HETATM   12  C   UNL     1     -10.621   6.173  69.841  1.00  0.00    -0.265 C  
ENDROOT
BRANCH   4  13
HETATM   13  C   UNL     1      -7.691   5.749  73.962  1.00  0.00    -0.099 C  
BRANCH  13  14
HETATM   14  O   UNL     1      -6.645   6.727  74.146  1.00  0.00    -0.078 OA 
BRANCH  14  15
HETATM   15  C   UNL     1      -6.987   8.030  73.951  1.00  0.00    -0.125 C  
HETATM   16  C   UNL     1      -6.038   8.687  72.993  1.00  0.00    -0.086 C  
HETATM   17  O   UNL     1      -7.956   8.595  74.435  1.00  0.00    -0.366 OA 
ENDBRANCH  14  15
ENDBRANCH  13  14
ENDBRANCH   4  13
BRANCH   8  18
HETATM   18  N   UNL     1      -9.129   7.203  68.013  1.00  0.00    -0.133 N  
HETATM   19  H   UNL     1      -8.169   7.465  68.237  1.00  0.00     0.000 HD 
HETATM   20  C   UNL     1      -9.832   8.030  67.169  1.00  0.00    -0.210 C  
HETATM   21  O   UNL     1     -10.975   7.792  66.795  1.00  0.00    -0.145 OA 
BRANCH  20  22
HETATM   22  CA  UNL     1      -9.024   9.284  66.746  1.00  0.00    -0.131 C  
HETATM   23  H2  UNL     1      -7.873   9.271  68.505  1.00  0.00     0.000 HD 
HETATM   24  N   UNL     1      -8.433   9.924  67.958  1.00  0.00    -0.117 NA 
HETATM   25  H1  UNL     1      -7.902  10.749  67.680  1.00  0.00     0.000 HD 
BRANCH  22  26
HETATM   26  C   UNL     1      -9.880  10.256  65.955  1.00  0.00    -0.298 A  
HETATM   27  C   UNL     1      -9.821  10.237  64.552  1.00  0.00    -0.384 A  
HETATM   28  C   UNL     1     -10.589  11.124  63.793  1.00  0.00    -0.422 A  
HETATM   29  C   UNL     1     -11.434  12.033  64.424  1.00  0.00    -0.413 A  
HETATM   30  C   UNL     1     -11.523  12.050  65.813  1.00  0.00    -0.377 A  
HETATM   31  C   UNL     1     -10.758  11.162  66.573  1.00  0.00    -0.314 A  
ENDBRANCH  22  26
ENDBRANCH  20  22
ENDBRANCH   8  18
TORSDOF 6
ENDMDL
MODEL      131
REMARK 921   NORMALIZED FREE ENERGY PREDICTED BY IDOCK:   -4.34 KCAL/MOL
REMARK 922        TOTAL FREE ENERGY PREDICTED BY IDOCK:   -6.90 KCAL/MOL
REMARK 923 INTER-LIGAND FREE ENERGY PREDICTED BY IDOCK:   -5.89 KCAL/MOL
REMARK 924 INTRA-LIGAND FREE ENERGY PREDICTED BY IDOCK:   -1.01 KCAL/MOL
REMARK 927      BINDING AFFINITY PREDICTED BY RF-SCORE:    0.00 PKD
ROOT
HETATM    1  C   UNL     1     -11.152  10.574  65.712  1.00  0.00     0.396 C  
HETATM    2  S   UNL     1     -10.070   9.482  66.662  1.00  0.00    -0.246 SA 
HETATM    3  C   UNL     1     -11.063   9.597  68.157  1.00  0.00    -0.050 C  
HETATM    4  C   UNL     1     -11.487  11.000  68.552  1.00  0.00    -0.379 C  
HETATM    5  OXT UNL     1     -11.963  13.709  69.408  1.00  0.00    -0.314 OA 
HETATM    6  CA  UNL     1     -11.531  12.060  67.691  1.00  0.00    -0.322 C  
HETATM    7  N   UNL     1     -11.229  11.866  66.368  1.00  0.00    -0.321 N  
HETATM    8  CA  UNL     1     -10.466  11.307  64.512  1.00  0.00    -0.334 C  
HETATM    9  C   UNL     1     -11.834  13.454  68.219  1.00  0.00    -0.358 C  
HETATM   10  O   UNL     1     -12.039  14.427  67.314  1.00  0.00    -0.406 OA 
HETATM   11  O   UNL     1     -10.906  13.801  65.138  1.00  0.00    -0.310 OA 
HETATM   12  C   UNL     1     -10.900  12.600  65.285  1.00  0.00    -0.288 C  
ENDROOT
BRANCH   4  13
HETATM   13  C   UNL     1     -11.770  11.094  70.052  1.00  0.00    -0.356 C  
BRANCH  13  14
HETATM   14  O   UNL     1     -13.030  10.461  70.365  1.00  0.00    -0.303 OA 
BRANCH  14  15
HETATM   15  C   UNL     1     -12.994   9.444  71.267  1.00  0.00    -0.301 C  
HETATM   16  C   UNL     1     -14.346   8.809  71.403  1.00  0.00    -0.272 C  
HETATM   17  O   UNL     1     -12.001   9.047  71.860  1.00  0.00    -0.338 OA 
ENDBRANCH  14  15
ENDBRANCH  13  14
ENDBRANCH   4  13
BRANCH   8  18
HETATM   18  N   UNL     1      -9.004  11.098  64.402  1.00  0.00    -0.376 N  
HETATM   19  H   UNL     1      -8.401  11.660  65.003  1.00  0.00     0.000 HD 
HETATM   20  C   UNL     1      -8.397  10.204  63.553  1.00  0.00    -0.169 C  
HETATM   21  O   UNL     1      -9.022   9.445  62.819  1.00  0.00    -0.243 OA 
BRANCH  20  22
HETATM   22  CA  UNL     1      -6.849  10.260  63.626  1.00  0.00    -0.075 C  
HETATM   23  H2  UNL     1      -6.624   9.688  61.616  1.00  0.00     0.000 HD 
HETATM   24  N   UNL     1      -6.271   9.423  62.536  1.00  0.00    -0.093 NA 
HETATM   25  H1  UNL     1      -5.253   9.460  62.584  1.00  0.00     0.000 HD 
BRANCH  22  26
HETATM   26  C   UNL     1      -6.342   9.839  64.992  1.00  0.00    -0.096 A  
HETATM   27  C   UNL     1      -5.636  10.765  65.778  1.00  0.00    -0.145 A  
HETATM   28  C   UNL     1      -5.148  10.408  67.037  1.00  0.00    -0.040 A  
HETATM   29  C   UNL     1      -5.365   9.124  67.532  1.00  0.00    -0.037 A  
HETATM   30  C   UNL     1      -6.082   8.201  66.778  1.00  0.00    -0.053 A  
HETATM   31  C   UNL     1      -6.574   8.557  65.520  1.00  0.00    -0.059 A  
ENDBRANCH  22  26
ENDBRANCH  20  22
ENDBRANCH   8  18
TORSDOF 6
ENDMDL
MODEL      132
REMARK 921   NORMALIZED FREE ENERGY PREDICTED BY IDOCK:   -4.33 KCAL/MOL
REMARK 922        TOTAL FREE ENERGY PREDICTED BY IDOCK:   -6.88 KCAL/MOL
REMARK 923 INTER-LIGAND FREE ENERGY PREDICTED BY IDOCK:   -6.18 KCAL/MOL
REMARK 924 INTRA-LIGAND FREE ENERGY PREDICTED BY IDOCK:   -0.70 KCAL/MOL
REMARK 927      BINDING AFFINITY PREDICTED BY RF-SCORE:    0.00 PKD
ROOT
HETATM    1  C   UNL     1      -7.803   9.312  68.547  1.00  0.00    -0.090 C  
HETATM    2  S   UNL     1      -8.830  10.027  69.851  1.00  0.00    -0.066 SA 
HETATM    3  C   UNL     1      -8.928   8.492  70.783  1.00  0.00    -0.165 C  
HETATM    4  C   UNL     1      -9.253   7.254  69.967  1.00  0.00    -0.148 C  
HETATM    5  OXT UNL     1     -10.198   5.024  68.406  1.00  0.00    -0.146 OA 
HETATM    6  CA  UNL     1      -9.069   7.154  68.617  1.00  0.00    -0.133 C  
HETATM    7  N   UNL     1      -8.507   8.202  67.935  1.00  0.00    -0.131 N  
HETATM    8  CA  UNL     1      -7.893  10.036  67.163  1.00  0.00    -0.099 C  
HETATM    9  C   UNL     1      -9.559   5.920  67.874  1.00  0.00    -0.115 C  
HETATM   10  O   UNL     1      -9.197   5.791  66.585  1.00  0.00    -0.129 OA 
HETATM   11  O   UNL     1      -8.671   8.075  65.628  1.00  0.00    -0.154 OA 
HETATM   12  C   UNL     1      -8.386   8.635  66.663  1.00  0.00    -0.108 C  
ENDROOT
BRANCH   4  13
HETATM   13  C   UNL     1      -9.897   6.170  70.833  1.00  0.00    -0.182 C  
BRANCH  13  14
HETATM   14  O   UNL     1     -11.258   6.531  71.158  1.00  0.00    -0.272 OA 
BRANCH  14  15
HETATM   15  C   UNL     1     -11.468   7.066  72.391  1.00  0.00    -0.261 C  
HETATM   16  C   UNL     1     -10.793   6.243  73.447  1.00  0.00    -0.238 C  
HETATM   17  O   UNL     1     -12.075   8.101  72.628  1.00  0.00    -0.359 OA 
ENDBRANCH  14  15
ENDBRANCH  13  14
ENDBRANCH   4  13
BRANCH   8  18
HETATM   18  N   UNL     1      -8.896  11.123  67.086  1.00  0.00    -0.141 N  
HETATM   19  H   UNL     1      -9.881  10.858  67.110  1.00  0.00     0.000 HD 
HETATM   20  C   UNL     1      -8.602  12.462  66.984  1.00  0.00    -0.191 C  
HETATM   21  O   UNL     1      -7.456  12.899  66.992  1.00  0.00    -0.058 OA 
BRANCH  20  22
HETATM   22  CA  UNL     1      -9.869  13.348  66.862  1.00  0.00    -0.256 C  
HETATM   23  H2  UNL     1     -10.068  13.542  68.946  1.00  0.00     0.000 HD 
HETATM   24  N   UNL     1     -10.638  13.290  68.139  1.00  0.00    -0.242 NA 
HETATM   25  H1  UNL     1     -11.471  13.872  68.059  1.00  0.00     0.000 HD 
BRANCH  22  26
HETATM   26  C   UNL     1     -10.717  12.943  65.671  1.00  0.00    -0.295 A  
HETATM   27  C   UNL     1     -10.087  12.589  64.468  1.00  0.00    -0.273 A  
HETATM   28  C   UNL     1     -10.838  12.220  63.349  1.00  0.00    -0.457 A  
HETATM   29  C   UNL     1     -12.229  12.190  63.421  1.00  0.00    -0.635 A  
HETATM   30  C   UNL     1     -12.870  12.515  64.613  1.00  0.00    -0.325 A  
HETATM   31  C   UNL     1     -12.120  12.882  65.733  1.00  0.00    -0.513 A  
ENDBRANCH  22  26
ENDBRANCH  20  22
ENDBRANCH   8  18
TORSDOF 6
ENDMDL
MODEL      133
REMARK 921   NORMALIZED FREE ENERGY PREDICTED BY IDOCK:   -4.32 KCAL/MOL
REMARK 922        TOTAL FREE ENERGY PREDICTED BY IDOCK:   -6.87 KCAL/MOL
REMARK 923 INTER-LIGAND FREE ENERGY PREDICTED BY IDOCK:   -5.95 KCAL/MOL
REMARK 924 INTRA-LIGAND FREE ENERGY PREDICTED BY IDOCK:   -0.93 KCAL/MOL
REMARK 927      BINDING AFFINITY PREDICTED BY RF-SCORE:    0.00 PKD
ROOT
HETATM    1  C   UNL     1      -8.325  10.990  66.095  1.00  0.00    -0.163 C  
HETATM    2  S   UNL     1     -10.083  11.369  66.272  1.00  0.00    -0.233 SA 
HETATM    3  C   UNL     1      -9.806  13.133  66.485  1.00  0.00    -0.265 C  
HETATM    4  C   UNL     1      -8.708  13.507  67.464  1.00  0.00    -0.208 C  
HETATM    5  OXT UNL     1      -6.847  14.129  69.574  1.00  0.00    -0.125 OA 
HETATM    6  CA  UNL     1      -7.700  12.666  67.845  1.00  0.00    -0.141 C  
HETATM    7  N   UNL     1      -7.618  11.418  67.287  1.00  0.00    -0.130 N  
HETATM    8  CA  UNL     1      -7.923   9.525  66.471  1.00  0.00    -0.112 C  
HETATM    9  C   UNL     1      -6.731  13.091  68.939  1.00  0.00    -0.096 C  
HETATM   10  O   UNL     1      -5.659  12.308  69.152  1.00  0.00    -0.063 OA 
HETATM   11  O   UNL     1      -6.158   9.962  68.342  1.00  0.00    -0.046 OA 
HETATM   12  C   UNL     1      -7.010  10.238  67.528  1.00  0.00    -0.085 C  
ENDROOT
BRANCH   4  13
HETATM   13  C   UNL     1      -8.926  14.909  68.035  1.00  0.00    -0.172 C  
BRANCH  13  14
HETATM   14  O   UNL     1      -9.987  14.891  69.015  1.00  0.00    -0.228 OA 
BRANCH  14  15
HETATM   15  C   UNL     1     -11.053  15.702  68.773  1.00  0.00    -0.307 C  
HETATM   16  C   UNL     1     -12.189  15.369  69.693  1.00  0.00    -0.312 C  
HETATM   17  O   UNL     1     -11.088  16.615  67.961  1.00  0.00    -0.343 OA 
ENDBRANCH  14  15
ENDBRANCH  13  14
ENDBRANCH   4  13
BRANCH   8  18
HETATM   18  N   UNL     1      -9.015   8.699  67.034  1.00  0.00    -0.130 N  
HETATM   19  H   UNL     1      -9.973   8.982  66.831  1.00  0.00     0.000 HD 
HETATM   20  C   UNL     1      -8.836   7.580  67.812  1.00  0.00    -0.132 C  
HETATM   21  O   UNL     1      -7.731   7.121  68.083  1.00  0.00    -0.111 OA 
BRANCH  20  22
HETATM   22  CA  UNL     1     -10.174   6.967  68.301  1.00  0.00    -0.180 C  
HETATM   23  H2  UNL     1     -11.030   7.030  66.383  1.00  0.00     0.000 HD 
HETATM   24  N   UNL     1     -11.258   7.311  67.336  1.00  0.00    -0.553 NA 
HETATM   25  H1  UNL     1     -12.138   6.909  67.657  1.00  0.00     0.000 HD 
BRANCH  22  26
HETATM   26  C   UNL     1     -10.508   7.416  69.711  1.00  0.00    -0.235 A  
HETATM   27  C   UNL     1     -10.822   8.765  69.946  1.00  0.00    -0.211 A  
HETATM   28  C   UNL     1     -11.126   9.214  71.233  1.00  0.00    -0.405 A  
HETATM   29  C   UNL     1     -11.131   8.320  72.302  1.00  0.00    -0.429 A  
HETATM   30  C   UNL     1     -10.846   6.975  72.084  1.00  0.00    -0.255 A  
HETATM   31  C   UNL     1     -10.544   6.524  70.797  1.00  0.00    -0.278 A  
ENDBRANCH  22  26
ENDBRANCH  20  22
ENDBRANCH   8  18
TORSDOF 6
ENDMDL
MODEL      134
REMARK 921   NORMALIZED FREE ENERGY PREDICTED BY IDOCK:   -4.31 KCAL/MOL
REMARK 922        TOTAL FREE ENERGY PREDICTED BY IDOCK:   -6.86 KCAL/MOL
REMARK 923 INTER-LIGAND FREE ENERGY PREDICTED BY IDOCK:   -6.06 KCAL/MOL
REMARK 924 INTRA-LIGAND FREE ENERGY PREDICTED BY IDOCK:   -0.79 KCAL/MOL
REMARK 927      BINDING AFFINITY PREDICTED BY RF-SCORE:    0.00 PKD
ROOT
HETATM    1  C   UNL     1     -10.755   7.916  67.621  1.00  0.00    -0.145 C  
HETATM    2  S   UNL     1     -10.657   8.985  69.074  1.00  0.00    -0.147 SA 
HETATM    3  C   UNL     1     -11.337  10.414  68.219  1.00  0.00    -0.224 C  
HETATM    4  C   UNL     1     -10.738  10.702  66.855  1.00  0.00    -0.297 C  
HETATM    5  OXT UNL     1      -9.324  11.372  64.435  1.00  0.00    -0.176 OA 
HETATM    6  CA  UNL     1     -10.073   9.780  66.097  1.00  0.00    -0.245 C  
HETATM    7  N   UNL     1      -9.969   8.490  66.546  1.00  0.00    -0.278 N  
HETATM    8  CA  UNL     1      -9.753   6.714  67.614  1.00  0.00    -0.124 C  
HETATM    9  C   UNL     1      -9.390  10.209  64.807  1.00  0.00    -0.268 C  
HETATM   10  O   UNL     1      -8.905   9.238  64.013  1.00  0.00    -0.205 OA 
HETATM   11  O   UNL     1      -8.452   7.169  65.399  1.00  0.00    -0.137 OA 
HETATM   12  C   UNL     1      -9.235   7.386  66.295  1.00  0.00    -0.135 C  
ENDROOT
BRANCH   4  13
HETATM   13  C   UNL     1     -10.895  12.177  66.479  1.00  0.00    -0.270 C  
BRANCH  13  14
HETATM   14  O   UNL     1     -12.274  12.469  66.161  1.00  0.00    -0.609 OA 
BRANCH  14  15
HETATM   15  C   UNL     1     -12.568  13.762  65.855  1.00  0.00    -0.447 C  
HETATM   16  C   UNL     1     -11.858  14.699  66.785  1.00  0.00    -0.334 C  
HETATM   17  O   UNL     1     -13.269  14.136  64.926  1.00  0.00    -0.579 OA 
ENDBRANCH  14  15
ENDBRANCH  13  14
ENDBRANCH   4  13
BRANCH   8  18
HETATM   18  N   UNL     1      -8.785   6.697  68.735  1.00  0.00    -0.128 N  
HETATM   19  H   UNL     1      -8.304   7.569  68.956  1.00  0.00     0.000 HD 
HETATM   20  C   UNL     1      -8.486   5.596  69.501  1.00  0.00    -0.110 C  
HETATM   21  O   UNL     1      -9.035   4.509  69.357  1.00  0.00    -0.086 OA 
BRANCH  20  22
HETATM   22  CA  UNL     1      -7.389   5.880  70.560  1.00  0.00    -0.085 C  
HETATM   23  H2  UNL     1      -6.273   4.183  70.019  1.00  0.00     0.000 HD 
HETATM   24  N   UNL     1      -6.652   4.619  70.860  1.00  0.00    -0.030 NA 
HETATM   25  H1  UNL     1      -5.930   4.805  71.556  1.00  0.00     0.000 HD 
BRANCH  22  26
HETATM   26  C   UNL     1      -7.973   6.506  71.813  1.00  0.00    -0.104 A  
HETATM   27  C   UNL     1      -7.278   7.546  72.450  1.00  0.00    -0.075 A  
HETATM   28  C   UNL     1      -7.783   8.138  73.610  1.00  0.00    -0.225 A  
HETATM   29  C   UNL     1      -8.995   7.706  74.143  1.00  0.00    -0.251 A  
HETATM   30  C   UNL     1      -9.710   6.693  73.512  1.00  0.00    -0.213 A  
HETATM   31  C   UNL     1      -9.207   6.101  72.350  1.00  0.00    -0.139 A  
ENDBRANCH  22  26
ENDBRANCH  20  22
ENDBRANCH   8  18
TORSDOF 6
ENDMDL
MODEL      135
REMARK 921   NORMALIZED FREE ENERGY PREDICTED BY IDOCK:   -4.28 KCAL/MOL
REMARK 922        TOTAL FREE ENERGY PREDICTED BY IDOCK:   -6.82 KCAL/MOL
REMARK 923 INTER-LIGAND FREE ENERGY PREDICTED BY IDOCK:   -6.05 KCAL/MOL
REMARK 924 INTRA-LIGAND FREE ENERGY PREDICTED BY IDOCK:   -0.77 KCAL/MOL
REMARK 927      BINDING AFFINITY PREDICTED BY RF-SCORE:    0.00 PKD
ROOT
HETATM    1  C   UNL     1      -8.771  11.404  68.282  1.00  0.00    -0.160 C  
HETATM    2  S   UNL     1     -10.423  11.114  67.607  1.00  0.00    -0.208 SA 
HETATM    3  C   UNL     1     -10.223   9.326  67.563  1.00  0.00    -0.242 C  
HETATM    4  C   UNL     1      -8.915   8.832  66.971  1.00  0.00    -0.151 C  
HETATM    5  OXT UNL     1      -6.568   7.976  65.537  1.00  0.00    -0.045 OA 
HETATM    6  CA  UNL     1      -7.783   9.589  66.870  1.00  0.00    -0.098 C  
HETATM    7  N   UNL     1      -7.778  10.864  67.373  1.00  0.00    -0.105 N  
HETATM    8  CA  UNL     1      -8.172  12.818  67.980  1.00  0.00    -0.168 C  
HETATM    9  C   UNL     1      -6.569   9.044  66.133  1.00  0.00    -0.066 C  
HETATM   10  O   UNL     1      -5.428   9.751  66.214  1.00  0.00    -0.043 OA 
HETATM   11  O   UNL     1      -5.972  12.167  66.737  1.00  0.00    -0.241 OA 
HETATM   12  C   UNL     1      -7.043  11.991  67.273  1.00  0.00    -0.149 C  
ENDROOT
BRANCH   4  13
HETATM   13  C   UNL     1      -9.056   7.411  66.421  1.00  0.00    -0.160 C  
BRANCH  13  14
HETATM   14  O   UNL     1      -9.251   6.473  67.502  1.00  0.00    -0.115 OA 
BRANCH  14  15
HETATM   15  C   UNL     1      -9.879   5.307  67.191  1.00  0.00    -0.164 C  
HETATM   16  C   UNL     1      -9.414   4.200  68.090  1.00  0.00    -0.215 C  
HETATM   17  O   UNL     1     -10.743   5.165  66.337  1.00  0.00    -0.308 OA 
ENDBRANCH  14  15
ENDBRANCH  13  14
ENDBRANCH   4  13
BRANCH   8  18
HETATM   18  N   UNL     1      -8.988  13.667  67.082  1.00  0.00    -0.223 N  
HETATM   19  H   UNL     1      -9.832  13.256  66.684  1.00  0.00     0.000 HD 
HETATM   20  C   UNL     1      -8.696  14.967  66.745  1.00  0.00    -0.246 C  
HETATM   21  O   UNL     1      -7.734  15.577  67.199  1.00  0.00    -0.192 OA 
BRANCH  20  22
HETATM   22  CA  UNL     1      -9.709  15.569  65.738  1.00  0.00    -0.348 C  
HETATM   23  H2  UNL     1      -9.561  17.493  66.572  1.00  0.00     0.000 HD 
HETATM   24  N   UNL     1     -10.283  16.825  66.304  1.00  0.00    -0.322 NA 
HETATM   25  H1  UNL     1     -10.949  17.221  65.642  1.00  0.00     0.000 HD 
BRANCH  22  26
HETATM   26  C   UNL     1     -10.789  14.569  65.370  1.00  0.00    -0.362 A  
HETATM   27  C   UNL     1     -12.020  14.609  66.045  1.00  0.00    -0.248 A  
HETATM   28  C   UNL     1     -13.033  13.698  65.737  1.00  0.00    -0.252 A  
HETATM   29  C   UNL     1     -12.834  12.741  64.745  1.00  0.00    -0.374 A  
HETATM   30  C   UNL     1     -11.629  12.701  64.050  1.00  0.00    -0.486 A  
HETATM   31  C   UNL     1     -10.616  13.614  64.354  1.00  0.00    -0.360 A  
ENDBRANCH  22  26
ENDBRANCH  20  22
ENDBRANCH   8  18
TORSDOF 6
ENDMDL
MODEL      136
REMARK 921   NORMALIZED FREE ENERGY PREDICTED BY IDOCK:   -4.28 KCAL/MOL
REMARK 922        TOTAL FREE ENERGY PREDICTED BY IDOCK:   -6.81 KCAL/MOL
REMARK 923 INTER-LIGAND FREE ENERGY PREDICTED BY IDOCK:   -6.66 KCAL/MOL
REMARK 924 INTRA-LIGAND FREE ENERGY PREDICTED BY IDOCK:   -0.15 KCAL/MOL
REMARK 927      BINDING AFFINITY PREDICTED BY RF-SCORE:    0.00 PKD
ROOT
HETATM    1  C   UNL     1      -9.637  13.497  66.990  1.00  0.00    -0.248 C  
HETATM    2  S   UNL     1      -8.658  12.615  68.227  1.00  0.00    -0.136 SA 
HETATM    3  C   UNL     1      -7.545  11.895  67.011  1.00  0.00    -0.134 C  
HETATM    4  C   UNL     1      -8.217  11.279  65.798  1.00  0.00     0.071 C  
HETATM    5  OXT UNL     1      -9.579   9.845  63.703  1.00  0.00    -0.225 OA 
HETATM    6  CA  UNL     1      -9.482  11.586  65.382  1.00  0.00    -0.198 C  
HETATM    7  N   UNL     1     -10.197  12.544  66.050  1.00  0.00    -0.246 N  
HETATM    8  CA  UNL     1     -11.105  13.827  67.418  1.00  0.00    -0.296 C  
HETATM    9  C   UNL     1     -10.112  10.808  64.236  1.00  0.00    -0.361 C  
HETATM   10  O   UNL     1     -11.282  11.262  63.751  1.00  0.00    -0.359 OA 
HETATM   11  O   UNL     1     -12.451  12.634  65.528  1.00  0.00    -0.622 OA 
HETATM   12  C   UNL     1     -11.475  12.959  66.166  1.00  0.00    -0.348 C  
ENDROOT
BRANCH   4  13
HETATM   13  C   UNL     1      -7.332  10.209  65.156  1.00  0.00    -0.141 C  
BRANCH  13  14
HETATM   14  O   UNL     1      -6.831   9.304  66.164  1.00  0.00    -0.082 OA 
BRANCH  14  15
HETATM   15  C   UNL     1      -7.637   8.262  66.504  1.00  0.00    -0.092 C  
HETATM   16  C   UNL     1      -7.297   7.756  67.874  1.00  0.00    -0.102 C  
HETATM   17  O   UNL     1      -8.552   7.815  65.827  1.00  0.00    -0.142 OA 
ENDBRANCH  14  15
ENDBRANCH  13  14
ENDBRANCH   4  13
BRANCH   8  18
HETATM   18  N   UNL     1     -11.520  13.261  68.722  1.00  0.00    -0.283 N  
HETATM   19  H   UNL     1     -11.401  13.846  69.549  1.00  0.00     0.000 HD 
HETATM   20  C   UNL     1     -12.053  12.007  68.904  1.00  0.00    -0.145 C  
HETATM   21  O   UNL     1     -12.283  11.235  67.979  1.00  0.00    -0.621 OA 
BRANCH  20  22
HETATM   22  CA  UNL     1     -12.330  11.682  70.395  1.00  0.00    -0.288 C  
HETATM   23  H2  UNL     1     -12.176  13.696  70.976  1.00  0.00     0.000 HD 
HETATM   24  N   UNL     1     -11.804  12.787  71.249  1.00  0.00     0.132 NA 
HETATM   25  H1  UNL     1     -11.986  12.573  72.229  1.00  0.00     0.000 HD 
BRANCH  22  26
HETATM   26  C   UNL     1     -11.748  10.337  70.788  1.00  0.00    -0.453 A  
HETATM   27  C   UNL     1     -10.372  10.111  70.625  1.00  0.00    -0.006 A  
HETATM   28  C   UNL     1      -9.805   8.881  70.969  1.00  0.00    -0.321 A  
HETATM   29  C   UNL     1     -10.603   7.865  71.490  1.00  0.00    -0.262 A  
HETATM   30  C   UNL     1     -11.965   8.080  71.680  1.00  0.00    -0.336 A  
HETATM   31  C   UNL     1     -12.533   9.310  71.339  1.00  0.00    -0.418 A  
ENDBRANCH  22  26
ENDBRANCH  20  22
ENDBRANCH   8  18
TORSDOF 6
ENDMDL
MODEL      137
REMARK 921   NORMALIZED FREE ENERGY PREDICTED BY IDOCK:   -4.22 KCAL/MOL
REMARK 922        TOTAL FREE ENERGY PREDICTED BY IDOCK:   -6.74 KCAL/MOL
REMARK 923 INTER-LIGAND FREE ENERGY PREDICTED BY IDOCK:   -7.19 KCAL/MOL
REMARK 924 INTRA-LIGAND FREE ENERGY PREDICTED BY IDOCK:    0.45 KCAL/MOL
REMARK 927      BINDING AFFINITY PREDICTED BY RF-SCORE:    0.00 PKD
ROOT
HETATM    1  C   UNL     1      -7.772   8.327  68.512  1.00  0.00    -0.112 C  
HETATM    2  S   UNL     1      -8.325  10.041  68.662  1.00  0.00    -0.122 SA 
HETATM    3  C   UNL     1      -9.175   9.758  70.222  1.00  0.00    -0.172 C  
HETATM    4  C   UNL     1     -10.059   8.526  70.268  1.00  0.00    -0.199 C  
HETATM    5  OXT UNL     1     -11.965   6.367  70.161  1.00  0.00    -0.354 OA 
HETATM    6  CA  UNL     1      -9.936   7.460  69.422  1.00  0.00    -0.176 C  
HETATM    7  N   UNL     1      -8.925   7.448  68.497  1.00  0.00    -0.129 N  
HETATM    8  CA  UNL     1      -7.481   7.851  67.051  1.00  0.00    -0.092 C  
HETATM    9  C   UNL     1     -10.963   6.338  69.462  1.00  0.00    -0.379 C  
HETATM   10  O   UNL     1     -10.700   5.235  68.738  1.00  0.00    -0.124 OA 
HETATM   11  O   UNL     1      -9.110   5.822  66.859  1.00  0.00    -0.116 OA 
HETATM   12  C   UNL     1      -8.596   6.794  67.364  1.00  0.00    -0.120 C  
ENDROOT
BRANCH   4  13
HETATM   13  C   UNL     1     -11.161   8.671  71.319  1.00  0.00    -0.272 C  
BRANCH  13  14
HETATM   14  O   UNL     1     -10.600   8.588  72.648  1.00  0.00    -0.304 OA 
BRANCH  14  15
HETATM   15  C   UNL     1      -9.861   7.481  72.930  1.00  0.00    -0.219 C  
HETATM   16  C   UNL     1      -8.546   7.865  73.540  1.00  0.00    -0.302 C  
HETATM   17  O   UNL     1     -10.217   6.323  72.767  1.00  0.00    -0.178 OA 
ENDBRANCH  14  15
ENDBRANCH  13  14
ENDBRANCH   4  13
BRANCH   8  18
HETATM   18  N   UNL     1      -7.819   8.830  65.992  1.00  0.00    -0.103 N  
HETATM   19  H   UNL     1      -7.049   9.331  65.550  1.00  0.00     0.000 HD 
HETATM   20  C   UNL     1      -9.092   9.116  65.561  1.00  0.00    -0.219 C  
HETATM   21  O   UNL     1     -10.090   8.544  65.988  1.00  0.00    -0.154 OA 
BRANCH  20  22
HETATM   22  CA  UNL     1      -9.126  10.230  64.483  1.00  0.00    -0.234 C  
HETATM   23  H2  UNL     1      -7.031  10.298  64.331  1.00  0.00     0.000 HD 
HETATM   24  N   UNL     1      -7.813  10.939  64.462  1.00  0.00    -0.334 NA 
HETATM   25  H1  UNL     1      -7.835  11.671  63.754  1.00  0.00     0.000 HD 
BRANCH  22  26
HETATM   26  C   UNL     1     -10.281  11.187  64.708  1.00  0.00    -0.365 A  
HETATM   27  C   UNL     1     -11.071  11.580  63.615  1.00  0.00    -0.469 A  
HETATM   28  C   UNL     1     -12.137  12.467  63.786  1.00  0.00    -0.618 A  
HETATM   29  C   UNL     1     -12.435  12.965  65.052  1.00  0.00    -0.553 A  
HETATM   30  C   UNL     1     -11.678  12.568  66.151  1.00  0.00    -0.466 A  
HETATM   31  C   UNL     1     -10.614  11.680  65.982  1.00  0.00    -0.303 A  
ENDBRANCH  22  26
ENDBRANCH  20  22
ENDBRANCH   8  18
TORSDOF 6
ENDMDL
MODEL      138
REMARK 921   NORMALIZED FREE ENERGY PREDICTED BY IDOCK:   -4.22 KCAL/MOL
REMARK 922        TOTAL FREE ENERGY PREDICTED BY IDOCK:   -6.74 KCAL/MOL
REMARK 923 INTER-LIGAND FREE ENERGY PREDICTED BY IDOCK:   -5.61 KCAL/MOL
REMARK 924 INTRA-LIGAND FREE ENERGY PREDICTED BY IDOCK:   -1.13 KCAL/MOL
REMARK 927      BINDING AFFINITY PREDICTED BY RF-SCORE:    0.00 PKD
ROOT
HETATM    1  C   UNL     1     -10.852   7.209  71.669  1.00  0.00    -0.224 C  
HETATM    2  S   UNL     1     -11.003   6.808  69.913  1.00  0.00    -0.312 SA 
HETATM    3  C   UNL     1     -10.449   5.110  70.129  1.00  0.00    -0.235 C  
HETATM    4  C   UNL     1      -9.207   4.934  70.983  1.00  0.00    -0.192 C  
HETATM    5  OXT UNL     1      -6.669   4.717  72.330  1.00  0.00    -0.046 OA 
HETATM    6  CA  UNL     1      -8.758   5.856  71.885  1.00  0.00    -0.138 C  
HETATM    7  N   UNL     1      -9.481   7.001  72.094  1.00  0.00    -0.138 N  
HETATM    8  CA  UNL     1     -10.641   8.727  71.985  1.00  0.00    -0.344 C  
HETATM    9  C   UNL     1      -7.425   5.643  72.588  1.00  0.00    -0.097 C  
HETATM   10  O   UNL     1      -7.114   6.484  73.590  1.00  0.00    -0.081 OA 
HETATM   11  O   UNL     1      -8.385   8.652  73.292  1.00  0.00    -0.408 OA 
HETATM   12  C   UNL     1      -9.309   8.223  72.640  1.00  0.00    -0.280 C  
ENDROOT
BRANCH   4  13
HETATM   13  C   UNL     1      -8.476   3.635  70.638  1.00  0.00    -0.069 C  
BRANCH  13  14
HETATM   14  O   UNL     1      -8.607   3.344  69.230  1.00  0.00    -0.063 OA 
BRANCH  14  15
HETATM   15  C   UNL     1      -7.545   3.659  68.441  1.00  0.00    -0.057 C  
HETATM   16  C   UNL     1      -7.901   4.763  67.491  1.00  0.00    -0.094 C  
HETATM   17  O   UNL     1      -6.430   3.163  68.510  1.00  0.00    -0.032 OA 
ENDBRANCH  14  15
ENDBRANCH  13  14
ENDBRANCH   4  13
BRANCH   8  18
HETATM   18  N   UNL     1     -10.472   9.598  70.800  1.00  0.00    -0.307 N  
HETATM   19  H   UNL     1      -9.611   9.499  70.261  1.00  0.00     0.000 HD 
HETATM   20  C   UNL     1     -11.386  10.530  70.369  1.00  0.00    -0.328 C  
HETATM   21  O   UNL     1     -12.473  10.704  70.910  1.00  0.00    -0.329 OA 
BRANCH  20  22
HETATM   22  CA  UNL     1     -10.895  11.327  69.133  1.00  0.00    -0.222 C  
HETATM   23  H2  UNL     1     -12.650  12.480  69.041  1.00  0.00     0.000 HD 
HETATM   24  N   UNL     1     -12.069  11.914  68.423  1.00  0.00    -0.433 NA 
HETATM   25  H1  UNL     1     -11.746  12.438  67.611  1.00  0.00     0.000 HD 
BRANCH  22  26
HETATM   26  C   UNL     1     -10.052  10.464  68.213  1.00  0.00    -0.174 A  
HETATM   27  C   UNL     1     -10.687   9.558  67.349  1.00  0.00    -0.297 A  
HETATM   28  C   UNL     1      -9.941   8.742  66.495  1.00  0.00    -0.360 A  
HETATM   29  C   UNL     1      -8.551   8.827  66.486  1.00  0.00    -0.126 A  
HETATM   30  C   UNL     1      -7.905   9.736  67.319  1.00  0.00    -0.098 A  
HETATM   31  C   UNL     1      -8.650  10.554  68.171  1.00  0.00    -0.123 A  
ENDBRANCH  22  26
ENDBRANCH  20  22
ENDBRANCH   8  18
TORSDOF 6
ENDMDL
MODEL      139
REMARK 921   NORMALIZED FREE ENERGY PREDICTED BY IDOCK:   -4.19 KCAL/MOL
REMARK 922        TOTAL FREE ENERGY PREDICTED BY IDOCK:   -6.70 KCAL/MOL
REMARK 923 INTER-LIGAND FREE ENERGY PREDICTED BY IDOCK:   -5.85 KCAL/MOL
REMARK 924 INTRA-LIGAND FREE ENERGY PREDICTED BY IDOCK:   -0.85 KCAL/MOL
REMARK 927      BINDING AFFINITY PREDICTED BY RF-SCORE:    0.00 PKD
ROOT
HETATM    1  C   UNL     1     -10.218   9.256  66.911  1.00  0.00    -0.256 C  
HETATM    2  S   UNL     1      -8.641   9.590  66.094  1.00  0.00    -0.135 SA 
HETATM    3  C   UNL     1      -7.718   8.462  67.149  1.00  0.00    -0.097 C  
HETATM    4  C   UNL     1      -7.998   8.584  68.636  1.00  0.00    -0.116 C  
HETATM    5  OXT UNL     1      -8.339   9.106  71.448  1.00  0.00    -0.321 OA 
HETATM    6  CA  UNL     1      -9.127   9.146  69.161  1.00  0.00    -0.144 C  
HETATM    7  N   UNL     1     -10.112   9.591  68.318  1.00  0.00    -0.176 N  
HETATM    8  CA  UNL     1     -11.279  10.401  66.794  1.00  0.00     0.210 C  
HETATM    9  C   UNL     1      -9.246   9.346  70.664  1.00  0.00    -0.242 C  
HETATM   10  O   UNL     1     -10.441   9.737  71.143  1.00  0.00    -0.274 OA 
HETATM   11  O   UNL     1     -11.735  10.911  69.312  1.00  0.00    -0.283 OA 
HETATM   12  C   UNL     1     -11.195  10.395  68.360  1.00  0.00    -0.258 C  
ENDROOT
BRANCH   4  13
HETATM   13  C   UNL     1      -6.818   8.080  69.467  1.00  0.00    -0.046 C  
BRANCH  13  14
HETATM   14  O   UNL     1      -6.526   6.703  69.141  1.00  0.00    -0.037 OA 
BRANCH  14  15
HETATM   15  C   UNL     1      -7.325   5.760  69.709  1.00  0.00    -0.071 C  
HETATM   16  C   UNL     1      -7.773   4.761  68.685  1.00  0.00    -0.076 C  
HETATM   17  O   UNL     1      -7.610   5.684  70.896  1.00  0.00    -0.086 OA 
ENDBRANCH  14  15
ENDBRANCH  13  14
ENDBRANCH   4  13
BRANCH   8  18
HETATM   18  N   UNL     1     -10.797  11.639  66.141  1.00  0.00    -0.286 N  
HETATM   19  H   UNL     1      -9.905  11.596  65.647  1.00  0.00     0.000 HD 
HETATM   20  C   UNL     1     -11.459  12.844  66.148  1.00  0.00    -0.348 C  
HETATM   21  O   UNL     1     -12.558  13.002  66.670  1.00  0.00    -0.260 OA 
BRANCH  20  22
HETATM   22  CA  UNL     1     -10.670  13.968  65.429  1.00  0.00    -0.337 C  
HETATM   23  H2  UNL     1     -10.760  12.993  63.569  1.00  0.00     0.000 HD 
HETATM   24  N   UNL     1     -10.066  13.426  64.177  1.00  0.00    -0.779 NA 
HETATM   25  H1  UNL     1      -9.546  14.165  63.704  1.00  0.00     0.000 HD 
BRANCH  22  26
HETATM   26  C   UNL     1      -9.625  14.585  66.340  1.00  0.00    -0.324 A  
HETATM   27  C   UNL     1      -9.099  13.823  67.396  1.00  0.00    -0.221 A  
HETATM   28  C   UNL     1      -8.142  14.362  68.259  1.00  0.00    -0.139 A  
HETATM   29  C   UNL     1      -7.690  15.666  68.073  1.00  0.00    -0.133 A  
HETATM   30  C   UNL     1      -8.182  16.428  67.018  1.00  0.00    -0.231 A  
HETATM   31  C   UNL     1      -9.137  15.889  66.152  1.00  0.00    -0.385 A  
ENDBRANCH  22  26
ENDBRANCH  20  22
ENDBRANCH   8  18
TORSDOF 6
ENDMDL
MODEL      140
REMARK 921   NORMALIZED FREE ENERGY PREDICTED BY IDOCK:   -4.18 KCAL/MOL
REMARK 922        TOTAL FREE ENERGY PREDICTED BY IDOCK:   -6.69 KCAL/MOL
REMARK 923 INTER-LIGAND FREE ENERGY PREDICTED BY IDOCK:   -6.89 KCAL/MOL
REMARK 924 INTRA-LIGAND FREE ENERGY PREDICTED BY IDOCK:    0.20 KCAL/MOL
REMARK 927      BINDING AFFINITY PREDICTED BY RF-SCORE:    0.00 PKD
ROOT
HETATM    1  C   UNL     1      -8.215   9.359  68.181  1.00  0.00    -0.118 C  
HETATM    2  S   UNL     1      -8.761  10.651  69.320  1.00  0.00    -0.013 SA 
HETATM    3  C   UNL     1      -9.075   9.501  70.667  1.00  0.00    -0.174 C  
HETATM    4  C   UNL     1      -9.853   8.253  70.290  1.00  0.00    -0.186 C  
HETATM    5  OXT UNL     1     -11.613   6.090  69.565  1.00  0.00    -0.303 OA 
HETATM    6  CA  UNL     1      -9.956   7.767  69.018  1.00  0.00    -0.182 C  
HETATM    7  N   UNL     1      -9.282   8.392  68.002  1.00  0.00    -0.137 N  
HETATM    8  CA  UNL     1      -8.372   9.704  66.663  1.00  0.00    -0.123 C  
HETATM    9  C   UNL     1     -10.876   6.591  68.728  1.00  0.00    -0.299 C  
HETATM   10  O   UNL     1     -10.807   6.040  67.502  1.00  0.00    -0.283 OA 
HETATM   11  O   UNL     1      -9.900   7.746  65.866  1.00  0.00     0.103 OA 
HETATM   12  C   UNL     1      -9.293   8.436  66.654  1.00  0.00    -0.191 C  
ENDROOT
BRANCH   4  13
HETATM   13  C   UNL     1     -10.580   7.665  71.501  1.00  0.00    -0.212 C  
BRANCH  13  14
HETATM   14  O   UNL     1     -11.346   8.689  72.172  1.00  0.00    -0.338 OA 
BRANCH  14  15
HETATM   15  C   UNL     1     -12.554   9.002  71.628  1.00  0.00    -0.348 C  
HETATM   16  C   UNL     1     -13.507   7.852  71.763  1.00  0.00    -0.379 C  
HETATM   17  O   UNL     1     -12.861  10.079  71.139  1.00  0.00    -0.341 OA 
ENDBRANCH  14  15
ENDBRANCH  13  14
ENDBRANCH   4  13
BRANCH   8  18
HETATM   18  N   UNL     1      -9.059  10.985  66.379  1.00  0.00    -0.172 N  
HETATM   19  H   UNL     1      -8.479  11.786  66.130  1.00  0.00     0.000 HD 
HETATM   20  C   UNL     1     -10.419  11.178  66.426  1.00  0.00    -0.260 C  
HETATM   21  O   UNL     1     -11.216  10.278  66.669  1.00  0.00     0.009 OA 
BRANCH  20  22
HETATM   22  CA  UNL     1     -10.829  12.645  66.137  1.00  0.00    -0.273 C  
HETATM   23  H2  UNL     1      -9.425  12.848  64.586  1.00  0.00     0.000 HD 
HETATM   24  N   UNL     1      -9.714  13.341  65.431  1.00  0.00    -0.509 NA 
HETATM   25  H1  UNL     1      -9.984  14.306  65.241  1.00  0.00     0.000 HD 
BRANCH  22  26
HETATM   26  C   UNL     1     -11.233  13.370  67.408  1.00  0.00    -0.311 A  
HETATM   27  C   UNL     1     -11.254  14.774  67.421  1.00  0.00    -0.346 A  
HETATM   28  C   UNL     1     -11.612  15.472  68.576  1.00  0.00    -0.379 A  
HETATM   29  C   UNL     1     -11.964  14.778  69.731  1.00  0.00    -0.368 A  
HETATM   30  C   UNL     1     -11.971  13.387  69.730  1.00  0.00    -0.396 A  
HETATM   31  C   UNL     1     -11.615  12.686  68.575  1.00  0.00    -0.363 A  
ENDBRANCH  22  26
ENDBRANCH  20  22
ENDBRANCH   8  18
TORSDOF 6
ENDMDL
MODEL      141
REMARK 921   NORMALIZED FREE ENERGY PREDICTED BY IDOCK:   -4.17 KCAL/MOL
REMARK 922        TOTAL FREE ENERGY PREDICTED BY IDOCK:   -6.66 KCAL/MOL
REMARK 923 INTER-LIGAND FREE ENERGY PREDICTED BY IDOCK:   -5.86 KCAL/MOL
REMARK 924 INTRA-LIGAND FREE ENERGY PREDICTED BY IDOCK:   -0.80 KCAL/MOL
REMARK 927      BINDING AFFINITY PREDICTED BY RF-SCORE:    0.00 PKD
ROOT
HETATM    1  C   UNL     1     -11.028   7.013  71.260  1.00  0.00    -0.243 C  
HETATM    2  S   UNL     1     -11.257   6.252  69.636  1.00  0.00    -0.417 SA 
HETATM    3  C   UNL     1     -10.347   4.763  70.072  1.00  0.00    -0.083 C  
HETATM    4  C   UNL     1      -9.021   4.991  70.774  1.00  0.00    -0.165 C  
HETATM    5  OXT UNL     1      -6.379   5.518  71.795  1.00  0.00    -0.040 OA 
HETATM    6  CA  UNL     1      -8.689   6.141  71.435  1.00  0.00    -0.135 C  
HETATM    7  N   UNL     1      -9.610   7.150  71.532  1.00  0.00    -0.158 N  
HETATM    8  CA  UNL     1     -11.107   8.576  71.275  1.00  0.00    -0.262 C  
HETATM    9  C   UNL     1      -7.282   6.320  71.983  1.00  0.00    -0.091 C  
HETATM   10  O   UNL     1      -7.059   7.386  72.774  1.00  0.00    -0.067 OA 
HETATM   11  O   UNL     1      -8.772   9.179  72.269  1.00  0.00    -0.282 OA 
HETATM   12  C   UNL     1      -9.644   8.466  71.828  1.00  0.00    -0.234 C  
ENDROOT
BRANCH   4  13
HETATM   13  C   UNL     1      -8.073   3.808  70.570  1.00  0.00    -0.054 C  
BRANCH  13  14
HETATM   14  O   UNL     1      -8.674   2.830  69.694  1.00  0.00    -0.062 OA 
BRANCH  14  15
HETATM   15  C   UNL     1      -7.999   2.540  68.549  1.00  0.00    -0.053 C  
HETATM   16  C   UNL     1      -8.936   2.022  67.500  1.00  0.00    -0.180 C  
HETATM   17  O   UNL     1      -6.804   2.717  68.358  1.00  0.00    -0.046 OA 
ENDBRANCH  14  15
ENDBRANCH  13  14
ENDBRANCH   4  13
BRANCH   8  18
HETATM   18  N   UNL     1     -11.233   9.211  69.943  1.00  0.00    -0.402 N  
HETATM   19  H   UNL     1     -10.954   8.662  69.131  1.00  0.00     0.000 HD 
HETATM   20  C   UNL     1     -11.695  10.486  69.718  1.00  0.00    -0.281 C  
HETATM   21  O   UNL     1     -12.100  11.221  70.613  1.00  0.00    -0.355 OA 
BRANCH  20  22
HETATM   22  CA  UNL     1     -11.651  10.886  68.221  1.00  0.00    -0.262 C  
HETATM   23  H2  UNL     1     -11.196   8.931  67.599  1.00  0.00     0.000 HD 
HETATM   24  N   UNL     1     -10.851   9.881  67.463  1.00  0.00    -0.317 NA 
HETATM   25  H1  UNL     1     -10.821  10.144  66.479  1.00  0.00     0.000 HD 
BRANCH  22  26
HETATM   26  C   UNL     1     -11.112  12.293  68.037  1.00  0.00    -0.285 A  
HETATM   27  C   UNL     1     -12.013  13.356  67.866  1.00  0.00    -0.360 A  
HETATM   28  C   UNL     1     -11.551  14.662  67.685  1.00  0.00    -0.383 A  
HETATM   29  C   UNL     1     -10.183  14.925  67.683  1.00  0.00    -0.236 A  
HETATM   30  C   UNL     1      -9.276  13.887  67.875  1.00  0.00    -0.198 A  
HETATM   31  C   UNL     1      -9.737  12.581  68.058  1.00  0.00    -0.215 A  
ENDBRANCH  22  26
ENDBRANCH  20  22
ENDBRANCH   8  18
TORSDOF 6
ENDMDL
MODEL      142
REMARK 921   NORMALIZED FREE ENERGY PREDICTED BY IDOCK:   -4.17 KCAL/MOL
REMARK 922        TOTAL FREE ENERGY PREDICTED BY IDOCK:   -6.66 KCAL/MOL
REMARK 923 INTER-LIGAND FREE ENERGY PREDICTED BY IDOCK:   -6.13 KCAL/MOL
REMARK 924 INTRA-LIGAND FREE ENERGY PREDICTED BY IDOCK:   -0.53 KCAL/MOL
REMARK 927      BINDING AFFINITY PREDICTED BY RF-SCORE:    0.00 PKD
ROOT
HETATM    1  C   UNL     1      -7.948   9.183  68.704  1.00  0.00    -0.101 C  
HETATM    2  S   UNL     1      -8.258   9.575  70.440  1.00  0.00    -0.157 SA 
HETATM    3  C   UNL     1      -8.071   7.871  70.985  1.00  0.00    -0.098 C  
HETATM    4  C   UNL     1      -8.811   6.837  70.156  1.00  0.00    -0.141 C  
HETATM    5  OXT UNL     1     -10.506   4.988  68.739  1.00  0.00    -0.111 OA 
HETATM    6  CA  UNL     1      -9.229   7.040  68.871  1.00  0.00    -0.136 C  
HETATM    7  N   UNL     1      -8.931   8.221  68.244  1.00  0.00    -0.136 N  
HETATM    8  CA  UNL     1      -8.562  10.192  67.677  1.00  0.00    -0.118 C  
HETATM    9  C   UNL     1     -10.086   5.990  68.178  1.00  0.00    -0.160 C  
HETATM   10  O   UNL     1     -10.321   6.154  66.864  1.00  0.00    -0.196 OA 
HETATM   11  O   UNL     1     -10.074   8.601  66.266  1.00  0.00    -0.277 OA 
HETATM   12  C   UNL     1      -9.331   8.925  67.165  1.00  0.00    -0.145 C  
ENDROOT
BRANCH   4  13
HETATM   13  C   UNL     1      -9.107   5.578  70.972  1.00  0.00    -0.144 C  
BRANCH  13  14
HETATM   14  O   UNL     1      -7.879   4.885  71.287  1.00  0.00    -0.087 OA 
BRANCH  14  15
HETATM   15  C   UNL     1      -7.967   3.538  71.458  1.00  0.00    -0.061 C  
HETATM   16  C   UNL     1      -9.377   3.136  71.770  1.00  0.00    -0.196 C  
HETATM   17  O   UNL     1      -7.050   2.739  71.329  1.00  0.00    -0.032 OA 
ENDBRANCH  14  15
ENDBRANCH  13  14
ENDBRANCH   4  13
BRANCH   8  18
HETATM   18  N   UNL     1      -9.412  11.250  68.269  1.00  0.00    -0.183 N  
HETATM   19  H   UNL     1      -9.272  11.471  69.255  1.00  0.00     0.000 HD 
HETATM   20  C   UNL     1     -10.376  11.958  67.591  1.00  0.00    -0.200 C  
HETATM   21  O   UNL     1     -10.600  11.810  66.395  1.00  0.00    -0.237 OA 
BRANCH  20  22
HETATM   22  CA  UNL     1     -11.139  12.956  68.500  1.00  0.00    -0.267 C  
HETATM   23  H2  UNL     1      -9.724  14.481  68.199  1.00  0.00     0.000 HD 
HETATM   24  N   UNL     1     -10.199  14.014  68.972  1.00  0.00    -0.407 NA 
HETATM   25  H1  UNL     1     -10.700  14.671  69.569  1.00  0.00     0.000 HD 
BRANCH  22  26
HETATM   26  C   UNL     1     -11.819  12.248  69.657  1.00  0.00    -0.393 A  
HETATM   27  C   UNL     1     -11.936  10.848  69.631  1.00  0.00    -0.414 A  
HETATM   28  C   UNL     1     -12.564  10.165  70.675  1.00  0.00    -0.353 A  
HETATM   29  C   UNL     1     -13.073  10.868  71.763  1.00  0.00    -0.564 A  
HETATM   30  C   UNL     1     -12.945  12.253  71.817  1.00  0.00    -0.431 A  
HETATM   31  C   UNL     1     -12.315  12.938  70.775  1.00  0.00    -0.385 A  
ENDBRANCH  22  26
ENDBRANCH  20  22
ENDBRANCH   8  18
TORSDOF 6
ENDMDL
MODEL      143
REMARK 921   NORMALIZED FREE ENERGY PREDICTED BY IDOCK:   -4.13 KCAL/MOL
REMARK 922        TOTAL FREE ENERGY PREDICTED BY IDOCK:   -6.62 KCAL/MOL
REMARK 923 INTER-LIGAND FREE ENERGY PREDICTED BY IDOCK:   -5.87 KCAL/MOL
REMARK 924 INTRA-LIGAND FREE ENERGY PREDICTED BY IDOCK:   -0.74 KCAL/MOL
REMARK 927      BINDING AFFINITY PREDICTED BY RF-SCORE:    0.00 PKD
ROOT
HETATM    1  C   UNL     1      -7.318   7.952  68.728  1.00  0.00    -0.086 C  
HETATM    2  S   UNL     1      -8.028   8.474  70.305  1.00  0.00    -0.110 SA 
HETATM    3  C   UNL     1      -7.849   6.852  71.062  1.00  0.00    -0.097 C  
HETATM    4  C   UNL     1      -8.318   5.683  70.214  1.00  0.00    -0.112 C  
HETATM    5  OXT UNL     1      -9.531   3.565  68.684  1.00  0.00    -0.167 OA 
HETATM    6  CA  UNL     1      -8.457   5.726  68.856  1.00  0.00    -0.104 C  
HETATM    7  N   UNL     1      -8.110   6.866  68.180  1.00  0.00    -0.118 N  
HETATM    8  CA  UNL     1      -7.760   8.801  67.489  1.00  0.00    -0.101 C  
HETATM    9  C   UNL     1      -9.067   4.544  68.118  1.00  0.00    -0.124 C  
HETATM   10  O   UNL     1      -9.019   4.563  66.774  1.00  0.00    -0.111 OA 
HETATM   11  O   UNL     1      -8.814   6.956  65.975  1.00  0.00    -0.156 OA 
HETATM   12  C   UNL     1      -8.310   7.428  66.969  1.00  0.00    -0.121 C  
ENDROOT
BRANCH   4  13
HETATM   13  C   UNL     1      -8.699   4.484  71.084  1.00  0.00    -0.115 C  
BRANCH  13  14
HETATM   14  O   UNL     1     -10.005   4.684  71.668  1.00  0.00    -0.178 OA 
BRANCH  14  15
HETATM   15  C   UNL     1     -10.322   3.900  72.734  1.00  0.00    -0.164 C  
HETATM   16  C   UNL     1      -9.458   2.675  72.765  1.00  0.00    -0.147 C  
HETATM   17  O   UNL     1     -11.155   4.160  73.591  1.00  0.00    -0.251 OA 
ENDBRANCH  14  15
ENDBRANCH  13  14
ENDBRANCH   4  13
BRANCH   8  18
HETATM   18  N   UNL     1      -8.788   9.829  67.768  1.00  0.00    -0.129 N  
HETATM   19  H   UNL     1      -8.908  10.126  68.736  1.00  0.00     0.000 HD 
HETATM   20  C   UNL     1      -9.595  10.414  66.821  1.00  0.00    -0.171 C  
HETATM   21  O   UNL     1      -9.509  10.169  65.622  1.00  0.00    -0.187 OA 
BRANCH  20  22
HETATM   22  CA  UNL     1     -10.615  11.410  67.432  1.00  0.00    -0.218 C  
HETATM   23  H2  UNL     1     -11.670   9.889  68.428  1.00  0.00     0.000 HD 
HETATM   24  N   UNL     1     -11.858  10.677  67.808  1.00  0.00    -0.645 NA 
HETATM   25  H1  UNL     1     -12.529  11.332  68.210  1.00  0.00     0.000 HD 
BRANCH  22  26
HETATM   26  C   UNL     1     -10.901  12.562  66.487  1.00  0.00    -0.287 A  
HETATM   27  C   UNL     1     -12.182  12.686  65.925  1.00  0.00    -0.375 A  
HETATM   28  C   UNL     1     -12.478  13.730  65.044  1.00  0.00    -0.449 A  
HETATM   29  C   UNL     1     -11.501  14.668  64.721  1.00  0.00    -0.410 A  
HETATM   30  C   UNL     1     -10.233  14.574  65.286  1.00  0.00    -0.431 A  
HETATM   31  C   UNL     1      -9.937  13.533  66.169  1.00  0.00    -0.310 A  
ENDBRANCH  22  26
ENDBRANCH  20  22
ENDBRANCH   8  18
TORSDOF 6
ENDMDL
MODEL      144
REMARK 921   NORMALIZED FREE ENERGY PREDICTED BY IDOCK:   -4.10 KCAL/MOL
REMARK 922        TOTAL FREE ENERGY PREDICTED BY IDOCK:   -6.57 KCAL/MOL
REMARK 923 INTER-LIGAND FREE ENERGY PREDICTED BY IDOCK:   -5.85 KCAL/MOL
REMARK 924 INTRA-LIGAND FREE ENERGY PREDICTED BY IDOCK:   -0.71 KCAL/MOL
REMARK 927      BINDING AFFINITY PREDICTED BY RF-SCORE:    0.00 PKD
ROOT
HETATM    1  C   UNL     1     -10.672   5.124  70.199  1.00  0.00    -0.034 C  
HETATM    2  S   UNL     1     -11.124   6.362  68.963  1.00  0.00    -0.332 SA 
HETATM    3  C   UNL     1     -10.157   5.589  67.657  1.00  0.00    -0.178 C  
HETATM    4  C   UNL     1      -8.746   5.185  68.044  1.00  0.00    -0.102 C  
HETATM    5  OXT UNL     1      -5.988   4.758  68.759  1.00  0.00    -0.023 OA 
HETATM    6  CA  UNL     1      -8.328   4.988  69.330  1.00  0.00    -0.085 C  
HETATM    7  N   UNL     1      -9.230   5.104  70.356  1.00  0.00    -0.142 N  
HETATM    8  CA  UNL     1     -10.753   5.610  71.684  1.00  0.00    -0.251 C  
HETATM    9  C   UNL     1      -6.858   4.723  69.617  1.00  0.00    -0.052 C  
HETATM   10  O   UNL     1      -6.529   4.363  70.871  1.00  0.00    -0.027 OA 
HETATM   11  O   UNL     1      -8.302   5.192  72.476  1.00  0.00    -0.115 OA 
HETATM   12  C   UNL     1      -9.226   5.254  71.696  1.00  0.00    -0.146 C  
ENDROOT
BRANCH   4  13
HETATM   13  C   UNL     1      -7.833   5.116  66.819  1.00  0.00    -0.100 C  
BRANCH  13  14
HETATM   14  O   UNL     1      -7.847   6.375  66.112  1.00  0.00    -0.097 OA 
BRANCH  14  15
HETATM   15  C   UNL     1      -6.834   7.241  66.388  1.00  0.00    -0.061 C  
HETATM   16  C   UNL     1      -7.323   8.371  67.243  1.00  0.00    -0.085 C  
HETATM   17  O   UNL     1      -5.668   7.111  66.043  1.00  0.00    -0.030 OA 
ENDBRANCH  14  15
ENDBRANCH  13  14
ENDBRANCH   4  13
BRANCH   8  18
HETATM   18  N   UNL     1     -11.067   7.047  71.857  1.00  0.00    -0.237 N  
HETATM   19  H   UNL     1     -10.284   7.690  71.973  1.00  0.00     0.000 HD 
HETATM   20  C   UNL     1     -12.333   7.581  71.873  1.00  0.00    -0.310 C  
HETATM   21  O   UNL     1     -13.346   6.911  71.699  1.00  0.00    -0.341 OA 
BRANCH  20  22
HETATM   22  CA  UNL     1     -12.338   9.110  72.134  1.00  0.00    -0.354 C  
HETATM   23  H2  UNL     1     -14.148   9.033  73.200  1.00  0.00     0.000 HD 
HETATM   24  N   UNL     1     -13.730   9.557  72.431  1.00  0.00    -0.635 NA 
HETATM   25  H1  UNL     1     -13.734  10.562  72.602  1.00  0.00     0.000 HD 
BRANCH  22  26
HETATM   26  C   UNL     1     -11.735   9.874  70.970  1.00  0.00    -0.466 A  
HETATM   27  C   UNL     1     -12.498  10.864  70.330  1.00  0.00    -0.411 A  
HETATM   28  C   UNL     1     -11.977  11.581  69.250  1.00  0.00    -0.397 A  
HETATM   29  C   UNL     1     -10.684  11.325  68.801  1.00  0.00    -0.240 A  
HETATM   30  C   UNL     1      -9.905  10.363  69.437  1.00  0.00    -0.235 A  
HETATM   31  C   UNL     1     -10.424   9.647  70.519  1.00  0.00    -0.367 A  
ENDBRANCH  22  26
ENDBRANCH  20  22
ENDBRANCH   8  18
TORSDOF 6
ENDMDL
MODEL      145
REMARK 921   NORMALIZED FREE ENERGY PREDICTED BY IDOCK:   -4.06 KCAL/MOL
REMARK 922        TOTAL FREE ENERGY PREDICTED BY IDOCK:   -6.52 KCAL/MOL
REMARK 923 INTER-LIGAND FREE ENERGY PREDICTED BY IDOCK:   -5.62 KCAL/MOL
REMARK 924 INTRA-LIGAND FREE ENERGY PREDICTED BY IDOCK:   -0.91 KCAL/MOL
REMARK 927      BINDING AFFINITY PREDICTED BY RF-SCORE:    0.00 PKD
ROOT
HETATM    1  C   UNL     1     -10.350   7.872  69.147  1.00  0.00    -0.219 C  
HETATM    2  S   UNL     1      -8.552   7.836  68.968  1.00  0.00    -0.135 SA 
HETATM    3  C   UNL     1      -8.356   6.377  70.002  1.00  0.00    -0.130 C  
HETATM    4  C   UNL     1      -9.125   6.400  71.311  1.00  0.00    -0.148 C  
HETATM    5  OXT UNL     1     -10.340   6.665  73.909  1.00  0.00    -0.311 OA 
HETATM    6  CA  UNL     1     -10.209   7.195  71.552  1.00  0.00    -0.197 C  
HETATM    7  N   UNL     1     -10.691   7.996  70.551  1.00  0.00    -0.225 N  
HETATM    8  CA  UNL     1     -11.007   9.277  68.938  1.00  0.00    -0.017 C  
HETATM    9  C   UNL     1     -10.819   7.243  72.945  1.00  0.00    -0.337 C  
HETATM   10  O   UNL     1     -11.985   7.899  73.086  1.00  0.00    -0.161 OA 
HETATM   11  O   UNL     1     -12.222   9.598  71.224  1.00  0.00    -0.316 OA 
HETATM   12  C   UNL     1     -11.504   9.064  70.410  1.00  0.00    -0.173 C  
ENDROOT
BRANCH   4  13
HETATM   13  C   UNL     1      -8.474   5.487  72.353  1.00  0.00    -0.118 C  
BRANCH  13  14
HETATM   14  O   UNL     1      -8.942   4.130  72.192  1.00  0.00    -0.112 OA 
BRANCH  14  15
HETATM   15  C   UNL     1      -9.084   3.396  73.329  1.00  0.00    -0.097 C  
HETATM   16  C   UNL     1      -8.204   3.933  74.418  1.00  0.00    -0.090 C  
HETATM   17  O   UNL     1      -9.853   2.458  73.484  1.00  0.00    -0.093 OA 
ENDBRANCH  14  15
ENDBRANCH  13  14
ENDBRANCH   4  13
BRANCH   8  18
HETATM   18  N   UNL     1     -10.055  10.394  68.748  1.00  0.00    -0.178 N  
HETATM   19  H   UNL     1      -9.419  10.608  69.516  1.00  0.00     0.000 HD 
HETATM   20  C   UNL     1      -9.961  11.166  67.614  1.00  0.00    -0.174 C  
HETATM   21  O   UNL     1     -10.641  10.971  66.612  1.00  0.00    -0.247 OA 
BRANCH  20  22
HETATM   22  CA  UNL     1      -8.907  12.297  67.742  1.00  0.00    -0.174 C  
HETATM   23  H2  UNL     1      -7.612  11.110  68.896  1.00  0.00     0.000 HD 
HETATM   24  N   UNL     1      -8.041  12.035  68.928  1.00  0.00    -0.349 NA 
HETATM   25  H1  UNL     1      -7.349  12.778  69.013  1.00  0.00     0.000 HD 
BRANCH  22  26
HETATM   26  C   UNL     1      -9.564  13.663  67.813  1.00  0.00    -0.224 A  
HETATM   27  C   UNL     1      -9.127  14.680  66.949  1.00  0.00    -0.272 A  
HETATM   28  C   UNL     1      -9.704  15.952  66.993  1.00  0.00    -0.235 A  
HETATM   29  C   UNL     1     -10.733  16.221  67.893  1.00  0.00    -0.329 A  
HETATM   30  C   UNL     1     -11.195  15.218  68.740  1.00  0.00    -0.293 A  
HETATM   31  C   UNL     1     -10.621  13.945  68.695  1.00  0.00    -0.265 A  
ENDBRANCH  22  26
ENDBRANCH  20  22
ENDBRANCH   8  18
TORSDOF 6
ENDMDL
MODEL      146
REMARK 921   NORMALIZED FREE ENERGY PREDICTED BY IDOCK:   -4.06 KCAL/MOL
REMARK 922        TOTAL FREE ENERGY PREDICTED BY IDOCK:   -6.52 KCAL/MOL
REMARK 923 INTER-LIGAND FREE ENERGY PREDICTED BY IDOCK:   -5.75 KCAL/MOL
REMARK 924 INTRA-LIGAND FREE ENERGY PREDICTED BY IDOCK:   -0.77 KCAL/MOL
REMARK 927      BINDING AFFINITY PREDICTED BY RF-SCORE:    0.00 PKD
ROOT
HETATM    1  C   UNL     1      -7.002  12.960  67.999  1.00  0.00    -0.108 C  
HETATM    2  S   UNL     1      -8.503  13.734  67.358  1.00  0.00    -0.204 SA 
HETATM    3  C   UNL     1      -7.748  15.361  67.211  1.00  0.00    -0.213 C  
HETATM    4  C   UNL     1      -6.951  15.820  68.418  1.00  0.00    -0.116 C  
HETATM    5  OXT UNL     1      -5.745  16.749  70.865  1.00  0.00    -0.001 OA 
HETATM    6  CA  UNL     1      -6.444  14.979  69.369  1.00  0.00    -0.135 C  
HETATM    7  N   UNL     1      -6.602  13.626  69.224  1.00  0.00    -0.112 N  
HETATM    8  CA  UNL     1      -7.235  11.675  68.860  1.00  0.00    -0.113 C  
HETATM    9  C   UNL     1      -5.781  15.553  70.612  1.00  0.00    -0.050 C  
HETATM   10  O   UNL     1      -5.145  14.692  71.426  1.00  0.00    -0.125 OA 
HETATM   11  O   UNL     1      -6.101  12.370  71.104  1.00  0.00    -0.166 OA 
HETATM   12  C   UNL     1      -6.518  12.509  69.977  1.00  0.00     0.097 C  
ENDROOT
BRANCH   4  13
HETATM   13  C   UNL     1      -6.868  17.346  68.482  1.00  0.00    -0.203 C  
BRANCH  13  14
HETATM   14  O   UNL     1      -8.173  17.928  68.274  1.00  0.00    -0.272 OA 
BRANCH  14  15
HETATM   15  C   UNL     1      -8.278  19.271  68.461  1.00  0.00    -0.366 C  
HETATM   16  C   UNL     1      -9.680  19.733  68.198  1.00  0.00    -0.506 C  
HETATM   17  O   UNL     1      -7.383  20.013  68.839  1.00  0.00    -0.262 OA 
ENDBRANCH  14  15
ENDBRANCH  13  14
ENDBRANCH   4  13
BRANCH   8  18
HETATM   18  N   UNL     1      -8.655  11.349  69.129  1.00  0.00    -0.376 N  
HETATM   19  H   UNL     1      -9.276  12.119  69.380  1.00  0.00     0.000 HD 
HETATM   20  C   UNL     1      -9.200  10.089  69.067  1.00  0.00    -0.178 C  
HETATM   21  O   UNL     1      -8.561   9.097  68.734  1.00  0.00    -0.128 OA 
BRANCH  20  22
HETATM   22  CA  UNL     1     -10.700  10.063  69.462  1.00  0.00    -0.244 C  
HETATM   23  H2  UNL     1     -10.872  12.156  69.376  1.00  0.00     0.000 HD 
HETATM   24  N   UNL     1     -11.089  11.392  70.016  1.00  0.00    -0.480 NA 
HETATM   25  H1  UNL     1     -12.075  11.375  70.275  1.00  0.00     0.000 HD 
BRANCH  22  26
HETATM   26  C   UNL     1     -11.000   8.936  70.432  1.00  0.00    -0.275 A  
HETATM   27  C   UNL     1     -11.825   7.877  70.021  1.00  0.00     0.369 A  
HETATM   28  C   UNL     1     -12.129   6.828  70.892  1.00  0.00    -0.421 A  
HETATM   29  C   UNL     1     -11.603   6.816  72.182  1.00  0.00    -0.324 A  
HETATM   30  C   UNL     1     -10.764   7.845  72.599  1.00  0.00    -0.411 A  
HETATM   31  C   UNL     1     -10.458   8.894  71.728  1.00  0.00    -0.431 A  
ENDBRANCH  22  26
ENDBRANCH  20  22
ENDBRANCH   8  18
TORSDOF 6
ENDMDL
MODEL      147
REMARK 921   NORMALIZED FREE ENERGY PREDICTED BY IDOCK:   -4.03 KCAL/MOL
REMARK 922        TOTAL FREE ENERGY PREDICTED BY IDOCK:   -6.47 KCAL/MOL
REMARK 923 INTER-LIGAND FREE ENERGY PREDICTED BY IDOCK:   -6.37 KCAL/MOL
REMARK 924 INTRA-LIGAND FREE ENERGY PREDICTED BY IDOCK:   -0.10 KCAL/MOL
REMARK 927      BINDING AFFINITY PREDICTED BY RF-SCORE:    0.00 PKD
ROOT
HETATM    1  C   UNL     1      -8.702  12.228  66.529  1.00  0.00    -0.084 C  
HETATM    2  S   UNL     1      -8.757  10.969  67.825  1.00  0.00    -0.133 SA 
HETATM    3  C   UNL     1      -7.747   9.801  66.901  1.00  0.00    -0.098 C  
HETATM    4  C   UNL     1      -8.140   9.607  65.448  1.00  0.00    -0.127 C  
HETATM    5  OXT UNL     1      -9.155   9.050  62.810  1.00  0.00    -0.098 OA 
HETATM    6  CA  UNL     1      -8.878  10.502  64.726  1.00  0.00    -0.196 C  
HETATM    7  N   UNL     1      -9.258  11.684  65.305  1.00  0.00    -0.099 N  
HETATM    8  CA  UNL     1      -9.897  13.238  66.537  1.00  0.00    -0.281 C  
HETATM    9  C   UNL     1      -9.337  10.146  63.319  1.00  0.00    -0.294 C  
HETATM   10  O   UNL     1      -9.904  11.123  62.589  1.00  0.00    -0.242 OA 
HETATM   11  O   UNL     1     -10.860  12.881  64.138  1.00  0.00    -0.370 OA 
HETATM   12  C   UNL     1     -10.147  12.676  65.094  1.00  0.00    -0.237 C  
ENDROOT
BRANCH   4  13
HETATM   13  C   UNL     1      -7.684   8.243  64.926  1.00  0.00    -0.115 C  
BRANCH  13  14
HETATM   14  O   UNL     1      -8.449   7.187  65.547  1.00  0.00    -0.138 OA 
BRANCH  14  15
HETATM   15  C   UNL     1      -8.287   5.936  65.038  1.00  0.00    -0.131 C  
HETATM   16  C   UNL     1      -8.117   4.934  66.141  1.00  0.00    -0.107 C  
HETATM   17  O   UNL     1      -8.322   5.636  63.853  1.00  0.00    -0.124 OA 
ENDBRANCH  14  15
ENDBRANCH  13  14
ENDBRANCH   4  13
BRANCH   8  18
HETATM   18  N   UNL     1     -10.962  12.943  67.522  1.00  0.00    -0.249 N  
HETATM   19  H   UNL     1     -11.742  12.362  67.214  1.00  0.00     0.000 HD 
HETATM   20  C   UNL     1     -10.980  13.391  68.822  1.00  0.00    -0.257 C  
HETATM   21  O   UNL     1     -10.075  14.056  69.314  1.00  0.00    -0.041 OA 
BRANCH  20  22
HETATM   22  CA  UNL     1     -12.259  12.964  69.588  1.00  0.00    -0.141 C  
HETATM   23  H2  UNL     1     -12.821  14.951  69.978  1.00  0.00     0.000 HD 
HETATM   24  N   UNL     1     -12.694  14.075  70.483  1.00  0.00    -0.312 NA 
HETATM   25  H1  UNL     1     -13.535  13.794  70.987  1.00  0.00     0.000 HD 
BRANCH  22  26
HETATM   26  C   UNL     1     -12.044  11.672  70.353  1.00  0.00    -0.462 A  
HETATM   27  C   UNL     1     -10.945  10.858  70.032  1.00  0.00    -0.221 A  
HETATM   28  C   UNL     1     -10.722   9.658  70.710  1.00  0.00    -0.401 A  
HETATM   29  C   UNL     1     -11.587   9.259  71.726  1.00  0.00    -0.458 A  
HETATM   30  C   UNL     1     -12.668  10.063  72.074  1.00  0.00    -0.439 A  
HETATM   31  C   UNL     1     -12.891  11.265  71.398  1.00  0.00    -0.515 A  
ENDBRANCH  22  26
ENDBRANCH  20  22
ENDBRANCH   8  18
TORSDOF 6
ENDMDL
MODEL      148
REMARK 921   NORMALIZED FREE ENERGY PREDICTED BY IDOCK:   -4.00 KCAL/MOL
REMARK 922        TOTAL FREE ENERGY PREDICTED BY IDOCK:   -6.44 KCAL/MOL
REMARK 923 INTER-LIGAND FREE ENERGY PREDICTED BY IDOCK:   -7.01 KCAL/MOL
REMARK 924 INTRA-LIGAND FREE ENERGY PREDICTED BY IDOCK:    0.56 KCAL/MOL
REMARK 927      BINDING AFFINITY PREDICTED BY RF-SCORE:    0.00 PKD
ROOT
HETATM    1  C   UNL     1     -10.812   6.544  72.046  1.00  0.00    -0.234 C  
HETATM    2  S   UNL     1     -11.688   6.542  70.466  1.00  0.00    -0.304 SA 
HETATM    3  C   UNL     1     -10.565   5.359  69.706  1.00  0.00    -0.277 C  
HETATM    4  C   UNL     1      -9.087   5.640  69.910  1.00  0.00    -0.155 C  
HETATM    5  OXT UNL     1      -6.320   6.426  70.059  1.00  0.00    -0.036 OA 
HETATM    6  CA  UNL     1      -8.585   6.424  70.910  1.00  0.00    -0.135 C  
HETATM    7  N   UNL     1      -9.439   6.963  71.836  1.00  0.00    -0.142 N  
HETATM    8  CA  UNL     1     -10.998   7.839  72.905  1.00  0.00    -0.407 C  
HETATM    9  C   UNL     1      -7.101   6.755  70.940  1.00  0.00    -0.068 C  
HETATM   10  O   UNL     1      -6.629   7.379  72.035  1.00  0.00    -0.050 OA 
HETATM   11  O   UNL     1      -8.521   8.610  73.180  1.00  0.00    -0.398 OA 
HETATM   12  C   UNL     1      -9.440   7.939  72.768  1.00  0.00    -0.241 C  
ENDROOT
BRANCH   4  13
HETATM   13  C   UNL     1      -8.244   5.009  68.801  1.00  0.00    -0.084 C  
BRANCH  13  14
HETATM   14  O   UNL     1      -8.716   5.440  67.506  1.00  0.00    -0.109 OA 
BRANCH  14  15
HETATM   15  C   UNL     1      -9.080   4.461  66.633  1.00  0.00    -0.127 C  
HETATM   16  C   UNL     1     -10.377   4.805  65.964  1.00  0.00    -0.328 C  
HETATM   17  O   UNL     1      -8.432   3.457  66.373  1.00  0.00    -0.103 OA 
ENDBRANCH  14  15
ENDBRANCH  13  14
ENDBRANCH   4  13
BRANCH   8  18
HETATM   18  N   UNL     1     -11.761   8.924  72.247  1.00  0.00    -0.333 N  
HETATM   19  H   UNL     1     -12.718   9.085  72.560  1.00  0.00     0.000 HD 
HETATM   20  C   UNL     1     -11.277   9.732  71.245  1.00  0.00    -0.347 C  
HETATM   21  O   UNL     1     -10.129   9.660  70.821  1.00  0.00    -0.278 OA 
BRANCH  20  22
HETATM   22  CA  UNL     1     -12.336  10.735  70.718  1.00  0.00    -0.383 C  
HETATM   23  H2  UNL     1     -13.943   9.495  71.263  1.00  0.00     0.000 HD 
HETATM   24  N   UNL     1     -13.613  10.012  70.449  1.00  0.00    -0.374 NA 
HETATM   25  H1  UNL     1     -14.309  10.671  70.102  1.00  0.00     0.000 HD 
BRANCH  22  26
HETATM   26  C   UNL     1     -11.837  11.478  69.493  1.00  0.00    -0.419 A  
HETATM   27  C   UNL     1     -11.729  12.877  69.535  1.00  0.00    -0.387 A  
HETATM   28  C   UNL     1     -11.281  13.593  68.421  1.00  0.00    -0.306 A  
HETATM   29  C   UNL     1     -10.926  12.919  67.255  1.00  0.00    -0.289 A  
HETATM   30  C   UNL     1     -11.004  11.531  67.204  1.00  0.00    -0.338 A  
HETATM   31  C   UNL     1     -11.449  10.814  68.317  1.00  0.00    -0.353 A  
ENDBRANCH  22  26
ENDBRANCH  20  22
ENDBRANCH   8  18
TORSDOF 6
ENDMDL
MODEL      149
REMARK 921   NORMALIZED FREE ENERGY PREDICTED BY IDOCK:   -4.00 KCAL/MOL
REMARK 922        TOTAL FREE ENERGY PREDICTED BY IDOCK:   -6.43 KCAL/MOL
REMARK 923 INTER-LIGAND FREE ENERGY PREDICTED BY IDOCK:   -5.47 KCAL/MOL
REMARK 924 INTRA-LIGAND FREE ENERGY PREDICTED BY IDOCK:   -0.96 KCAL/MOL
REMARK 927      BINDING AFFINITY PREDICTED BY RF-SCORE:    0.00 PKD
ROOT
HETATM    1  C   UNL     1      -9.362  10.167  64.775  1.00  0.00    -0.268 C  
HETATM    2  S   UNL     1      -7.572  10.246  64.544  1.00  0.00    -0.044 SA 
HETATM    3  C   UNL     1      -7.390   8.462  64.399  1.00  0.00    -0.091 C  
HETATM    4  C   UNL     1      -8.120   7.646  65.450  1.00  0.00    -0.128 C  
HETATM    5  OXT UNL     1      -9.256   6.194  67.664  1.00  0.00    -0.111 OA 
HETATM    6  CA  UNL     1      -9.175   8.108  66.186  1.00  0.00    -0.173 C  
HETATM    7  N   UNL     1      -9.661   9.366  65.947  1.00  0.00    -0.272 N  
HETATM    8  CA  UNL     1      -9.985  11.383  65.538  1.00  0.00    -0.239 C  
HETATM    9  C   UNL     1      -9.745   7.257  67.311  1.00  0.00    -0.158 C  
HETATM   10  O   UNL     1     -10.887   7.677  67.884  1.00  0.00    -0.152 OA 
HETATM   11  O   UNL     1     -11.127  10.174  67.548  1.00  0.00    -0.298 OA 
HETATM   12  C   UNL     1     -10.446  10.281  66.553  1.00  0.00    -0.173 C  
ENDROOT
BRANCH   4  13
HETATM   13  C   UNL     1      -7.468   6.276  65.642  1.00  0.00    -0.082 C  
BRANCH  13  14
HETATM   14  O   UNL     1      -7.661   5.459  64.466  1.00  0.00    -0.084 OA 
BRANCH  14  15
HETATM   15  C   UNL     1      -8.560   4.443  64.571  1.00  0.00    -0.135 C  
HETATM   16  C   UNL     1      -8.177   3.512  65.682  1.00  0.00    -0.097 C  
HETATM   17  O   UNL     1      -9.573   4.312  63.900  1.00  0.00    -0.156 OA 
ENDBRANCH  14  15
ENDBRANCH  13  14
ENDBRANCH   4  13
BRANCH   8  18
HETATM   18  N   UNL     1      -9.006  12.360  66.068  1.00  0.00    -0.426 N  
HETATM   19  H   UNL     1      -8.033  12.255  65.780  1.00  0.00     0.000 HD 
HETATM   20  C   UNL     1      -9.309  13.397  66.917  1.00  0.00    -0.252 C  
HETATM   21  O   UNL     1     -10.450  13.647  67.292  1.00  0.00    -0.257 OA 
BRANCH  20  22
HETATM   22  CA  UNL     1      -8.058  14.210  67.343  1.00  0.00    -0.189 C  
HETATM   23  H2  UNL     1      -7.361  12.682  68.607  1.00  0.00     0.000 HD 
HETATM   24  N   UNL     1      -7.546  13.684  68.642  1.00  0.00    -0.146 NA 
HETATM   25  H1  UNL     1      -6.724  14.219  68.922  1.00  0.00     0.000 HD 
BRANCH  22  26
HETATM   26  C   UNL     1      -8.358  15.696  67.413  1.00  0.00    -0.198 A  
HETATM   27  C   UNL     1      -8.467  16.430  66.221  1.00  0.00    -0.372 A  
HETATM   28  C   UNL     1      -8.734  17.802  66.249  1.00  0.00    -0.206 A  
HETATM   29  C   UNL     1      -8.904  18.455  67.467  1.00  0.00    -0.267 A  
HETATM   30  C   UNL     1      -8.822  17.738  68.658  1.00  0.00    -0.263 A  
HETATM   31  C   UNL     1      -8.559  16.367  68.631  1.00  0.00    -0.237 A  
ENDBRANCH  22  26
ENDBRANCH  20  22
ENDBRANCH   8  18
TORSDOF 6
ENDMDL
MODEL      150
REMARK 921   NORMALIZED FREE ENERGY PREDICTED BY IDOCK:   -3.98 KCAL/MOL
REMARK 922        TOTAL FREE ENERGY PREDICTED BY IDOCK:   -6.41 KCAL/MOL
REMARK 923 INTER-LIGAND FREE ENERGY PREDICTED BY IDOCK:   -5.69 KCAL/MOL
REMARK 924 INTRA-LIGAND FREE ENERGY PREDICTED BY IDOCK:   -0.71 KCAL/MOL
REMARK 927      BINDING AFFINITY PREDICTED BY RF-SCORE:    0.00 PKD
ROOT
HETATM    1  C   UNL     1     -10.323   7.180  68.532  1.00  0.00    -0.183 C  
HETATM    2  S   UNL     1      -9.470   6.604  67.046  1.00  0.00    -0.149 SA 
HETATM    3  C   UNL     1      -8.657   5.241  67.893  1.00  0.00    -0.103 C  
HETATM    4  C   UNL     1      -8.006   5.594  69.219  1.00  0.00    -0.096 C  
HETATM    5  OXT UNL     1      -6.518   6.414  71.546  1.00  0.00    -0.048 OA 
HETATM    6  CA  UNL     1      -8.333   6.689  69.968  1.00  0.00    -0.135 C  
HETATM    7  N   UNL     1      -9.345   7.512  69.551  1.00  0.00    -0.153 N  
HETATM    8  CA  UNL     1     -10.720   8.693  68.524  1.00  0.00    -0.043 C  
HETATM    9  C   UNL     1      -7.522   7.026  71.210  1.00  0.00    -0.081 C  
HETATM   10  O   UNL     1      -7.990   8.004  72.006  1.00  0.00    -0.100 OA 
HETATM   11  O   UNL     1      -9.483   9.541  70.659  1.00  0.00    -0.257 OA 
HETATM   12  C   UNL     1      -9.806   8.756  69.796  1.00  0.00    -0.186 C  
ENDROOT
BRANCH   4  13
HETATM   13  C   UNL     1      -6.878   4.619  69.560  1.00  0.00    -0.049 C  
BRANCH  13  14
HETATM   14  O   UNL     1      -7.375   3.548  70.391  1.00  0.00    -0.040 OA 
BRANCH  14  15
HETATM   15  C   UNL     1      -7.874   2.458  69.748  1.00  0.00    -0.042 C  
HETATM   16  C   UNL     1      -9.267   2.159  70.217  1.00  0.00    -0.187 C  
HETATM   17  O   UNL     1      -7.308   1.824  68.869  1.00  0.00    -0.043 OA 
ENDBRANCH  14  15
ENDBRANCH  13  14
ENDBRANCH   4  13
BRANCH   8  18
HETATM   18  N   UNL     1     -10.231   9.464  67.357  1.00  0.00    -0.222 N  
HETATM   19  H   UNL     1      -9.473   9.059  66.809  1.00  0.00     0.000 HD 
HETATM   20  C   UNL     1     -10.722  10.683  66.956  1.00  0.00    -0.259 C  
HETATM   21  O   UNL     1     -11.662  11.244  67.511  1.00  0.00    -0.574 OA 
BRANCH  20  22
HETATM   22  CA  UNL     1      -9.963  11.265  65.735  1.00  0.00    -0.237 C  
HETATM   23  H2  UNL     1      -8.081  10.783  66.537  1.00  0.00     0.000 HD 
HETATM   24  N   UNL     1      -8.561  11.586  66.131  1.00  0.00    -0.320 NA 
HETATM   25  H1  UNL     1      -8.062  11.969  65.329  1.00  0.00     0.000 HD 
BRANCH  22  26
HETATM   26  C   UNL     1     -10.679  12.473  65.160  1.00  0.00    -0.323 A  
HETATM   27  C   UNL     1     -11.708  12.280  64.224  1.00  0.00    -0.456 A  
HETATM   28  C   UNL     1     -12.382  13.370  63.668  1.00  0.00    -0.422 A  
HETATM   29  C   UNL     1     -12.044  14.667  64.046  1.00  0.00    -0.229 A  
HETATM   30  C   UNL     1     -11.042  14.876  64.989  1.00  0.00    -0.422 A  
HETATM   31  C   UNL     1     -10.369  13.787  65.548  1.00  0.00    -0.333 A  
ENDBRANCH  22  26
ENDBRANCH  20  22
ENDBRANCH   8  18
TORSDOF 6
ENDMDL
MODEL      151
REMARK 921   NORMALIZED FREE ENERGY PREDICTED BY IDOCK:   -3.94 KCAL/MOL
REMARK 922        TOTAL FREE ENERGY PREDICTED BY IDOCK:   -6.36 KCAL/MOL
REMARK 923 INTER-LIGAND FREE ENERGY PREDICTED BY IDOCK:   -5.63 KCAL/MOL
REMARK 924 INTRA-LIGAND FREE ENERGY PREDICTED BY IDOCK:   -0.73 KCAL/MOL
REMARK 927      BINDING AFFINITY PREDICTED BY RF-SCORE:    0.00 PKD
ROOT
HETATM    1  C   UNL     1      -9.601  11.591  67.415  1.00  0.00    -0.168 C  
HETATM    2  S   UNL     1      -9.814  11.804  65.633  1.00  0.00    -0.239 SA 
HETATM    3  C   UNL     1      -9.648  10.048  65.280  1.00  0.00    -0.291 C  
HETATM    4  C   UNL     1      -8.484   9.354  65.965  1.00  0.00    -0.132 C  
HETATM    5  OXT UNL     1      -6.072   8.195  67.032  1.00  0.00    -0.051 OA 
HETATM    6  CA  UNL     1      -7.856   9.829  67.082  1.00  0.00    -0.099 C  
HETATM    7  N   UNL     1      -8.314  10.975  67.676  1.00  0.00    -0.116 N  
HETATM    8  CA  UNL     1      -9.069  12.853  68.173  1.00  0.00    -0.207 C  
HETATM    9  C   UNL     1      -6.610   9.130  67.606  1.00  0.00    -0.064 C  
HETATM   10  O   UNL     1      -6.136   9.527  68.800  1.00  0.00    -0.043 OA 
HETATM   11  O   UNL     1      -6.899  11.896  69.261  1.00  0.00    -0.108 OA 
HETATM   12  C   UNL     1      -7.887  11.899  68.562  1.00  0.00    -0.136 C  
ENDROOT
BRANCH   4  13
HETATM   13  C   UNL     1      -8.050   8.106  65.195  1.00  0.00    -0.139 C  
BRANCH  13  14
HETATM   14  O   UNL     1      -8.773   6.948  65.666  1.00  0.00    -0.145 OA 
BRANCH  14  15
HETATM   15  C   UNL     1      -8.384   5.743  65.170  1.00  0.00    -0.146 C  
HETATM   16  C   UNL     1      -7.504   5.925  63.969  1.00  0.00    -0.078 C  
HETATM   17  O   UNL     1      -8.656   4.651  65.647  1.00  0.00    -0.119 OA 
ENDBRANCH  14  15
ENDBRANCH  13  14
ENDBRANCH   4  13
BRANCH   8  18
HETATM   18  N   UNL     1      -8.699  13.996  67.307  1.00  0.00    -0.208 N  
HETATM   19  H   UNL     1      -8.358  13.785  66.369  1.00  0.00     0.000 HD 
HETATM   20  C   UNL     1      -8.780  15.319  67.671  1.00  0.00    -0.172 C  
HETATM   21  O   UNL     1      -9.217  15.691  68.754  1.00  0.00    -0.187 OA 
BRANCH  20  22
HETATM   22  CA  UNL     1      -8.263  16.278  66.567  1.00  0.00    -0.309 C  
HETATM   23  H2  UNL     1      -6.342  15.425  66.572  1.00  0.00     0.000 HD 
HETATM   24  N   UNL     1      -6.774  16.347  66.629  1.00  0.00    -0.255 NA 
HETATM   25  H1  UNL     1      -6.434  16.978  65.904  1.00  0.00     0.000 HD 
BRANCH  22  26
HETATM   26  C   UNL     1      -8.898  17.651  66.683  1.00  0.00    -0.283 A  
HETATM   27  C   UNL     1     -10.251  17.813  66.345  1.00  0.00    -0.365 A  
HETATM   28  C   UNL     1     -10.865  19.065  66.431  1.00  0.00    -0.277 A  
HETATM   29  C   UNL     1     -10.138  20.170  66.866  1.00  0.00    -0.592 A  
HETATM   30  C   UNL     1      -8.803  20.025  67.228  1.00  0.00    -0.428 A  
HETATM   31  C   UNL     1      -8.188  18.773  67.145  1.00  0.00    -0.275 A  
ENDBRANCH  22  26
ENDBRANCH  20  22
ENDBRANCH   8  18
TORSDOF 6
ENDMDL
MODEL      152
REMARK 921   NORMALIZED FREE ENERGY PREDICTED BY IDOCK:   -3.93 KCAL/MOL
REMARK 922        TOTAL FREE ENERGY PREDICTED BY IDOCK:   -6.35 KCAL/MOL
REMARK 923 INTER-LIGAND FREE ENERGY PREDICTED BY IDOCK:   -5.36 KCAL/MOL
REMARK 924 INTRA-LIGAND FREE ENERGY PREDICTED BY IDOCK:   -0.99 KCAL/MOL
REMARK 927      BINDING AFFINITY PREDICTED BY RF-SCORE:    0.00 PKD
ROOT
HETATM    1  C   UNL     1     -11.964   8.162  70.349  1.00  0.00     0.185 C  
HETATM    2  S   UNL     1     -11.919   9.278  71.770  1.00  0.00    -0.380 SA 
HETATM    3  C   UNL     1     -12.105  10.759  70.767  1.00  0.00    -0.372 C  
HETATM    4  C   UNL     1     -11.211  10.833  69.543  1.00  0.00    -0.342 C  
HETATM    5  OXT UNL     1      -9.252  11.048  67.440  1.00  0.00    -0.151 OA 
HETATM    6  CA  UNL     1     -10.625   9.749  68.952  1.00  0.00    -0.218 C  
HETATM    7  N   UNL     1     -10.884   8.496  69.440  1.00  0.00    -0.152 N  
HETATM    8  CA  UNL     1     -11.257   6.783  70.567  1.00  0.00    -0.320 C  
HETATM    9  C   UNL     1      -9.633   9.949  67.816  1.00  0.00    -0.141 C  
HETATM   10  O   UNL     1      -9.223   8.851  67.155  1.00  0.00    -0.134 OA 
HETATM   11  O   UNL     1      -9.492   6.824  68.646  1.00  0.00    -0.134 OA 
HETATM   12  C   UNL     1     -10.367   7.252  69.364  1.00  0.00    -0.208 C  
ENDROOT
BRANCH   4  13
HETATM   13  C   UNL     1     -10.977  12.283  69.112  1.00  0.00    -0.162 C  
BRANCH  13  14
HETATM   14  O   UNL     1     -12.019  13.135  69.635  1.00  0.00    -0.310 OA 
BRANCH  14  15
HETATM   15  C   UNL     1     -11.922  14.462  69.349  1.00  0.00    -0.328 C  
HETATM   16  C   UNL     1     -11.613  14.669  67.897  1.00  0.00    -0.373 C  
HETATM   17  O   UNL     1     -12.107  15.378  70.137  1.00  0.00    -0.324 OA 
ENDBRANCH  14  15
ENDBRANCH  13  14
ENDBRANCH   4  13
BRANCH   8  18
HETATM   18  N   UNL     1     -10.547   6.640  71.859  1.00  0.00    -0.209 N  
HETATM   19  H   UNL     1     -10.654   7.390  72.542  1.00  0.00     0.000 HD 
HETATM   20  C   UNL     1      -9.754   5.573  72.208  1.00  0.00    -0.156 C  
HETATM   21  O   UNL     1      -9.589   4.595  71.486  1.00  0.00    -0.147 OA 
BRANCH  20  22
HETATM   22  CA  UNL     1      -9.099   5.742  73.603  1.00  0.00    -0.127 C  
HETATM   23  H2  UNL     1     -10.950   5.707  74.598  1.00  0.00     0.000 HD 
HETATM   24  N   UNL     1     -10.107   6.280  74.562  1.00  0.00    -0.337 NA 
HETATM   25  H1  UNL     1      -9.677   6.391  75.479  1.00  0.00     0.000 HD 
BRANCH  22  26
HETATM   26  C   UNL     1      -7.861   6.617  73.534  1.00  0.00    -0.095 A  
HETATM   27  C   UNL     1      -7.956   7.969  73.898  1.00  0.00    -0.266 A  
HETATM   28  C   UNL     1      -6.838   8.805  73.838  1.00  0.00     0.015 A  
HETATM   29  C   UNL     1      -5.609   8.299  73.423  1.00  0.00    -0.059 A  
HETATM   30  C   UNL     1      -5.491   6.955  73.080  1.00  0.00    -0.038 A  
HETATM   31  C   UNL     1      -6.607   6.118  73.142  1.00  0.00    -0.073 A  
ENDBRANCH  22  26
ENDBRANCH  20  22
ENDBRANCH   8  18
TORSDOF 6
ENDMDL
MODEL      153
REMARK 921   NORMALIZED FREE ENERGY PREDICTED BY IDOCK:   -3.92 KCAL/MOL
REMARK 922        TOTAL FREE ENERGY PREDICTED BY IDOCK:   -6.33 KCAL/MOL
REMARK 923 INTER-LIGAND FREE ENERGY PREDICTED BY IDOCK:   -5.54 KCAL/MOL
REMARK 924 INTRA-LIGAND FREE ENERGY PREDICTED BY IDOCK:   -0.80 KCAL/MOL
REMARK 927      BINDING AFFINITY PREDICTED BY RF-SCORE:    0.00 PKD
ROOT
HETATM    1  C   UNL     1     -10.594   9.113  67.878  1.00  0.00    -0.214 C  
HETATM    2  S   UNL     1     -10.638   7.525  67.016  1.00  0.00    -0.268 SA 
HETATM    3  C   UNL     1     -10.933   6.580  68.518  1.00  0.00    -0.286 C  
HETATM    4  C   UNL     1     -10.043   6.934  69.695  1.00  0.00    -0.195 C  
HETATM    5  OXT UNL     1      -8.101   7.433  71.764  1.00  0.00    -0.100 OA 
HETATM    6  CA  UNL     1      -9.375   8.119  69.825  1.00  0.00    -0.159 C  
HETATM    7  N   UNL     1      -9.540   9.091  68.874  1.00  0.00    -0.155 N  
HETATM    8  CA  UNL     1      -9.785  10.238  67.152  1.00  0.00    -0.173 C  
HETATM    9  C   UNL     1      -8.399   8.317  70.974  1.00  0.00    -0.124 C  
HETATM   10  O   UNL     1      -7.905   9.555  71.158  1.00  0.00    -0.326 OA 
HETATM   11  O   UNL     1      -8.023  10.838  68.980  1.00  0.00    -0.126 OA 
HETATM   12  C   UNL     1      -8.931  10.224  68.466  1.00  0.00    -0.134 C  
ENDROOT
BRANCH   4  13
HETATM   13  C   UNL     1      -9.918   5.762  70.670  1.00  0.00    -0.194 C  
BRANCH  13  14
HETATM   14  O   UNL     1     -11.145   5.596  71.414  1.00  0.00    -0.239 OA 
BRANCH  14  15
HETATM   15  C   UNL     1     -11.112   5.943  72.729  1.00  0.00    -0.281 C  
HETATM   16  C   UNL     1     -11.401   7.405  72.896  1.00  0.00    -0.322 C  
HETATM   17  O   UNL     1     -10.928   5.180  73.666  1.00  0.00    -0.292 OA 
ENDBRANCH  14  15
ENDBRANCH  13  14
ENDBRANCH   4  13
BRANCH   8  18
HETATM   18  N   UNL     1      -9.070   9.808  65.929  1.00  0.00    -0.157 N  
HETATM   19  H   UNL     1      -8.226   9.248  66.049  1.00  0.00     0.000 HD 
HETATM   20  C   UNL     1      -9.456  10.105  64.644  1.00  0.00    -0.297 C  
HETATM   21  O   UNL     1     -10.476  10.731  64.377  1.00  0.00    -0.365 OA 
BRANCH  20  22
HETATM   22  CA  UNL     1      -8.468   9.563  63.578  1.00  0.00    -0.197 C  
HETATM   23  H2  UNL     1      -9.895   9.671  62.040  1.00  0.00     0.000 HD 
HETATM   24  N   UNL     1      -9.236   8.998  62.431  1.00  0.00    -0.550 NA 
HETATM   25  H1  UNL     1      -8.587   8.642  61.731  1.00  0.00     0.000 HD 
BRANCH  22  26
HETATM   26  C   UNL     1      -7.511   8.547  64.173  1.00  0.00    -0.112 A  
HETATM   27  C   UNL     1      -7.914   7.206  64.280  1.00  0.00    -0.088 A  
HETATM   28  C   UNL     1      -7.061   6.245  64.830  1.00  0.00    -0.060 A  
HETATM   29  C   UNL     1      -5.792   6.610  65.273  1.00  0.00    -0.030 A  
HETATM   30  C   UNL     1      -5.367   7.930  65.154  1.00  0.00    -0.029 A  
HETATM   31  C   UNL     1      -6.217   8.890  64.601  1.00  0.00    -0.066 A  
ENDBRANCH  22  26
ENDBRANCH  20  22
ENDBRANCH   8  18
TORSDOF 6
ENDMDL
MODEL      154
REMARK 921   NORMALIZED FREE ENERGY PREDICTED BY IDOCK:   -3.92 KCAL/MOL
REMARK 922        TOTAL FREE ENERGY PREDICTED BY IDOCK:   -6.33 KCAL/MOL
REMARK 923 INTER-LIGAND FREE ENERGY PREDICTED BY IDOCK:   -5.57 KCAL/MOL
REMARK 924 INTRA-LIGAND FREE ENERGY PREDICTED BY IDOCK:   -0.76 KCAL/MOL
REMARK 927      BINDING AFFINITY PREDICTED BY RF-SCORE:    0.00 PKD
ROOT
HETATM    1  C   UNL     1      -7.121  11.627  67.607  1.00  0.00    -0.095 C  
HETATM    2  S   UNL     1      -6.944  11.830  69.394  1.00  0.00     0.038 SA 
HETATM    3  C   UNL     1      -7.057  10.067  69.729  1.00  0.00    -0.119 C  
HETATM    4  C   UNL     1      -8.185   9.340  69.020  1.00  0.00    -0.111 C  
HETATM    5  OXT UNL     1     -10.540   8.110  67.905  1.00  0.00    -0.212 OA 
HETATM    6  CA  UNL     1      -8.812   9.804  67.897  1.00  0.00    -0.122 C  
HETATM    7  N   UNL     1      -8.383  10.970  67.320  1.00  0.00    -0.122 N  
HETATM    8  CA  UNL     1      -7.683  12.876  66.851  1.00  0.00     0.171 C  
HETATM    9  C   UNL     1     -10.024   9.068  67.347  1.00  0.00    -0.209 C  
HETATM   10  O   UNL     1     -10.493   9.460  66.149  1.00  0.00    -0.162 OA 
HETATM   11  O   UNL     1      -9.802  11.857  65.720  1.00  0.00    -0.230 OA 
HETATM   12  C   UNL     1      -8.826  11.887  66.435  1.00  0.00    -0.152 C  
ENDROOT
BRANCH   4  13
HETATM   13  C   UNL     1      -8.590   8.072  69.773  1.00  0.00    -0.131 C  
BRANCH  13  14
HETATM   14  O   UNL     1      -8.720   8.348  71.185  1.00  0.00    -0.133 OA 
BRANCH  14  15
HETATM   15  C   UNL     1      -9.982   8.546  71.653  1.00  0.00    -0.259 C  
HETATM   16  C   UNL     1     -10.170   7.857  72.972  1.00  0.00    -0.394 C  
HETATM   17  O   UNL     1     -10.844   9.230  71.120  1.00  0.00    -0.280 OA 
ENDBRANCH  14  15
ENDBRANCH  13  14
ENDBRANCH   4  13
BRANCH   8  18
HETATM   18  N   UNL     1      -8.105  13.998  67.720  1.00  0.00    -0.152 N  
HETATM   19  H   UNL     1      -9.057  13.980  68.085  1.00  0.00     0.000 HD 
HETATM   20  C   UNL     1      -7.312  15.064  68.072  1.00  0.00    -0.127 C  
HETATM   21  O   UNL     1      -6.139  15.169  67.730  1.00  0.00    -0.147 OA 
BRANCH  20  22
HETATM   22  CA  UNL     1      -8.058  16.107  68.944  1.00  0.00    -0.228 C  
HETATM   23  H2  UNL     1      -8.786  14.644  70.266  1.00  0.00     0.000 HD 
HETATM   24  N   UNL     1      -9.139  15.426  69.714  1.00  0.00    -0.394 NA 
HETATM   25  H1  UNL     1      -9.630  16.112  70.287  1.00  0.00     0.000 HD 
BRANCH  22  26
HETATM   26  C   UNL     1      -8.597  17.250  68.103  1.00  0.00    -0.242 A  
HETATM   27  C   UNL     1      -7.741  17.902  67.201  1.00  0.00    -0.227 A  
HETATM   28  C   UNL     1      -8.202  18.963  66.418  1.00  0.00    -0.306 A  
HETATM   29  C   UNL     1      -9.526  19.381  66.519  1.00  0.00    -0.427 A  
HETATM   30  C   UNL     1     -10.395  18.732  67.391  1.00  0.00    -0.472 A  
HETATM   31  C   UNL     1      -9.937  17.669  68.172  1.00  0.00    -0.330 A  
ENDBRANCH  22  26
ENDBRANCH  20  22
ENDBRANCH   8  18
TORSDOF 6
ENDMDL
MODEL      155
REMARK 921   NORMALIZED FREE ENERGY PREDICTED BY IDOCK:   -3.92 KCAL/MOL
REMARK 922        TOTAL FREE ENERGY PREDICTED BY IDOCK:   -6.33 KCAL/MOL
REMARK 923 INTER-LIGAND FREE ENERGY PREDICTED BY IDOCK:   -5.67 KCAL/MOL
REMARK 924 INTRA-LIGAND FREE ENERGY PREDICTED BY IDOCK:   -0.66 KCAL/MOL
REMARK 927      BINDING AFFINITY PREDICTED BY RF-SCORE:    0.00 PKD
ROOT
HETATM    1  C   UNL     1     -11.139   8.848  68.053  1.00  0.00     0.268 C  
HETATM    2  S   UNL     1     -10.898   9.462  69.736  1.00  0.00    -0.216 SA 
HETATM    3  C   UNL     1     -11.868  10.952  69.461  1.00  0.00    -0.332 C  
HETATM    4  C   UNL     1     -11.556  11.705  68.180  1.00  0.00    -0.389 C  
HETATM    5  OXT UNL     1     -10.674  13.245  65.911  1.00  0.00    -0.271 OA 
HETATM    6  CA  UNL     1     -10.942  11.151  67.093  1.00  0.00    -0.291 C  
HETATM    7  N   UNL     1     -10.622   9.819  67.107  1.00  0.00    -0.248 N  
HETATM    8  CA  UNL     1     -10.032   7.868  67.541  1.00  0.00    -0.192 C  
HETATM    9  C   UNL     1     -10.549  12.029  65.915  1.00  0.00    -0.265 C  
HETATM   10  O   UNL     1     -10.111  11.411  64.803  1.00  0.00    -0.245 OA 
HETATM   11  O   UNL     1      -9.202   9.129  65.414  1.00  0.00    -0.219 OA 
HETATM   12  C   UNL     1      -9.832   8.959  66.432  1.00  0.00    -0.283 C  
ENDROOT
BRANCH   4  13
HETATM   13  C   UNL     1     -11.934  13.183  68.299  1.00  0.00    -0.291 C  
BRANCH  13  14
HETATM   14  O   UNL     1     -11.477  13.717  69.560  1.00  0.00    -0.267 OA 
BRANCH  14  15
HETATM   15  C   UNL     1     -11.674  15.048  69.766  1.00  0.00    -0.307 C  
HETATM   16  C   UNL     1     -11.818  15.341  71.230  1.00  0.00    -0.416 C  
HETATM   17  O   UNL     1     -11.685  15.912  68.901  1.00  0.00    -0.390 OA 
ENDBRANCH  14  15
ENDBRANCH  13  14
ENDBRANCH   4  13
BRANCH   8  18
HETATM   18  N   UNL     1      -8.884   7.684  68.459  1.00  0.00    -0.131 N  
HETATM   19  H   UNL     1      -8.157   8.399  68.455  1.00  0.00     0.000 HD 
HETATM   20  C   UNL     1      -8.723   6.621  69.316  1.00  0.00    -0.131 C  
HETATM   21  O   UNL     1      -9.553   5.726  69.439  1.00  0.00    -0.133 OA 
BRANCH  20  22
HETATM   22  CA  UNL     1      -7.389   6.681  70.104  1.00  0.00    -0.085 C  
HETATM   23  H2  UNL     1      -6.390   5.455  68.719  1.00  0.00     0.000 HD 
HETATM   24  N   UNL     1      -6.539   5.514  69.726  1.00  0.00    -0.048 NA 
HETATM   25  H1  UNL     1      -5.661   5.553  70.244  1.00  0.00     0.000 HD 
BRANCH  22  26
HETATM   26  C   UNL     1      -7.629   6.744  71.601  1.00  0.00    -0.088 A  
HETATM   27  C   UNL     1      -7.519   7.978  72.262  1.00  0.00    -0.117 A  
HETATM   28  C   UNL     1      -7.726   8.070  73.641  1.00  0.00    -0.223 A  
HETATM   29  C   UNL     1      -8.054   6.933  74.375  1.00  0.00    -0.150 A  
HETATM   30  C   UNL     1      -8.191   5.707  73.733  1.00  0.00    -0.111 A  
HETATM   31  C   UNL     1      -7.987   5.613  72.354  1.00  0.00    -0.103 A  
ENDBRANCH  22  26
ENDBRANCH  20  22
ENDBRANCH   8  18
TORSDOF 6
ENDMDL
MODEL      156
REMARK 921   NORMALIZED FREE ENERGY PREDICTED BY IDOCK:   -3.91 KCAL/MOL
REMARK 922        TOTAL FREE ENERGY PREDICTED BY IDOCK:   -6.32 KCAL/MOL
REMARK 923 INTER-LIGAND FREE ENERGY PREDICTED BY IDOCK:   -5.28 KCAL/MOL
REMARK 924 INTRA-LIGAND FREE ENERGY PREDICTED BY IDOCK:   -1.04 KCAL/MOL
REMARK 927      BINDING AFFINITY PREDICTED BY RF-SCORE:    0.00 PKD
ROOT
HETATM    1  C   UNL     1      -9.963   9.201  68.862  1.00  0.00    -0.180 C  
HETATM    2  S   UNL     1      -8.309   9.785  69.297  1.00  0.00    -0.156 SA 
HETATM    3  C   UNL     1      -7.738   9.817  67.592  1.00  0.00    -0.094 C  
HETATM    4  C   UNL     1      -8.063   8.580  66.774  1.00  0.00    -0.098 C  
HETATM    5  OXT UNL     1      -8.423   6.074  65.398  1.00  0.00    -0.147 OA 
HETATM    6  CA  UNL     1      -9.053   7.692  67.084  1.00  0.00    -0.127 C  
HETATM    7  N   UNL     1      -9.857   7.931  68.167  1.00  0.00    -0.163 N  
HETATM    8  CA  UNL     1     -10.715   8.433  69.999  1.00  0.00    -0.236 C  
HETATM    9  C   UNL     1      -9.203   6.411  66.277  1.00  0.00    -0.139 C  
HETATM   10  O   UNL     1     -10.295   5.660  66.507  1.00  0.00    -0.217 OA 
HETATM   11  O   UNL     1     -11.173   6.145  68.831  1.00  0.00    -0.372 OA 
HETATM   12  C   UNL     1     -10.720   7.260  68.958  1.00  0.00    -0.166 C  
ENDROOT
BRANCH   4  13
HETATM   13  C   UNL     1      -7.082   8.409  65.613  1.00  0.00    -0.075 C  
BRANCH  13  14
HETATM   14  O   UNL     1      -7.296   9.435  64.620  1.00  0.00    -0.098 OA 
BRANCH  14  15
HETATM   15  C   UNL     1      -8.216   9.166  63.654  1.00  0.00    -0.174 C  
HETATM   16  C   UNL     1      -9.368  10.121  63.741  1.00  0.00    -0.336 C  
HETATM   17  O   UNL     1      -8.117   8.306  62.791  1.00  0.00    -0.160 OA 
ENDBRANCH  14  15
ENDBRANCH  13  14
ENDBRANCH   4  13
BRANCH   8  18
HETATM   18  N   UNL     1      -9.918   8.187  71.223  1.00  0.00    -0.177 N  
HETATM   19  H   UNL     1      -8.941   7.920  71.104  1.00  0.00     0.000 HD 
HETATM   20  C   UNL     1     -10.395   8.291  72.508  1.00  0.00    -0.331 C  
HETATM   21  O   UNL     1     -11.538   8.648  72.772  1.00  0.00    -0.235 OA 
BRANCH  20  22
HETATM   22  CA  UNL     1      -9.336   7.912  73.575  1.00  0.00    -0.268 C  
HETATM   23  H2  UNL     1      -8.037   9.460  72.994  1.00  0.00     0.000 HD 
HETATM   24  N   UNL     1      -8.007   8.455  73.168  1.00  0.00    -0.348 NA 
HETATM   25  H1  UNL     1      -7.310   8.206  73.870  1.00  0.00     0.000 HD 
BRANCH  22  26
HETATM   26  C   UNL     1      -9.288   6.413  73.803  1.00  0.00    -0.153 A  
HETATM   27  C   UNL     1      -8.085   5.819  74.218  1.00  0.00    -0.104 A  
HETATM   28  C   UNL     1      -8.003   4.441  74.429  1.00  0.00    -0.088 A  
HETATM   29  C   UNL     1      -9.125   3.638  74.238  1.00  0.00    -0.096 A  
HETATM   30  C   UNL     1     -10.332   4.211  73.849  1.00  0.00    -0.248 A  
HETATM   31  C   UNL     1     -10.416   5.590  73.641  1.00  0.00    -0.292 A  
ENDBRANCH  22  26
ENDBRANCH  20  22
ENDBRANCH   8  18
TORSDOF 6
ENDMDL
MODEL      157
REMARK 921   NORMALIZED FREE ENERGY PREDICTED BY IDOCK:   -3.91 KCAL/MOL
REMARK 922        TOTAL FREE ENERGY PREDICTED BY IDOCK:   -6.31 KCAL/MOL
REMARK 923 INTER-LIGAND FREE ENERGY PREDICTED BY IDOCK:   -5.90 KCAL/MOL
REMARK 924 INTRA-LIGAND FREE ENERGY PREDICTED BY IDOCK:   -0.41 KCAL/MOL
REMARK 927      BINDING AFFINITY PREDICTED BY RF-SCORE:    0.00 PKD
ROOT
HETATM    1  C   UNL     1      -8.817  13.092  68.450  1.00  0.00    -0.123 C  
HETATM    2  S   UNL     1      -8.568  14.115  66.982  1.00  0.00    -0.140 SA 
HETATM    3  C   UNL     1      -9.001  15.644  67.825  1.00  0.00    -0.176 C  
HETATM    4  C   UNL     1     -10.259  15.587  68.672  1.00  0.00    -0.216 C  
HETATM    5  OXT UNL     1     -12.825  15.488  69.979  1.00  0.00    -0.235 OA 
HETATM    6  CA  UNL     1     -10.811  14.432  69.150  1.00  0.00    -0.257 C  
HETATM    7  N   UNL     1     -10.184  13.237  68.912  1.00  0.00    -0.094 N  
HETATM    8  CA  UNL     1      -9.152  11.591  68.162  1.00  0.00    -0.181 C  
HETATM    9  C   UNL     1     -12.151  14.474  69.870  1.00  0.00    -0.336 C  
HETATM   10  O   UNL     1     -12.563  13.344  70.474  1.00  0.00    -0.286 OA 
HETATM   11  O   UNL     1     -11.446  11.353  69.381  1.00  0.00    -0.257 OA 
HETATM   12  C   UNL     1     -10.468  11.919  68.949  1.00  0.00    -0.136 C  
ENDROOT
BRANCH   4  13
HETATM   13  C   UNL     1     -10.878  16.975  68.843  1.00  0.00    -0.228 C  
BRANCH  13  14
HETATM   14  O   UNL     1     -10.862  17.689  67.588  1.00  0.00    -0.350 OA 
BRANCH  14  15
HETATM   15  C   UNL     1     -10.278  18.918  67.592  1.00  0.00    -0.394 C  
HETATM   16  C   UNL     1      -9.965  19.348  68.994  1.00  0.00    -0.477 C  
HETATM   17  O   UNL     1      -9.989  19.577  66.604  1.00  0.00    -0.344 OA 
ENDBRANCH  14  15
ENDBRANCH  13  14
ENDBRANCH   4  13
BRANCH   8  18
HETATM   18  N   UNL     1      -9.339  11.253  66.732  1.00  0.00    -0.174 N  
HETATM   19  H   UNL     1     -10.289  11.279  66.362  1.00  0.00     0.000 HD 
HETATM   20  C   UNL     1      -8.330  10.906  65.865  1.00  0.00    -0.149 C  
HETATM   21  O   UNL     1      -7.147  10.885  66.187  1.00  0.00    -0.135 OA 
BRANCH  20  22
HETATM   22  CA  UNL     1      -8.851  10.549  64.449  1.00  0.00    -0.197 C  
HETATM   23  H2  UNL     1     -10.522  11.812  64.625  1.00  0.00     0.000 HD 
HETATM   24  N   UNL     1     -10.310  10.848  64.368  1.00  0.00    -0.357 NA 
HETATM   25  H1  UNL     1     -10.652  10.614  63.436  1.00  0.00     0.000 HD 
BRANCH  22  26
HETATM   26  C   UNL     1      -8.549   9.106  64.093  1.00  0.00    -0.191 A  
HETATM   27  C   UNL     1      -8.584   8.709  62.746  1.00  0.00    -0.091 A  
HETATM   28  C   UNL     1      -8.320   7.386  62.384  1.00  0.00    -0.021 A  
HETATM   29  C   UNL     1      -8.006   6.444  63.361  1.00  0.00    -0.086 A  
HETATM   30  C   UNL     1      -7.943   6.824  64.698  1.00  0.00    -0.117 A  
HETATM   31  C   UNL     1      -8.205   8.147  65.061  1.00  0.00    -0.157 A  
ENDBRANCH  22  26
ENDBRANCH  20  22
ENDBRANCH   8  18
TORSDOF 6
ENDMDL
MODEL      158
REMARK 921   NORMALIZED FREE ENERGY PREDICTED BY IDOCK:   -3.90 KCAL/MOL
REMARK 922        TOTAL FREE ENERGY PREDICTED BY IDOCK:   -6.30 KCAL/MOL
REMARK 923 INTER-LIGAND FREE ENERGY PREDICTED BY IDOCK:   -6.49 KCAL/MOL
REMARK 924 INTRA-LIGAND FREE ENERGY PREDICTED BY IDOCK:    0.19 KCAL/MOL
REMARK 927      BINDING AFFINITY PREDICTED BY RF-SCORE:    0.00 PKD
ROOT
HETATM    1  C   UNL     1      -9.029   6.944  72.432  1.00  0.00    -0.133 C  
HETATM    2  S   UNL     1     -10.412   6.511  73.510  1.00  0.00    -0.308 SA 
HETATM    3  C   UNL     1     -10.085   4.744  73.424  1.00  0.00    -0.161 C  
HETATM    4  C   UNL     1      -9.831   4.196  72.031  1.00  0.00    -0.242 C  
HETATM    5  OXT UNL     1      -9.692   3.186  69.337  1.00  0.00    -0.093 OA 
HETATM    6  CA  UNL     1      -9.437   4.957  70.967  1.00  0.00    -0.164 C  
HETATM    7  N   UNL     1      -9.198   6.294  71.146  1.00  0.00    -0.153 N  
HETATM    8  CA  UNL     1      -9.178   8.308  71.679  1.00  0.00    -0.185 C  
HETATM    9  C   UNL     1      -9.347   4.333  69.582  1.00  0.00    -0.165 C  
HETATM   10  O   UNL     1      -8.789   5.073  68.607  1.00  0.00    -0.096 OA 
HETATM   11  O   UNL     1      -8.984   7.526  69.198  1.00  0.00    -0.136 OA 
HETATM   12  C   UNL     1      -9.064   7.409  70.399  1.00  0.00    -0.157 C  
ENDROOT
BRANCH   4  13
HETATM   13  C   UNL     1     -10.159   2.704  71.953  1.00  0.00    -0.084 C  
BRANCH  13  14
HETATM   14  O   UNL     1      -9.254   1.948  72.787  1.00  0.00    -0.072 OA 
BRANCH  14  15
HETATM   15  C   UNL     1      -7.953   1.903  72.391  1.00  0.00    -0.052 C  
HETATM   16  C   UNL     1      -7.045   2.283  73.522  1.00  0.00    -0.032 C  
HETATM   17  O   UNL     1      -7.551   1.555  71.291  1.00  0.00    -0.032 OA 
ENDBRANCH  14  15
ENDBRANCH  13  14
ENDBRANCH   4  13
BRANCH   8  18
HETATM   18  N   UNL     1     -10.482   8.986  71.861  1.00  0.00    -0.345 N  
HETATM   19  H   UNL     1     -10.624   9.510  72.724  1.00  0.00     0.000 HD 
HETATM   20  C   UNL     1     -11.515   8.963  70.955  1.00  0.00    -0.288 C  
HETATM   21  O   UNL     1     -11.440   8.404  69.866  1.00  0.00    -0.026 OA 
BRANCH  20  22
HETATM   22  CA  UNL     1     -12.773   9.717  71.459  1.00  0.00    -0.406 C  
HETATM   23  H2  UNL     1     -14.042   8.090  71.060  1.00  0.00     0.000 HD 
HETATM   24  N   UNL     1     -13.993   9.091  70.872  1.00  0.00    -0.534 NA 
HETATM   25  H1  UNL     1     -14.821   9.587  71.203  1.00  0.00     0.000 HD 
BRANCH  22  26
HETATM   26  C   UNL     1     -12.694  11.200  71.149  1.00  0.00    -0.510 A  
HETATM   27  C   UNL     1     -13.211  12.123  72.071  1.00  0.00    -0.496 A  
HETATM   28  C   UNL     1     -13.162  13.495  71.814  1.00  0.00    -0.490 A  
HETATM   29  C   UNL     1     -12.587  13.964  70.635  1.00  0.00    -0.405 A  
HETATM   30  C   UNL     1     -12.048  13.066  69.720  1.00  0.00    -0.325 A  
HETATM   31  C   UNL     1     -12.093  11.693  69.977  1.00  0.00    -0.395 A  
ENDBRANCH  22  26
ENDBRANCH  20  22
ENDBRANCH   8  18
TORSDOF 6
ENDMDL
MODEL      159
REMARK 921   NORMALIZED FREE ENERGY PREDICTED BY IDOCK:   -3.89 KCAL/MOL
REMARK 922        TOTAL FREE ENERGY PREDICTED BY IDOCK:   -6.29 KCAL/MOL
REMARK 923 INTER-LIGAND FREE ENERGY PREDICTED BY IDOCK:   -5.11 KCAL/MOL
REMARK 924 INTRA-LIGAND FREE ENERGY PREDICTED BY IDOCK:   -1.18 KCAL/MOL
REMARK 927      BINDING AFFINITY PREDICTED BY RF-SCORE:    0.00 PKD
ROOT
HETATM    1  C   UNL     1     -11.072   8.571  69.888  1.00  0.00    -0.112 C  
HETATM    2  S   UNL     1      -9.712   9.565  70.545  1.00  0.00    -0.225 SA 
HETATM    3  C   UNL     1      -9.366  10.355  68.966  1.00  0.00    -0.194 C  
HETATM    4  C   UNL     1      -9.295   9.420  67.772  1.00  0.00    -0.144 C  
HETATM    5  OXT UNL     1      -8.849   7.549  65.627  1.00  0.00    -0.134 OA 
HETATM    6  CA  UNL     1      -9.856   8.174  67.737  1.00  0.00    -0.166 C  
HETATM    7  N   UNL     1     -10.579   7.731  68.813  1.00  0.00    -0.178 N  
HETATM    8  CA  UNL     1     -11.372   7.255  70.680  1.00  0.00    -0.284 C  
HETATM    9  C   UNL     1      -9.606   7.264  66.544  1.00  0.00    -0.149 C  
HETATM   10  O   UNL     1     -10.318   6.125  66.477  1.00  0.00    -0.181 OA 
HETATM   11  O   UNL     1     -11.076   5.469  68.801  1.00  0.00    -0.061 OA 
HETATM   12  C   UNL     1     -11.051   6.568  69.308  1.00  0.00    -0.334 C  
ENDROOT
BRANCH   4  13
HETATM   13  C   UNL     1      -8.441  10.014  66.651  1.00  0.00    -0.125 C  
BRANCH  13  14
HETATM   14  O   UNL     1      -8.994  11.275  66.214  1.00  0.00    -0.187 OA 
BRANCH  14  15
HETATM   15  C   UNL     1     -10.155  11.220  65.507  1.00  0.00    -0.257 C  
HETATM   16  C   UNL     1      -9.951  10.491  64.213  1.00  0.00    -0.398 C  
HETATM   17  O   UNL     1     -11.239  11.650  65.876  1.00  0.00    -0.305 OA 
ENDBRANCH  14  15
ENDBRANCH  13  14
ENDBRANCH   4  13
BRANCH   8  18
HETATM   18  N   UNL     1     -10.423   6.951  71.775  1.00  0.00    -0.203 N  
HETATM   19  H   UNL     1      -9.554   7.485  71.808  1.00  0.00     0.000 HD 
HETATM   20  C   UNL     1     -10.622   6.004  72.751  1.00  0.00    -0.225 C  
HETATM   21  O   UNL     1     -11.647   5.335  72.838  1.00  0.00    -0.310 OA 
BRANCH  20  22
HETATM   22  CA  UNL     1      -9.419   5.878  73.722  1.00  0.00    -0.141 C  
HETATM   23  H2  UNL     1     -10.203   7.304  75.052  1.00  0.00     0.000 HD 
HETATM   24  N   UNL     1      -9.330   7.107  74.562  1.00  0.00    -0.429 NA 
HETATM   25  H1  UNL     1      -8.539   7.025  75.200  1.00  0.00     0.000 HD 
BRANCH  22  26
HETATM   26  C   UNL     1      -8.127   5.610  72.973  1.00  0.00    -0.118 A  
HETATM   27  C   UNL     1      -7.055   6.507  73.111  1.00  0.00    -0.078 A  
HETATM   28  C   UNL     1      -5.854   6.295  72.430  1.00  0.00    -0.038 A  
HETATM   29  C   UNL     1      -5.704   5.179  71.610  1.00  0.00    -0.012 A  
HETATM   30  C   UNL     1      -6.747   4.267  71.480  1.00  0.00    -0.027 A  
HETATM   31  C   UNL     1      -7.948   4.476  72.163  1.00  0.00    -0.100 A  
ENDBRANCH  22  26
ENDBRANCH  20  22
ENDBRANCH   8  18
TORSDOF 6
ENDMDL
MODEL      160
REMARK 921   NORMALIZED FREE ENERGY PREDICTED BY IDOCK:   -3.86 KCAL/MOL
REMARK 922        TOTAL FREE ENERGY PREDICTED BY IDOCK:   -6.25 KCAL/MOL
REMARK 923 INTER-LIGAND FREE ENERGY PREDICTED BY IDOCK:   -6.67 KCAL/MOL
REMARK 924 INTRA-LIGAND FREE ENERGY PREDICTED BY IDOCK:    0.42 KCAL/MOL
REMARK 927      BINDING AFFINITY PREDICTED BY RF-SCORE:    0.00 PKD
ROOT
HETATM    1  C   UNL     1      -7.929   6.485  67.283  1.00  0.00    -0.113 C  
HETATM    2  S   UNL     1      -6.803   7.818  67.754  1.00  0.00    -0.070 SA 
HETATM    3  C   UNL     1      -6.710   7.297  69.473  1.00  0.00    -0.045 C  
HETATM    4  C   UNL     1      -8.042   6.978  70.129  1.00  0.00    -0.130 C  
HETATM    5  OXT UNL     1     -10.619   6.716  71.388  1.00  0.00    -0.219 OA 
HETATM    6  CA  UNL     1      -9.181   6.666  69.443  1.00  0.00    -0.142 C  
HETATM    7  N   UNL     1      -9.141   6.576  68.076  1.00  0.00    -0.115 N  
HETATM    8  CA  UNL     1      -8.817   6.781  66.028  1.00  0.00    -0.135 C  
HETATM    9  C   UNL     1     -10.495   6.501  70.191  1.00  0.00    -0.214 C  
HETATM   10  O   UNL     1     -11.545   6.023  69.499  1.00  0.00    -0.303 OA 
HETATM   11  O   UNL     1     -11.207   6.491  67.034  1.00  0.00    -0.397 OA 
HETATM   12  C   UNL     1      -9.999   6.563  67.036  1.00  0.00    -0.166 C  
ENDROOT
BRANCH   4  13
HETATM   13  C   UNL     1      -7.965   7.139  71.648  1.00  0.00    -0.097 C  
BRANCH  13  14
HETATM   14  O   UNL     1      -6.771   7.864  72.016  1.00  0.00    -0.054 OA 
BRANCH  14  15
HETATM   15  C   UNL     1      -6.791   8.503  73.217  1.00  0.00    -0.032 C  
HETATM   16  C   UNL     1      -7.993   8.092  74.014  1.00  0.00    -0.285 C  
HETATM   17  O   UNL     1      -5.936   9.270  73.634  1.00  0.00    -0.303 OA 
ENDBRANCH  14  15
ENDBRANCH  13  14
ENDBRANCH   4  13
BRANCH   8  18
HETATM   18  N   UNL     1      -8.697   8.152  65.483  1.00  0.00    -0.273 N  
HETATM   19  H   UNL     1      -7.957   8.326  64.802  1.00  0.00     0.000 HD 
HETATM   20  C   UNL     1      -9.505   9.210  65.825  1.00  0.00    -0.254 C  
HETATM   21  O   UNL     1     -10.452   9.108  66.597  1.00  0.00    -0.243 OA 
BRANCH  20  22
HETATM   22  CA  UNL     1      -9.090  10.533  65.130  1.00  0.00    -0.197 C  
HETATM   23  H2  UNL     1      -7.252  10.618  66.146  1.00  0.00     0.000 HD 
HETATM   24  N   UNL     1      -8.053  11.220  65.953  1.00  0.00    -0.360 NA 
HETATM   25  H1  UNL     1      -7.780  12.090  65.496  1.00  0.00     0.000 HD 
BRANCH  22  26
HETATM   26  C   UNL     1     -10.290  11.425  64.872  1.00  0.00    -0.347 A  
HETATM   27  C   UNL     1     -10.921  11.383  63.619  1.00  0.00    -0.443 A  
HETATM   28  C   UNL     1     -12.022  12.197  63.345  1.00  0.00    -0.578 A  
HETATM   29  C   UNL     1     -12.515  13.058  64.323  1.00  0.00    -0.385 A  
HETATM   30  C   UNL     1     -11.917  13.096  65.579  1.00  0.00    -0.457 A  
HETATM   31  C   UNL     1     -10.817  12.281  65.855  1.00  0.00    -0.306 A  
ENDBRANCH  22  26
ENDBRANCH  20  22
ENDBRANCH   8  18
TORSDOF 6
ENDMDL
MODEL      161
REMARK 921   NORMALIZED FREE ENERGY PREDICTED BY IDOCK:   -3.85 KCAL/MOL
REMARK 922        TOTAL FREE ENERGY PREDICTED BY IDOCK:   -6.23 KCAL/MOL
REMARK 923 INTER-LIGAND FREE ENERGY PREDICTED BY IDOCK:   -5.47 KCAL/MOL
REMARK 924 INTRA-LIGAND FREE ENERGY PREDICTED BY IDOCK:   -0.76 KCAL/MOL
REMARK 927      BINDING AFFINITY PREDICTED BY RF-SCORE:    0.00 PKD
ROOT
HETATM    1  C   UNL     1      -8.208   9.691  69.284  1.00  0.00    -0.123 C  
HETATM    2  S   UNL     1      -8.176  10.412  67.627  1.00  0.00    -0.110 SA 
HETATM    3  C   UNL     1      -9.163  11.841  68.097  1.00  0.00    -0.186 C  
HETATM    4  C   UNL     1     -10.405  11.534  68.915  1.00  0.00    -0.191 C  
HETATM    5  OXT UNL     1     -12.903  10.838  70.170  1.00  0.00    -0.265 OA 
HETATM    6  CA  UNL     1     -10.587  10.385  69.632  1.00  0.00    -0.253 C  
HETATM    7  N   UNL     1      -9.583   9.454  69.680  1.00  0.00    -0.176 N  
HETATM    8  CA  UNL     1      -8.003   8.141  69.336  1.00  0.00    -0.114 C  
HETATM    9  C   UNL     1     -11.926  10.115  70.303  1.00  0.00    -0.233 C  
HETATM   10  O   UNL     1     -11.997   9.064  71.138  1.00  0.00    -0.287 OA 
HETATM   11  O   UNL     1     -10.193   7.392  70.540  1.00  0.00    -0.192 OA 
HETATM   12  C   UNL     1      -9.419   8.156  70.008  1.00  0.00    -0.167 C  
ENDROOT
BRANCH   4  13
HETATM   13  C   UNL     1     -11.458  12.631  68.759  1.00  0.00    -0.306 C  
BRANCH  13  14
HETATM   14  O   UNL     1     -12.038  12.585  67.437  1.00  0.00    -0.466 OA 
BRANCH  14  15
HETATM   15  C   UNL     1     -12.074  13.757  66.746  1.00  0.00    -0.418 C  
HETATM   16  C   UNL     1     -12.919  13.618  65.515  1.00  0.00    -0.325 C  
HETATM   17  O   UNL     1     -11.543  14.805  67.085  1.00  0.00    -0.370 OA 
ENDBRANCH  14  15
ENDBRANCH  13  14
ENDBRANCH   4  13
BRANCH   8  18
HETATM   18  N   UNL     1      -7.937   7.472  68.017  1.00  0.00    -0.121 N  
HETATM   19  H   UNL     1      -7.716   8.050  67.205  1.00  0.00     0.000 HD 
HETATM   20  C   UNL     1      -8.150   6.132  67.801  1.00  0.00    -0.113 C  
HETATM   21  O   UNL     1      -8.377   5.334  68.704  1.00  0.00    -0.090 OA 
BRANCH  20  22
HETATM   22  CA  UNL     1      -8.070   5.744  66.301  1.00  0.00    -0.107 C  
HETATM   23  H2  UNL     1      -9.423   7.248  65.728  1.00  0.00     0.000 HD 
HETATM   24  N   UNL     1      -9.285   6.246  65.595  1.00  0.00    -0.373 NA 
HETATM   25  H1  UNL     1      -9.233   5.991  64.609  1.00  0.00     0.000 HD 
BRANCH  22  26
HETATM   26  C   UNL     1      -7.890   4.248  66.122  1.00  0.00    -0.095 A  
HETATM   27  C   UNL     1      -8.987   3.468  65.722  1.00  0.00    -0.140 A  
HETATM   28  C   UNL     1      -8.858   2.086  65.556  1.00  0.00    -0.121 A  
HETATM   29  C   UNL     1      -7.629   1.468  65.778  1.00  0.00    -0.065 A  
HETATM   30  C   UNL     1      -6.526   2.229  66.152  1.00  0.00    -0.024 A  
HETATM   31  C   UNL     1      -6.653   3.611  66.316  1.00  0.00    -0.037 A  
ENDBRANCH  22  26
ENDBRANCH  20  22
ENDBRANCH   8  18
TORSDOF 6
ENDMDL
MODEL      162
REMARK 921   NORMALIZED FREE ENERGY PREDICTED BY IDOCK:   -3.80 KCAL/MOL
REMARK 922        TOTAL FREE ENERGY PREDICTED BY IDOCK:   -6.17 KCAL/MOL
REMARK 923 INTER-LIGAND FREE ENERGY PREDICTED BY IDOCK:   -5.41 KCAL/MOL
REMARK 924 INTRA-LIGAND FREE ENERGY PREDICTED BY IDOCK:   -0.76 KCAL/MOL
REMARK 927      BINDING AFFINITY PREDICTED BY RF-SCORE:    0.00 PKD
ROOT
HETATM    1  C   UNL     1      -8.565  10.242  66.572  1.00  0.00    -0.132 C  
HETATM    2  S   UNL     1     -10.365  10.096  66.515  1.00  0.00    -0.170 SA 
HETATM    3  C   UNL     1     -10.612  11.819  66.059  1.00  0.00    -0.260 C  
HETATM    4  C   UNL     1      -9.822  12.828  66.873  1.00  0.00    -0.236 C  
HETATM    5  OXT UNL     1      -8.553  14.683  68.675  1.00  0.00    -0.165 OA 
HETATM    6  CA  UNL     1      -8.697  12.526  67.588  1.00  0.00    -0.177 C  
HETATM    7  N   UNL     1      -8.195  11.252  67.546  1.00  0.00    -0.121 N  
HETATM    8  CA  UNL     1      -7.845   9.199  67.490  1.00  0.00    -0.100 C  
HETATM    9  C   UNL     1      -8.063  13.580  68.483  1.00  0.00    -0.108 C  
HETATM   10  O   UNL     1      -6.866  13.291  69.024  1.00  0.00    -0.105 OA 
HETATM   11  O   UNL     1      -6.579  10.779  69.136  1.00  0.00    -0.053 OA 
HETATM   12  C   UNL     1      -7.336  10.478  68.241  1.00  0.00    -0.088 C  
ENDROOT
BRANCH   4  13
HETATM   13  C   UNL     1     -10.497  14.200  66.864  1.00  0.00    -0.272 C  
BRANCH  13  14
HETATM   14  O   UNL     1      -9.846  15.073  65.914  1.00  0.00    -0.297 OA 
BRANCH  14  15
HETATM   15  C   UNL     1     -10.618  16.038  65.345  1.00  0.00    -0.408 C  
HETATM   16  C   UNL     1     -11.728  15.424  64.545  1.00  0.00    -0.277 C  
HETATM   17  O   UNL     1     -10.479  17.244  65.492  1.00  0.00    -0.609 OA 
ENDBRANCH  14  15
ENDBRANCH  13  14
ENDBRANCH   4  13
BRANCH   8  18
HETATM   18  N   UNL     1      -8.748   8.325  68.274  1.00  0.00    -0.136 N  
HETATM   19  H   UNL     1      -9.740   8.341  68.040  1.00  0.00     0.000 HD 
HETATM   20  C   UNL     1      -8.350   7.493  69.294  1.00  0.00    -0.132 C  
HETATM   21  O   UNL     1      -7.179   7.358  69.631  1.00  0.00    -0.073 OA 
BRANCH  20  22
HETATM   22  CA  UNL     1      -9.537   6.751  69.962  1.00  0.00    -0.157 C  
HETATM   23  H2  UNL     1      -9.773   8.229  71.437  1.00  0.00     0.000 HD 
HETATM   24  N   UNL     1      -9.680   7.215  71.372  1.00  0.00    -0.169 NA 
HETATM   25  H1  UNL     1     -10.460   6.727  71.811  1.00  0.00     0.000 HD 
BRANCH  22  26
HETATM   26  C   UNL     1      -9.369   5.245  69.876  1.00  0.00    -0.190 A  
HETATM   27  C   UNL     1      -9.416   4.619  68.620  1.00  0.00    -0.213 A  
HETATM   28  C   UNL     1      -9.274   3.234  68.506  1.00  0.00    -0.233 A  
HETATM   29  C   UNL     1      -9.074   2.457  69.644  1.00  0.00    -0.181 A  
HETATM   30  C   UNL     1      -9.001   3.063  70.895  1.00  0.00    -0.164 A  
HETATM   31  C   UNL     1      -9.140   4.448  71.010  1.00  0.00    -0.185 A  
ENDBRANCH  22  26
ENDBRANCH  20  22
ENDBRANCH   8  18
TORSDOF 6
ENDMDL
MODEL      163
REMARK 921   NORMALIZED FREE ENERGY PREDICTED BY IDOCK:   -3.79 KCAL/MOL
REMARK 922        TOTAL FREE ENERGY PREDICTED BY IDOCK:   -6.15 KCAL/MOL
REMARK 923 INTER-LIGAND FREE ENERGY PREDICTED BY IDOCK:   -5.41 KCAL/MOL
REMARK 924 INTRA-LIGAND FREE ENERGY PREDICTED BY IDOCK:   -0.74 KCAL/MOL
REMARK 927      BINDING AFFINITY PREDICTED BY RF-SCORE:    0.00 PKD
ROOT
HETATM    1  C   UNL     1      -7.847  12.118  67.579  1.00  0.00    -0.162 C  
HETATM    2  S   UNL     1      -7.214  12.731  69.157  1.00  0.00     0.172 SA 
HETATM    3  C   UNL     1      -6.876  11.085  69.800  1.00  0.00    -0.116 C  
HETATM    4  C   UNL     1      -7.992  10.073  69.617  1.00  0.00    -0.176 C  
HETATM    5  OXT UNL     1     -10.275   8.317  69.529  1.00  0.00    -0.200 OA 
HETATM    6  CA  UNL     1      -8.990  10.189  68.691  1.00  0.00    -0.136 C  
HETATM    7  N   UNL     1      -8.982  11.248  67.821  1.00  0.00    -0.138 N  
HETATM    8  CA  UNL     1      -8.836  13.082  66.843  1.00  0.00    -0.180 C  
HETATM    9  C   UNL     1     -10.138   9.191  68.685  1.00  0.00    -0.194 C  
HETATM   10  O   UNL     1     -10.996   9.242  67.650  1.00  0.00    -0.204 OA 
HETATM   11  O   UNL     1     -10.944  11.558  66.630  1.00  0.00    -0.276 OA 
HETATM   12  C   UNL     1      -9.831  11.878  66.983  1.00  0.00    -0.192 C  
ENDROOT
BRANCH   4  13
HETATM   13  C   UNL     1      -7.907   8.958  70.660  1.00  0.00    -0.115 C  
BRANCH  13  14
HETATM   14  O   UNL     1      -6.720   9.116  71.468  1.00  0.00    -0.182 OA 
BRANCH  14  15
HETATM   15  C   UNL     1      -6.827   8.778  72.781  1.00  0.00     0.105 C  
HETATM   16  C   UNL     1      -5.516   8.271  73.304  1.00  0.00    -0.053 C  
HETATM   17  O   UNL     1      -7.825   8.907  73.475  1.00  0.00    -0.377 OA 
ENDBRANCH  14  15
ENDBRANCH  13  14
ENDBRANCH   4  13
BRANCH   8  18
HETATM   18  N   UNL     1      -9.208  14.298  67.601  1.00  0.00    -0.189 N  
HETATM   19  H   UNL     1      -9.573  14.173  68.546  1.00  0.00     0.000 HD 
HETATM   20  C   UNL     1      -9.098  15.585  67.130  1.00  0.00    -0.217 C  
HETATM   21  O   UNL     1      -8.631  15.859  66.030  1.00  0.00    -0.307 OA 
BRANCH  20  22
HETATM   22  CA  UNL     1      -9.624  16.641  68.137  1.00  0.00    -0.228 C  
HETATM   23  H2  UNL     1     -11.502  16.759  67.200  1.00  0.00     0.000 HD 
HETATM   24  N   UNL     1     -10.764  17.383  67.525  1.00  0.00    -0.322 NA 
HETATM   25  H1  UNL     1     -11.110  18.078  68.186  1.00  0.00     0.000 HD 
BRANCH  22  26
HETATM   26  C   UNL     1      -8.518  17.576  68.590  1.00  0.00    -0.258 A  
HETATM   27  C   UNL     1      -7.286  17.038  68.995  1.00  0.00    -0.225 A  
HETATM   28  C   UNL     1      -6.250  17.869  69.426  1.00  0.00    -0.248 A  
HETATM   29  C   UNL     1      -6.427  19.250  69.450  1.00  0.00    -0.346 A  
HETATM   30  C   UNL     1      -7.633  19.804  69.030  1.00  0.00    -0.259 A  
HETATM   31  C   UNL     1      -8.669  18.973  68.596  1.00  0.00    -0.387 A  
ENDBRANCH  22  26
ENDBRANCH  20  22
ENDBRANCH   8  18
TORSDOF 6
ENDMDL
MODEL      164
REMARK 921   NORMALIZED FREE ENERGY PREDICTED BY IDOCK:   -3.77 KCAL/MOL
REMARK 922        TOTAL FREE ENERGY PREDICTED BY IDOCK:   -6.13 KCAL/MOL
REMARK 923 INTER-LIGAND FREE ENERGY PREDICTED BY IDOCK:   -5.25 KCAL/MOL
REMARK 924 INTRA-LIGAND FREE ENERGY PREDICTED BY IDOCK:   -0.88 KCAL/MOL
REMARK 927      BINDING AFFINITY PREDICTED BY RF-SCORE:    0.00 PKD
ROOT
HETATM    1  C   UNL     1     -10.762   7.825  67.930  1.00  0.00    -0.097 C  
HETATM    2  S   UNL     1      -9.459   6.578  68.049  1.00  0.00    -0.119 SA 
HETATM    3  C   UNL     1     -10.250   5.705  69.409  1.00  0.00    -0.245 C  
HETATM    4  C   UNL     1     -10.755   6.583  70.540  1.00  0.00    -0.305 C  
HETATM    5  OXT UNL     1     -11.380   8.279  72.783  1.00  0.00    -0.381 OA 
HETATM    6  CA  UNL     1     -11.019   7.918  70.418  1.00  0.00    -0.249 C  
HETATM    7  N   UNL     1     -10.879   8.522  69.196  1.00  0.00    -0.102 N  
HETATM    8  CA  UNL     1     -10.319   9.188  67.303  1.00  0.00    -0.270 C  
HETATM    9  C   UNL     1     -11.386   8.734  71.648  1.00  0.00    -0.320 C  
HETATM   10  O   UNL     1     -11.806   9.996  71.449  1.00  0.00    -0.370 OA 
HETATM   11  O   UNL     1     -10.917  10.837  69.234  1.00  0.00    -0.208 OA 
HETATM   12  C   UNL     1     -10.772   9.767  68.688  1.00  0.00    -0.216 C  
ENDROOT
BRANCH   4  13
HETATM   13  C   UNL     1     -10.843   5.802  71.852  1.00  0.00    -0.252 C  
BRANCH  13  14
HETATM   14  O   UNL     1      -9.677   4.965  72.017  1.00  0.00    -0.155 OA 
BRANCH  14  15
HETATM   15  C   UNL     1      -9.871   3.758  72.614  1.00  0.00    -0.151 C  
HETATM   16  C   UNL     1     -10.556   3.928  73.937  1.00  0.00    -0.291 C  
HETATM   17  O   UNL     1      -9.586   2.670  72.137  1.00  0.00    -0.104 OA 
ENDBRANCH  14  15
ENDBRANCH  13  14
ENDBRANCH   4  13
BRANCH   8  18
HETATM   18  N   UNL     1      -8.871   9.305  67.014  1.00  0.00    -0.123 N  
HETATM   19  H   UNL     1      -8.288   8.487  67.189  1.00  0.00     0.000 HD 
HETATM   20  C   UNL     1      -8.253  10.432  66.527  1.00  0.00    -0.131 C  
HETATM   21  O   UNL     1      -8.859  11.457  66.237  1.00  0.00    -0.191 OA 
BRANCH  20  22
HETATM   22  CA  UNL     1      -6.718  10.262  66.385  1.00  0.00    -0.100 C  
HETATM   23  H2  UNL     1      -6.330  12.220  67.043  1.00  0.00     0.000 HD 
HETATM   24  N   UNL     1      -6.080  11.605  66.269  1.00  0.00    -0.466 NA 
HETATM   25  H1  UNL     1      -5.070  11.494  66.176  1.00  0.00     0.000 HD 
BRANCH  22  26
HETATM   26  C   UNL     1      -6.364   9.364  65.214  1.00  0.00    -0.067 A  
HETATM   27  C   UNL     1      -5.767   8.117  65.461  1.00  0.00    -0.040 A  
HETATM   28  C   UNL     1      -5.420   7.270  64.406  1.00  0.00    -0.033 A  
HETATM   29  C   UNL     1      -5.674   7.652  63.091  1.00  0.00    -0.050 A  
HETATM   30  C   UNL     1      -6.285   8.874  62.828  1.00  0.00    -0.091 A  
HETATM   31  C   UNL     1      -6.635   9.722  63.883  1.00  0.00    -0.120 A  
ENDBRANCH  22  26
ENDBRANCH  20  22
ENDBRANCH   8  18
TORSDOF 6
ENDMDL
MODEL      165
REMARK 921   NORMALIZED FREE ENERGY PREDICTED BY IDOCK:   -3.70 KCAL/MOL
REMARK 922        TOTAL FREE ENERGY PREDICTED BY IDOCK:   -6.03 KCAL/MOL
REMARK 923 INTER-LIGAND FREE ENERGY PREDICTED BY IDOCK:   -5.12 KCAL/MOL
REMARK 924 INTRA-LIGAND FREE ENERGY PREDICTED BY IDOCK:   -0.91 KCAL/MOL
REMARK 927      BINDING AFFINITY PREDICTED BY RF-SCORE:    0.00 PKD
ROOT
HETATM    1  C   UNL     1     -11.021   6.144  68.309  1.00  0.00    -0.308 C  
HETATM    2  S   UNL     1     -10.088   5.292  69.601  1.00  0.00    -0.274 SA 
HETATM    3  C   UNL     1     -10.951   6.124  70.942  1.00  0.00    -0.297 C  
HETATM    4  C   UNL     1     -11.098   7.627  70.789  1.00  0.00    -0.276 C  
HETATM    5  OXT UNL     1     -11.039  10.500  70.583  1.00  0.00    -0.292 OA 
HETATM    6  CA  UNL     1     -11.010   8.290  69.598  1.00  0.00    -0.086 C  
HETATM    7  N   UNL     1     -10.830   7.576  68.442  1.00  0.00    -0.055 N  
HETATM    8  CA  UNL     1     -10.293   6.250  66.928  1.00  0.00    -0.244 C  
HETATM    9  C   UNL     1     -11.031   9.811  69.573  1.00  0.00    -0.227 C  
HETATM   10  O   UNL     1     -11.119  10.408  68.371  1.00  0.00    -0.250 OA 
HETATM   11  O   UNL     1     -10.251   8.836  66.587  1.00  0.00    -0.277 OA 
HETATM   12  C   UNL     1     -10.446   7.792  67.167  1.00  0.00    -0.343 C  
ENDROOT
BRANCH   4  13
HETATM   13  C   UNL     1     -11.266   8.310  72.147  1.00  0.00    -0.345 C  
BRANCH  13  14
HETATM   14  O   UNL     1     -10.724   7.479  73.197  1.00  0.00    -0.348 OA 
BRANCH  14  15
HETATM   15  C   UNL     1      -9.421   7.687  73.527  1.00  0.00    -0.289 C  
HETATM   16  C   UNL     1      -8.928   6.603  74.440  1.00  0.00    -0.203 C  
HETATM   17  O   UNL     1      -8.713   8.592  73.111  1.00  0.00    -0.371 OA 
ENDBRANCH  14  15
ENDBRANCH  13  14
ENDBRANCH   4  13
BRANCH   8  18
HETATM   18  N   UNL     1      -8.900   5.748  66.912  1.00  0.00    -0.113 N  
HETATM   19  H   UNL     1      -8.175   6.358  67.289  1.00  0.00     0.000 HD 
HETATM   20  C   UNL     1      -8.509   4.522  66.428  1.00  0.00    -0.112 C  
HETATM   21  O   UNL     1      -9.297   3.690  65.994  1.00  0.00    -0.157 OA 
BRANCH  20  22
HETATM   22  CA  UNL     1      -6.974   4.312  66.494  1.00  0.00    -0.059 C  
HETATM   23  H2  UNL     1      -6.847   3.791  64.462  1.00  0.00     0.000 HD 
HETATM   24  N   UNL     1      -6.546   3.432  65.368  1.00  0.00    -0.036 NA 
HETATM   25  H1  UNL     1      -5.536   3.294  65.411  1.00  0.00     0.000 HD 
BRANCH  22  26
HETATM   26  C   UNL     1      -6.546   3.756  67.840  1.00  0.00    -0.042 A  
HETATM   27  C   UNL     1      -5.644   4.486  68.629  1.00  0.00    -0.013 A  
HETATM   28  C   UNL     1      -5.223   4.000  69.869  1.00  0.00    -0.007 A  
HETATM   29  C   UNL     1      -5.705   2.781  70.342  1.00  0.00    -0.017 A  
HETATM   30  C   UNL     1      -6.618   2.055  69.583  1.00  0.00    -0.029 A  
HETATM   31  C   UNL     1      -7.042   2.541  68.345  1.00  0.00    -0.048 A  
ENDBRANCH  22  26
ENDBRANCH  20  22
ENDBRANCH   8  18
TORSDOF 6
ENDMDL
MODEL      166
REMARK 921   NORMALIZED FREE ENERGY PREDICTED BY IDOCK:   -3.65 KCAL/MOL
REMARK 922        TOTAL FREE ENERGY PREDICTED BY IDOCK:   -5.96 KCAL/MOL
REMARK 923 INTER-LIGAND FREE ENERGY PREDICTED BY IDOCK:   -4.88 KCAL/MOL
REMARK 924 INTRA-LIGAND FREE ENERGY PREDICTED BY IDOCK:   -1.09 KCAL/MOL
REMARK 927      BINDING AFFINITY PREDICTED BY RF-SCORE:    0.00 PKD
ROOT
HETATM    1  C   UNL     1     -10.443   7.817  68.416  1.00  0.00    -0.166 C  
HETATM    2  S   UNL     1      -9.150   7.350  67.243  1.00  0.00    -0.126 SA 
HETATM    3  C   UNL     1      -8.458   6.087  68.320  1.00  0.00    -0.112 C  
HETATM    4  C   UNL     1      -8.247   6.507  69.764  1.00  0.00    -0.126 C  
HETATM    5  OXT UNL     1      -7.570   7.483  72.388  1.00  0.00    -0.081 OA 
HETATM    6  CA  UNL     1      -8.890   7.553  70.362  1.00  0.00    -0.145 C  
HETATM    7  N   UNL     1      -9.832   8.256  69.656  1.00  0.00    -0.181 N  
HETATM    8  CA  UNL     1     -10.989   9.274  68.255  1.00  0.00     0.008 C  
HETATM    9  C   UNL     1      -8.502   7.977  71.770  1.00  0.00    -0.129 C  
HETATM   10  O   UNL     1      -9.280   8.891  72.377  1.00  0.00    -0.362 OA 
HETATM   11  O   UNL     1     -10.500  10.250  70.624  1.00  0.00    -0.155 OA 
HETATM   12  C   UNL     1     -10.480   9.437  69.729  1.00  0.00    -0.226 C  
ENDROOT
BRANCH   4  13
HETATM   13  C   UNL     1      -7.157   5.667  70.433  1.00  0.00    -0.066 C  
BRANCH  13  14
HETATM   14  O   UNL     1      -7.605   4.304  70.599  1.00  0.00    -0.050 OA 
BRANCH  14  15
HETATM   15  C   UNL     1      -8.438   4.060  71.647  1.00  0.00    -0.094 C  
HETATM   16  C   UNL     1      -9.710   3.423  71.173  1.00  0.00    -0.222 C  
HETATM   17  O   UNL     1      -8.188   4.273  72.824  1.00  0.00    -0.092 OA 
ENDBRANCH  14  15
ENDBRANCH  13  14
ENDBRANCH   4  13
BRANCH   8  18
HETATM   18  N   UNL     1     -10.283  10.101  67.249  1.00  0.00    -0.209 N  
HETATM   19  H   UNL     1      -9.393   9.752  66.892  1.00  0.00     0.000 HD 
HETATM   20  C   UNL     1     -10.737  11.302  66.758  1.00  0.00    -0.275 C  
HETATM   21  O   UNL     1     -11.812  11.795  67.079  1.00  0.00    -0.599 OA 
BRANCH  20  22
HETATM   22  CA  UNL     1      -9.745  11.956  65.761  1.00  0.00    -0.237 C  
HETATM   23  H2  UNL     1     -10.963  13.648  65.490  1.00  0.00     0.000 HD 
HETATM   24  N   UNL     1     -10.471  12.956  64.925  1.00  0.00    -0.317 NA 
HETATM   25  H1  UNL     1      -9.819  13.386  64.269  1.00  0.00     0.000 HD 
BRANCH  22  26
HETATM   26  C   UNL     1      -9.041  10.914  64.912  1.00  0.00    -0.201 A  
HETATM   27  C   UNL     1      -9.734  10.312  63.850  1.00  0.00    -0.325 A  
HETATM   28  C   UNL     1      -9.118   9.342  63.054  1.00  0.00    -0.083 A  
HETATM   29  C   UNL     1      -7.800   8.969  63.302  1.00  0.00    -0.135 A  
HETATM   30  C   UNL     1      -7.090   9.573  64.336  1.00  0.00    -0.108 A  
HETATM   31  C   UNL     1      -7.703  10.544  65.131  1.00  0.00    -0.062 A  
ENDBRANCH  22  26
ENDBRANCH  20  22
ENDBRANCH   8  18
TORSDOF 6
ENDMDL
MODEL      167
REMARK 921   NORMALIZED FREE ENERGY PREDICTED BY IDOCK:   -3.61 KCAL/MOL
REMARK 922        TOTAL FREE ENERGY PREDICTED BY IDOCK:   -5.91 KCAL/MOL
REMARK 923 INTER-LIGAND FREE ENERGY PREDICTED BY IDOCK:   -5.25 KCAL/MOL
REMARK 924 INTRA-LIGAND FREE ENERGY PREDICTED BY IDOCK:   -0.66 KCAL/MOL
REMARK 927      BINDING AFFINITY PREDICTED BY RF-SCORE:    0.00 PKD
ROOT
HETATM    1  C   UNL     1     -10.630   5.346  70.592  1.00  0.00    -0.232 C  
HETATM    2  S   UNL     1     -10.977   6.275  69.082  1.00  0.00    -0.390 SA 
HETATM    3  C   UNL     1     -10.211   5.052  68.008  1.00  0.00    -0.078 C  
HETATM    4  C   UNL     1      -8.850   4.553  68.457  1.00  0.00    -0.128 C  
HETATM    5  OXT UNL     1      -6.142   3.910  69.199  1.00  0.00    -0.026 OA 
HETATM    6  CA  UNL     1      -8.387   4.635  69.739  1.00  0.00    -0.074 C  
HETATM    7  N   UNL     1      -9.198   5.148  70.717  1.00  0.00    -0.141 N  
HETATM    8  CA  UNL     1     -10.550   6.207  71.896  1.00  0.00    -0.220 C  
HETATM    9  C   UNL     1      -6.953   4.232  70.055  1.00  0.00    -0.041 C  
HETATM   10  O   UNL     1      -6.602   4.163  71.351  1.00  0.00    -0.027 OA 
HETATM   11  O   UNL     1      -8.139   5.640  72.717  1.00  0.00    -0.105 OA 
HETATM   12  C   UNL     1      -9.091   5.638  71.970  1.00  0.00    -0.137 C  
ENDROOT
BRANCH   4  13
HETATM   13  C   UNL     1      -8.032   4.030  67.274  1.00  0.00    -0.092 C  
BRANCH  13  14
HETATM   14  O   UNL     1      -8.295   4.821  66.095  1.00  0.00    -0.110 OA 
BRANCH  14  15
HETATM   15  C   UNL     1      -8.446   4.142  64.926  1.00  0.00    -0.115 C  
HETATM   16  C   UNL     1      -7.189   3.402  64.579  1.00  0.00    -0.062 C  
HETATM   17  O   UNL     1      -9.469   4.083  64.259  1.00  0.00    -0.149 OA 
ENDBRANCH  14  15
ENDBRANCH  13  14
ENDBRANCH   4  13
BRANCH   8  18
HETATM   18  N   UNL     1     -10.647   7.670  71.689  1.00  0.00    -0.202 N  
HETATM   19  H   UNL     1      -9.786   8.173  71.472  1.00  0.00     0.000 HD 
HETATM   20  C   UNL     1     -11.808   8.402  71.766  1.00  0.00    -0.316 C  
HETATM   21  O   UNL     1     -12.906   7.898  71.975  1.00  0.00    -0.307 OA 
BRANCH  20  22
HETATM   22  CA  UNL     1     -11.575   9.921  71.560  1.00  0.00    -0.301 C  
HETATM   23  H2  UNL     1     -13.289  10.444  72.658  1.00  0.00     0.000 HD 
HETATM   24  N   UNL     1     -12.862  10.650  71.756  1.00  0.00    -0.458 NA 
HETATM   25  H1  UNL     1     -12.710  11.649  71.620  1.00  0.00     0.000 HD 
BRANCH  22  26
HETATM   26  C   UNL     1     -10.962  10.211  70.203  1.00  0.00    -0.376 A  
HETATM   27  C   UNL     1      -9.574  10.083  70.035  1.00  0.00    -0.205 A  
HETATM   28  C   UNL     1      -8.976  10.350  68.801  1.00  0.00    -0.157 A  
HETATM   29  C   UNL     1      -9.757  10.738  67.716  1.00  0.00    -0.179 A  
HETATM   30  C   UNL     1     -11.137  10.848  67.857  1.00  0.00    -0.362 A  
HETATM   31  C   UNL     1     -11.737  10.579  69.089  1.00  0.00    -0.261 A  
ENDBRANCH  22  26
ENDBRANCH  20  22
ENDBRANCH   8  18
TORSDOF 6
ENDMDL
MODEL      168
REMARK 921   NORMALIZED FREE ENERGY PREDICTED BY IDOCK:   -3.60 KCAL/MOL
REMARK 922        TOTAL FREE ENERGY PREDICTED BY IDOCK:   -5.90 KCAL/MOL
REMARK 923 INTER-LIGAND FREE ENERGY PREDICTED BY IDOCK:   -6.16 KCAL/MOL
REMARK 924 INTRA-LIGAND FREE ENERGY PREDICTED BY IDOCK:    0.27 KCAL/MOL
REMARK 927      BINDING AFFINITY PREDICTED BY RF-SCORE:    0.00 PKD
ROOT
HETATM    1  C   UNL     1      -8.858   9.710  68.588  1.00  0.00    -0.128 C  
HETATM    2  S   UNL     1     -10.579   9.488  69.092  1.00  0.00    -0.211 SA 
HETATM    3  C   UNL     1     -10.470   7.692  69.108  1.00  0.00    -0.214 C  
HETATM    4  C   UNL     1      -9.806   7.069  67.893  1.00  0.00    -0.161 C  
HETATM    5  OXT UNL     1      -8.843   5.956  65.417  1.00  0.00    -0.144 OA 
HETATM    6  CA  UNL     1      -8.965   7.738  67.050  1.00  0.00    -0.129 C  
HETATM    7  N   UNL     1      -8.637   9.041  67.320  1.00  0.00    -0.114 N  
HETATM    8  CA  UNL     1      -8.553  11.054  67.848  1.00  0.00    -0.133 C  
HETATM    9  C   UNL     1      -8.465   7.060  65.783  1.00  0.00    -0.149 C  
HETATM   10  O   UNL     1      -7.506   7.691  65.082  1.00  0.00    -0.078 OA 
HETATM   11  O   UNL     1      -7.586  10.169  65.592  1.00  0.00    -0.130 OA 
HETATM   12  C   UNL     1      -8.104  10.104  66.684  1.00  0.00    -0.120 C  
ENDROOT
BRANCH   4  13
HETATM   13  C   UNL     1     -10.272   5.627  67.685  1.00  0.00    -0.199 C  
BRANCH  13  14
HETATM   14  O   UNL     1      -9.702   4.765  68.694  1.00  0.00    -0.150 OA 
BRANCH  14  15
HETATM   15  C   UNL     1      -8.737   3.899  68.282  1.00  0.00    -0.101 C  
HETATM   16  C   UNL     1      -9.273   2.972  67.233  1.00  0.00    -0.214 C  
HETATM   17  O   UNL     1      -7.575   3.889  68.661  1.00  0.00    -0.054 OA 
ENDBRANCH  14  15
ENDBRANCH  13  14
ENDBRANCH   4  13
BRANCH   8  18
HETATM   18  N   UNL     1      -9.737  11.893  67.557  1.00  0.00    -0.180 N  
HETATM   19  H   UNL     1     -10.005  12.589  68.254  1.00  0.00     0.000 HD 
HETATM   20  C   UNL     1     -10.505  11.807  66.420  1.00  0.00    -0.235 C  
HETATM   21  O   UNL     1     -10.252  11.040  65.497  1.00  0.00    -0.248 OA 
BRANCH  20  22
HETATM   22  CA  UNL     1     -11.714  12.778  66.435  1.00  0.00    -0.403 C  
HETATM   23  H2  UNL     1     -12.803  11.619  65.062  1.00  0.00     0.000 HD 
HETATM   24  N   UNL     1     -12.517  12.589  65.192  1.00  0.00    -0.628 NA 
HETATM   25  H1  UNL     1     -13.312  13.227  65.202  1.00  0.00     0.000 HD 
BRANCH  22  26
HETATM   26  C   UNL     1     -11.268  14.218  66.606  1.00  0.00    -0.337 A  
HETATM   27  C   UNL     1     -11.508  14.872  67.825  1.00  0.00    -0.353 A  
HETATM   28  C   UNL     1     -11.118  16.200  68.014  1.00  0.00    -0.317 A  
HETATM   29  C   UNL     1     -10.474  16.890  66.990  1.00  0.00    -0.281 A  
HETATM   30  C   UNL     1     -10.206  16.251  65.783  1.00  0.00    -0.390 A  
HETATM   31  C   UNL     1     -10.593  14.922  65.594  1.00  0.00    -0.358 A  
ENDBRANCH  22  26
ENDBRANCH  20  22
ENDBRANCH   8  18
TORSDOF 6
ENDMDL
MODEL      169
REMARK 921   NORMALIZED FREE ENERGY PREDICTED BY IDOCK:   -3.58 KCAL/MOL
REMARK 922        TOTAL FREE ENERGY PREDICTED BY IDOCK:   -5.87 KCAL/MOL
REMARK 923 INTER-LIGAND FREE ENERGY PREDICTED BY IDOCK:   -4.88 KCAL/MOL
REMARK 924 INTRA-LIGAND FREE ENERGY PREDICTED BY IDOCK:   -0.99 KCAL/MOL
REMARK 927      BINDING AFFINITY PREDICTED BY RF-SCORE:    0.00 PKD
ROOT
HETATM    1  C   UNL     1     -10.709   9.833  66.844  1.00  0.00    -0.122 C  
HETATM    2  S   UNL     1      -9.667  10.456  65.505  1.00  0.00    -0.269 SA 
HETATM    3  C   UNL     1      -8.647   8.976  65.445  1.00  0.00    -0.177 C  
HETATM    4  C   UNL     1      -8.164   8.463  66.790  1.00  0.00    -0.102 C  
HETATM    5  OXT UNL     1      -7.020   7.755  69.338  1.00  0.00    -0.059 OA 
HETATM    6  CA  UNL     1      -8.752   8.768  67.985  1.00  0.00    -0.141 C  
HETATM    7  N   UNL     1      -9.883   9.541  68.001  1.00  0.00    -0.151 N  
HETATM    8  CA  UNL     1     -11.404  10.935  67.710  1.00  0.00    -0.292 C  
HETATM    9  C   UNL     1      -8.104   8.316  69.286  1.00  0.00    -0.116 C  
HETATM   10  O   UNL     1      -8.810   8.487  70.418  1.00  0.00    -0.138 OA 
HETATM   11  O   UNL     1     -10.499  10.342  70.084  1.00  0.00    -0.252 OA 
HETATM   12  C   UNL     1     -10.602  10.268  68.881  1.00  0.00    -0.219 C  
ENDROOT
BRANCH   4  13
HETATM   13  C   UNL     1      -6.884   7.639  66.643  1.00  0.00    -0.066 C  
BRANCH  13  14
HETATM   14  O   UNL     1      -7.143   6.443  65.874  1.00  0.00    -0.063 OA 
BRANCH  14  15
HETATM   15  C   UNL     1      -7.985   5.531  66.431  1.00  0.00    -0.105 C  
HETATM   16  C   UNL     1      -9.076   5.163  65.470  1.00  0.00    -0.157 C  
HETATM   17  O   UNL     1      -7.864   5.027  67.539  1.00  0.00    -0.094 OA 
ENDBRANCH  14  15
ENDBRANCH  13  14
ENDBRANCH   4  13
BRANCH   8  18
HETATM   18  N   UNL     1     -11.012  12.326  67.389  1.00  0.00    -0.242 N  
HETATM   19  H   UNL     1     -10.648  12.509  66.454  1.00  0.00     0.000 HD 
HETATM   20  C   UNL     1     -11.100  13.390  68.254  1.00  0.00    -0.262 C  
HETATM   21  O   UNL     1     -11.564  13.298  69.386  1.00  0.00    -0.281 OA 
BRANCH  20  22
HETATM   22  CA  UNL     1     -10.555  14.708  67.645  1.00  0.00    -0.256 C  
HETATM   23  H2  UNL     1     -11.538  14.396  65.813  1.00  0.00     0.000 HD 
HETATM   24  N   UNL     1     -10.605  14.623  66.156  1.00  0.00    -0.303 NA 
HETATM   25  H1  UNL     1     -10.247  15.489  65.755  1.00  0.00     0.000 HD 
BRANCH  22  26
HETATM   26  C   UNL     1      -9.157  15.017  68.147  1.00  0.00    -0.178 A  
HETATM   27  C   UNL     1      -8.187  14.002  68.143  1.00  0.00    -0.155 A  
HETATM   28  C   UNL     1      -6.892  14.249  68.606  1.00  0.00    -0.098 A  
HETATM   29  C   UNL     1      -6.547  15.516  69.071  1.00  0.00    -0.123 A  
HETATM   30  C   UNL     1      -7.489  16.541  69.060  1.00  0.00    -0.229 A  
HETATM   31  C   UNL     1      -8.783  16.295  68.595  1.00  0.00    -0.226 A  
ENDBRANCH  22  26
ENDBRANCH  20  22
ENDBRANCH   8  18
TORSDOF 6
ENDMDL
MODEL      170
REMARK 921   NORMALIZED FREE ENERGY PREDICTED BY IDOCK:   -3.57 KCAL/MOL
REMARK 922        TOTAL FREE ENERGY PREDICTED BY IDOCK:   -5.86 KCAL/MOL
REMARK 923 INTER-LIGAND FREE ENERGY PREDICTED BY IDOCK:   -4.99 KCAL/MOL
REMARK 924 INTRA-LIGAND FREE ENERGY PREDICTED BY IDOCK:   -0.87 KCAL/MOL
REMARK 927      BINDING AFFINITY PREDICTED BY RF-SCORE:    0.00 PKD
ROOT
HETATM    1  C   UNL     1      -7.118   7.911  69.185  1.00  0.00    -0.069 C  
HETATM    2  S   UNL     1      -7.163   8.671  70.824  1.00  0.00    -0.077 SA 
HETATM    3  C   UNL     1      -7.150   7.094  71.690  1.00  0.00    -0.069 C  
HETATM    4  C   UNL     1      -8.119   6.052  71.160  1.00  0.00    -0.121 C  
HETATM    5  OXT UNL     1     -10.210   4.261  70.311  1.00  0.00    -0.138 OA 
HETATM    6  CA  UNL     1      -8.655   6.070  69.904  1.00  0.00    -0.131 C  
HETATM    7  N   UNL     1      -8.273   7.048  69.023  1.00  0.00    -0.124 N  
HETATM    8  CA  UNL     1      -7.705   8.790  68.031  1.00  0.00    -0.101 C  
HETATM    9  C   UNL     1      -9.725   5.058  69.521  1.00  0.00    -0.189 C  
HETATM   10  O   UNL     1     -10.090   5.005  68.228  1.00  0.00    -0.153 OA 
HETATM   11  O   UNL     1      -9.580   7.222  67.119  1.00  0.00    -0.144 OA 
HETATM   12  C   UNL     1      -8.698   7.588  67.862  1.00  0.00    -0.124 C  
ENDROOT
BRANCH   4  13
HETATM   13  C   UNL     1      -8.487   5.035  72.242  1.00  0.00    -0.124 C  
BRANCH  13  14
HETATM   14  O   UNL     1      -8.968   5.712  73.424  1.00  0.00    -0.130 OA 
BRANCH  14  15
HETATM   15  C   UNL     1     -10.275   6.088  73.422  1.00  0.00    -0.216 C  
HETATM   16  C   UNL     1     -11.168   4.893  73.263  1.00  0.00    -0.423 C  
HETATM   17  O   UNL     1     -10.693   7.226  73.578  1.00  0.00    -0.382 OA 
ENDBRANCH  14  15
ENDBRANCH  13  14
ENDBRANCH   4  13
BRANCH   8  18
HETATM   18  N   UNL     1      -8.324  10.063  68.465  1.00  0.00    -0.110 N  
HETATM   19  H   UNL     1      -8.207  10.336  69.441  1.00  0.00     0.000 HD 
HETATM   20  C   UNL     1      -9.045  10.907  67.653  1.00  0.00    -0.148 C  
HETATM   21  O   UNL     1      -9.212  10.704  66.456  1.00  0.00    -0.161 OA 
BRANCH  20  22
HETATM   22  CA  UNL     1      -9.616  12.131  68.415  1.00  0.00    -0.186 C  
HETATM   23  H2  UNL     1     -11.487  11.217  68.702  1.00  0.00     0.000 HD 
HETATM   24  N   UNL     1     -11.107  12.098  68.357  1.00  0.00    -0.227 NA 
HETATM   25  H1  UNL     1     -11.483  12.903  68.857  1.00  0.00     0.000 HD 
BRANCH  22  26
HETATM   26  C   UNL     1      -9.058  13.433  67.872  1.00  0.00    -0.208 A  
HETATM   27  C   UNL     1      -9.712  14.069  66.804  1.00  0.00    -0.283 A  
HETATM   28  C   UNL     1      -9.221  15.264  66.275  1.00  0.00    -0.350 A  
HETATM   29  C   UNL     1      -8.074  15.846  66.811  1.00  0.00    -0.301 A  
HETATM   30  C   UNL     1      -7.426  15.243  67.884  1.00  0.00    -0.157 A  
HETATM   31  C   UNL     1      -7.918  14.049  68.416  1.00  0.00    -0.143 A  
ENDBRANCH  22  26
ENDBRANCH  20  22
ENDBRANCH   8  18
TORSDOF 6
ENDMDL
MODEL      171
REMARK 921   NORMALIZED FREE ENERGY PREDICTED BY IDOCK:   -3.57 KCAL/MOL
REMARK 922        TOTAL FREE ENERGY PREDICTED BY IDOCK:   -5.86 KCAL/MOL
REMARK 923 INTER-LIGAND FREE ENERGY PREDICTED BY IDOCK:   -5.64 KCAL/MOL
REMARK 924 INTRA-LIGAND FREE ENERGY PREDICTED BY IDOCK:   -0.21 KCAL/MOL
REMARK 927      BINDING AFFINITY PREDICTED BY RF-SCORE:    0.00 PKD
ROOT
HETATM    1  C   UNL     1     -11.324  11.527  67.519  1.00  0.00    -0.299 C  
HETATM    2  S   UNL     1      -9.757  11.292  66.649  1.00  0.00    -0.201 SA 
HETATM    3  C   UNL     1      -9.934   9.504  66.560  1.00  0.00    -0.261 C  
HETATM    4  C   UNL     1     -10.350   8.826  67.853  1.00  0.00    -0.281 C  
HETATM    5  OXT UNL     1     -10.811   7.591  70.414  1.00  0.00    -0.235 OA 
HETATM    6  CA  UNL     1     -10.969   9.464  68.891  1.00  0.00    -0.050 C  
HETATM    7  N   UNL     1     -11.297  10.788  68.767  1.00  0.00    -0.269 N  
HETATM    8  CA  UNL     1     -11.415  12.832  68.378  1.00  0.00    -0.311 C  
HETATM    9  C   UNL     1     -11.215   8.723  70.197  1.00  0.00    -0.152 C  
HETATM   10  O   UNL     1     -11.981   9.335  71.118  1.00  0.00    -0.293 OA 
HETATM   11  O   UNL     1     -11.917  11.836  70.736  1.00  0.00    -0.319 OA 
HETATM   12  C   UNL     1     -11.643  11.825  69.558  1.00  0.00    -0.332 C  
ENDROOT
BRANCH   4  13
HETATM   13  C   UNL     1      -9.905   7.363  67.880  1.00  0.00    -0.148 C  
BRANCH  13  14
HETATM   14  O   UNL     1     -10.026   6.777  66.566  1.00  0.00    -0.158 OA 
BRANCH  14  15
HETATM   15  C   UNL     1      -9.500   5.533  66.401  1.00  0.00    -0.155 C  
HETATM   16  C   UNL     1      -8.083   5.620  65.917  1.00  0.00    -0.111 C  
HETATM   17  O   UNL     1     -10.063   4.478  66.654  1.00  0.00    -0.225 OA 
ENDBRANCH  14  15
ENDBRANCH  13  14
ENDBRANCH   4  13
BRANCH   8  18
HETATM   18  N   UNL     1     -10.165  13.621  68.454  1.00  0.00    -0.242 N  
HETATM   19  H   UNL     1      -9.564  13.475  69.265  1.00  0.00     0.000 HD 
HETATM   20  C   UNL     1      -9.752  14.537  67.516  1.00  0.00    -0.211 C  
HETATM   21  O   UNL     1     -10.370  14.761  66.480  1.00  0.00    -0.274 OA 
BRANCH  20  22
HETATM   22  CA  UNL     1      -8.430  15.246  67.908  1.00  0.00    -0.148 C  
HETATM   23  H2  UNL     1      -8.366  16.355  66.124  1.00  0.00     0.000 HD 
HETATM   24  N   UNL     1      -7.756  15.754  66.678  1.00  0.00    -0.224 NA 
HETATM   25  H1  UNL     1      -6.887  16.220  66.936  1.00  0.00     0.000 HD 
BRANCH  22  26
HETATM   26  C   UNL     1      -7.525  14.330  68.711  1.00  0.00    -0.129 A  
HETATM   27  C   UNL     1      -7.220  13.054  68.209  1.00  0.00    -0.113 A  
HETATM   28  C   UNL     1      -6.397  12.182  68.926  1.00  0.00    -0.083 A  
HETATM   29  C   UNL     1      -5.859  12.576  70.149  1.00  0.00    -0.160 A  
HETATM   30  C   UNL     1      -6.131  13.846  70.650  1.00  0.00    -0.131 A  
HETATM   31  C   UNL     1      -6.952  14.720  69.933  1.00  0.00    -0.128 A  
ENDBRANCH  22  26
ENDBRANCH  20  22
ENDBRANCH   8  18
TORSDOF 6
ENDMDL
MODEL      172
REMARK 921   NORMALIZED FREE ENERGY PREDICTED BY IDOCK:   -3.53 KCAL/MOL
REMARK 922        TOTAL FREE ENERGY PREDICTED BY IDOCK:   -5.80 KCAL/MOL
REMARK 923 INTER-LIGAND FREE ENERGY PREDICTED BY IDOCK:   -4.94 KCAL/MOL
REMARK 924 INTRA-LIGAND FREE ENERGY PREDICTED BY IDOCK:   -0.86 KCAL/MOL
REMARK 927      BINDING AFFINITY PREDICTED BY RF-SCORE:    0.00 PKD
ROOT
HETATM    1  C   UNL     1      -7.521   7.825  70.709  1.00  0.00    -0.070 C  
HETATM    2  S   UNL     1      -8.810   8.772  69.869  1.00  0.00    -0.150 SA 
HETATM    3  C   UNL     1      -9.808   8.962  71.353  1.00  0.00    -0.306 C  
HETATM    4  C   UNL     1     -10.014   7.697  72.166  1.00  0.00    -0.232 C  
HETATM    5  OXT UNL     1     -10.630   5.199  73.462  1.00  0.00    -0.209 OA 
HETATM    6  CA  UNL     1      -9.206   6.598  72.094  1.00  0.00    -0.138 C  
HETATM    7  N   UNL     1      -8.101   6.626  71.284  1.00  0.00    -0.111 N  
HETATM    8  CA  UNL     1      -6.680   6.884  69.783  1.00  0.00    -0.049 C  
HETATM    9  C   UNL     1      -9.582   5.330  72.847  1.00  0.00    -0.144 C  
HETATM   10  O   UNL     1      -8.671   4.342  72.886  1.00  0.00    -0.102 OA 
HETATM   11  O   UNL     1      -7.098   4.572  70.916  1.00  0.00    -0.036 OA 
HETATM   12  C   UNL     1      -7.231   5.759  70.726  1.00  0.00    -0.079 C  
ENDROOT
BRANCH   4  13
HETATM   13  C   UNL     1     -11.290   7.778  73.006  1.00  0.00    -0.273 C  
BRANCH  13  14
HETATM   14  O   UNL     1     -12.133   8.851  72.534  1.00  0.00    -0.325 OA 
BRANCH  14  15
HETATM   15  C   UNL     1     -13.453   8.562  72.371  1.00  0.00    -0.277 C  
HETATM   16  C   UNL     1     -13.623   7.260  71.648  1.00  0.00    -0.435 C  
HETATM   17  O   UNL     1     -14.388   9.228  72.790  1.00  0.00    -0.496 OA 
ENDBRANCH  14  15
ENDBRANCH  13  14
ENDBRANCH   4  13
BRANCH   8  18
HETATM   18  N   UNL     1      -7.141   6.812  68.378  1.00  0.00    -0.080 N  
HETATM   19  H   UNL     1      -7.927   6.196  68.170  1.00  0.00     0.000 HD 
HETATM   20  C   UNL     1      -6.590   7.511  67.330  1.00  0.00    -0.062 C  
HETATM   21  O   UNL     1      -5.673   8.314  67.468  1.00  0.00    -0.037 OA 
BRANCH  20  22
HETATM   22  CA  UNL     1      -7.254   7.177  65.969  1.00  0.00    -0.074 C  
HETATM   23  H2  UNL     1      -5.796   5.741  65.487  1.00  0.00     0.000 HD 
HETATM   24  N   UNL     1      -6.242   6.555  65.065  1.00  0.00    -0.037 NA 
HETATM   25  H1  UNL     1      -6.678   6.335  64.170  1.00  0.00     0.000 HD 
BRANCH  22  26
HETATM   26  C   UNL     1      -7.891   8.404  65.345  1.00  0.00    -0.108 A  
HETATM   27  C   UNL     1      -9.161   8.814  65.781  1.00  0.00    -0.269 A  
HETATM   28  C   UNL     1      -9.781   9.935  65.221  1.00  0.00    -0.383 A  
HETATM   29  C   UNL     1      -9.137  10.665  64.226  1.00  0.00    -0.244 A  
HETATM   30  C   UNL     1      -7.868  10.287  63.798  1.00  0.00    -0.118 A  
HETATM   31  C   UNL     1      -7.246   9.168  64.358  1.00  0.00    -0.099 A  
ENDBRANCH  22  26
ENDBRANCH  20  22
ENDBRANCH   8  18
TORSDOF 6
ENDMDL
MODEL      173
REMARK 921   NORMALIZED FREE ENERGY PREDICTED BY IDOCK:   -3.52 KCAL/MOL
REMARK 922        TOTAL FREE ENERGY PREDICTED BY IDOCK:   -5.80 KCAL/MOL
REMARK 923 INTER-LIGAND FREE ENERGY PREDICTED BY IDOCK:   -5.22 KCAL/MOL
REMARK 924 INTRA-LIGAND FREE ENERGY PREDICTED BY IDOCK:   -0.58 KCAL/MOL
REMARK 927      BINDING AFFINITY PREDICTED BY RF-SCORE:    0.00 PKD
ROOT
HETATM    1  C   UNL     1      -7.328   9.661  69.283  1.00  0.00    -0.079 C  
HETATM    2  S   UNL     1      -5.931  10.440  70.124  1.00  0.00    -0.097 SA 
HETATM    3  C   UNL     1      -5.763   9.116  71.330  1.00  0.00    -0.063 C  
HETATM    4  C   UNL     1      -7.056   8.659  71.980  1.00  0.00    -0.077 C  
HETATM    5  OXT UNL     1      -9.496   8.085  73.401  1.00  0.00    -0.279 OA 
HETATM    6  CA  UNL     1      -8.298   8.864  71.448  1.00  0.00    -0.135 C  
HETATM    7  N   UNL     1      -8.414   9.472  70.226  1.00  0.00    -0.197 N  
HETATM    8  CA  UNL     1      -8.268  10.645  68.510  1.00  0.00    -0.128 C  
HETATM    9  C   UNL     1      -9.537   8.491  72.248  1.00  0.00    -0.307 C  
HETATM   10  O   UNL     1     -10.721   8.547  71.614  1.00  0.00    -0.239 OA 
HETATM   11  O   UNL     1     -10.555  10.154  69.666  1.00  0.00    -0.222 OA 
HETATM   12  C   UNL     1      -9.361  10.081  69.483  1.00  0.00    -0.229 C  
ENDROOT
BRANCH   4  13
HETATM   13  C   UNL     1      -6.796   8.022  73.346  1.00  0.00    -0.101 C  
BRANCH  13  14
HETATM   14  O   UNL     1      -5.820   6.964  73.229  1.00  0.00    -0.052 OA 
BRANCH  14  15
HETATM   15  C   UNL     1      -6.302   5.694  73.161  1.00  0.00    -0.062 C  
HETATM   16  C   UNL     1      -5.178   4.702  73.154  1.00  0.00    -0.008 C  
HETATM   17  O   UNL     1      -7.482   5.376  73.157  1.00  0.00    -0.090 OA 
ENDBRANCH  14  15
ENDBRANCH  13  14
ENDBRANCH   4  13
BRANCH   8  18
HETATM   18  N   UNL     1      -7.951  12.081  68.682  1.00  0.00    -0.266 N  
HETATM   19  H   UNL     1      -7.265  12.330  69.395  1.00  0.00     0.000 HD 
HETATM   20  C   UNL     1      -8.509  13.104  67.953  1.00  0.00    -0.181 C  
HETATM   21  O   UNL     1      -9.308  12.921  67.042  1.00  0.00    -0.219 OA 
BRANCH  20  22
HETATM   22  CA  UNL     1      -8.018  14.503  68.408  1.00  0.00    -0.141 C  
HETATM   23  H2  UNL     1      -7.310  13.777  70.249  1.00  0.00     0.000 HD 
HETATM   24  N   UNL     1      -7.903  14.528  69.895  1.00  0.00    -0.329 NA 
HETATM   25  H1  UNL     1      -7.581  15.448  70.195  1.00  0.00     0.000 HD 
BRANCH  22  26
HETATM   26  C   UNL     1      -8.925  15.605  67.893  1.00  0.00    -0.180 A  
HETATM   27  C   UNL     1      -9.588  16.435  68.812  1.00  0.00    -0.249 A  
HETATM   28  C   UNL     1     -10.436  17.454  68.372  1.00  0.00    -0.384 A  
HETATM   29  C   UNL     1     -10.628  17.663  67.009  1.00  0.00    -0.254 A  
HETATM   30  C   UNL     1      -9.962  16.866  66.083  1.00  0.00    -0.332 A  
HETATM   31  C   UNL     1      -9.110  15.849  66.521  1.00  0.00    -0.320 A  
ENDBRANCH  22  26
ENDBRANCH  20  22
ENDBRANCH   8  18
TORSDOF 6
ENDMDL
MODEL      174
REMARK 921   NORMALIZED FREE ENERGY PREDICTED BY IDOCK:   -3.51 KCAL/MOL
REMARK 922        TOTAL FREE ENERGY PREDICTED BY IDOCK:   -5.78 KCAL/MOL
REMARK 923 INTER-LIGAND FREE ENERGY PREDICTED BY IDOCK:   -5.73 KCAL/MOL
REMARK 924 INTRA-LIGAND FREE ENERGY PREDICTED BY IDOCK:   -0.05 KCAL/MOL
REMARK 927      BINDING AFFINITY PREDICTED BY RF-SCORE:    0.00 PKD
ROOT
HETATM    1  C   UNL     1      -8.335   8.941  68.520  1.00  0.00    -0.125 C  
HETATM    2  S   UNL     1      -8.299  10.230  69.787  1.00  0.00     0.014 SA 
HETATM    3  C   UNL     1      -8.301   9.058  71.152  1.00  0.00    -0.159 C  
HETATM    4  C   UNL     1      -9.318   7.936  71.046  1.00  0.00    -0.167 C  
HETATM    5  OXT UNL     1     -11.487   6.044  70.930  1.00  0.00    -0.284 OA 
HETATM    6  CA  UNL     1      -9.897   7.533  69.876  1.00  0.00    -0.187 C  
HETATM    7  N   UNL     1      -9.519   8.123  68.699  1.00  0.00    -0.147 N  
HETATM    8  CA  UNL     1      -8.936   9.382  67.145  1.00  0.00    -0.130 C  
HETATM    9  C   UNL     1     -11.008   6.494  69.899  1.00  0.00    -0.335 C  
HETATM   10  O   UNL     1     -11.420   6.004  68.717  1.00  0.00    -0.177 OA 
HETATM   11  O   UNL     1     -10.886   7.668  66.886  1.00  0.00    -0.328 OA 
HETATM   12  C   UNL     1      -9.968   8.237  67.432  1.00  0.00    -0.209 C  
ENDROOT
BRANCH   4  13
HETATM   13  C   UNL     1      -9.676   7.379  72.424  1.00  0.00    -0.155 C  
BRANCH  13  14
HETATM   14  O   UNL     1      -8.515   6.781  73.041  1.00  0.00    -0.116 OA 
BRANCH  14  15
HETATM   15  C   UNL     1      -8.509   5.424  73.142  1.00  0.00    -0.118 C  
HETATM   16  C   UNL     1      -7.509   4.975  74.165  1.00  0.00    -0.086 C  
HETATM   17  O   UNL     1      -9.242   4.658  72.534  1.00  0.00    -0.126 OA 
ENDBRANCH  14  15
ENDBRANCH  13  14
ENDBRANCH   4  13
BRANCH   8  18
HETATM   18  N   UNL     1      -9.502  10.750  67.116  1.00  0.00    -0.159 N  
HETATM   19  H   UNL     1     -10.505  10.849  67.276  1.00  0.00     0.000 HD 
HETATM   20  C   UNL     1      -8.780  11.898  66.892  1.00  0.00    -0.191 C  
HETATM   21  O   UNL     1      -7.564  11.905  66.734  1.00  0.00    -0.124 OA 
BRANCH  20  22
HETATM   22  CA  UNL     1      -9.666  13.170  66.863  1.00  0.00    -0.243 C  
HETATM   23  H2  UNL     1      -8.262  14.256  65.737  1.00  0.00     0.000 HD 
HETATM   24  N   UNL     1      -8.812  14.362  66.590  1.00  0.00    -0.423 NA 
HETATM   25  H1  UNL     1      -9.395  15.199  66.571  1.00  0.00     0.000 HD 
BRANCH  22  26
HETATM   26  C   UNL     1     -10.458  13.325  68.148  1.00  0.00    -0.251 A  
HETATM   27  C   UNL     1     -11.211  12.240  68.626  1.00  0.00    -0.305 A  
HETATM   28  C   UNL     1     -11.958  12.351  69.801  1.00  0.00    -0.359 A  
HETATM   29  C   UNL     1     -11.956  13.544  70.520  1.00  0.00    -0.344 A  
HETATM   30  C   UNL     1     -11.198  14.622  70.074  1.00  0.00    -0.252 A  
HETATM   31  C   UNL     1     -10.448  14.512  68.901  1.00  0.00    -0.246 A  
ENDBRANCH  22  26
ENDBRANCH  20  22
ENDBRANCH   8  18
TORSDOF 6
ENDMDL
MODEL      175
REMARK 921   NORMALIZED FREE ENERGY PREDICTED BY IDOCK:   -3.51 KCAL/MOL
REMARK 922        TOTAL FREE ENERGY PREDICTED BY IDOCK:   -5.78 KCAL/MOL
REMARK 923 INTER-LIGAND FREE ENERGY PREDICTED BY IDOCK:   -4.61 KCAL/MOL
REMARK 924 INTRA-LIGAND FREE ENERGY PREDICTED BY IDOCK:   -1.17 KCAL/MOL
REMARK 927      BINDING AFFINITY PREDICTED BY RF-SCORE:    0.00 PKD
ROOT
HETATM    1  C   UNL     1     -10.576   9.014  67.899  1.00  0.00    -0.196 C  
HETATM    2  S   UNL     1     -10.368   7.581  66.818  1.00  0.00    -0.204 SA 
HETATM    3  C   UNL     1     -10.947   6.411  68.056  1.00  0.00    -0.311 C  
HETATM    4  C   UNL     1     -10.352   6.580  69.442  1.00  0.00    -0.241 C  
HETATM    5  OXT UNL     1      -8.931   6.758  71.942  1.00  0.00    -0.136 OA 
HETATM    6  CA  UNL     1      -9.775   7.733  69.895  1.00  0.00    -0.176 C  
HETATM    7  N   UNL     1      -9.765   8.842  69.089  1.00  0.00    -0.172 N  
HETATM    8  CA  UNL     1      -9.672  10.243  67.550  1.00  0.00    -0.169 C  
HETATM    9  C   UNL     1      -9.083   7.753  71.249  1.00  0.00    -0.137 C  
HETATM   10  O   UNL     1      -8.689   8.949  71.723  1.00  0.00    -0.312 OA 
HETATM   11  O   UNL     1      -8.378  10.557  69.794  1.00  0.00    -0.087 OA 
HETATM   12  C   UNL     1      -9.126  10.027  69.004  1.00  0.00    -0.171 C  
ENDROOT
BRANCH   4  13
HETATM   13  C   UNL     1     -10.398   5.270  70.230  1.00  0.00    -0.280 C  
BRANCH  13  14
HETATM   14  O   UNL     1      -9.875   4.186  69.433  1.00  0.00    -0.197 OA 
BRANCH  14  15
HETATM   15  C   UNL     1      -8.521   4.072  69.372  1.00  0.00    -0.068 C  
HETATM   16  C   UNL     1      -8.069   3.887  67.954  1.00  0.00    -0.088 C  
HETATM   17  O   UNL     1      -7.752   4.157  70.319  1.00  0.00    -0.048 OA 
ENDBRANCH  14  15
ENDBRANCH  13  14
ENDBRANCH   4  13
BRANCH   8  18
HETATM   18  N   UNL     1      -8.690  10.012  66.466  1.00  0.00    -0.132 N  
HETATM   19  H   UNL     1      -7.822   9.535  66.710  1.00  0.00     0.000 HD 
HETATM   20  C   UNL     1      -8.858  10.391  65.156  1.00  0.00    -0.189 C  
HETATM   21  O   UNL     1      -9.878  10.930  64.739  1.00  0.00    -0.240 OA 
BRANCH  20  22
HETATM   22  CA  UNL     1      -7.627  10.064  64.272  1.00  0.00    -0.141 C  
HETATM   23  H2  UNL     1      -7.665  11.943  63.331  1.00  0.00     0.000 HD 
HETATM   24  N   UNL     1      -7.624  10.956  63.077  1.00  0.00    -0.360 NA 
HETATM   25  H1  UNL     1      -6.814  10.741  62.496  1.00  0.00     0.000 HD 
BRANCH  22  26
HETATM   26  C   UNL     1      -7.595   8.598  63.884  1.00  0.00    -0.127 A  
HETATM   27  C   UNL     1      -7.036   7.664  64.771  1.00  0.00    -0.055 A  
HETATM   28  C   UNL     1      -6.983   6.307  64.441  1.00  0.00    -0.048 A  
HETATM   29  C   UNL     1      -7.498   5.864  63.225  1.00  0.00    -0.073 A  
HETATM   30  C   UNL     1      -8.077   6.772  62.343  1.00  0.00    -0.088 A  
HETATM   31  C   UNL     1      -8.133   8.128  62.673  1.00  0.00    -0.161 A  
ENDBRANCH  22  26
ENDBRANCH  20  22
ENDBRANCH   8  18
TORSDOF 6
ENDMDL
MODEL      176
REMARK 921   NORMALIZED FREE ENERGY PREDICTED BY IDOCK:   -3.50 KCAL/MOL
REMARK 922        TOTAL FREE ENERGY PREDICTED BY IDOCK:   -5.77 KCAL/MOL
REMARK 923 INTER-LIGAND FREE ENERGY PREDICTED BY IDOCK:   -5.09 KCAL/MOL
REMARK 924 INTRA-LIGAND FREE ENERGY PREDICTED BY IDOCK:   -0.67 KCAL/MOL
REMARK 927      BINDING AFFINITY PREDICTED BY RF-SCORE:    0.00 PKD
ROOT
HETATM    1  C   UNL     1      -7.669  11.247  68.558  1.00  0.00    -0.131 C  
HETATM    2  S   UNL     1      -9.440  11.603  68.526  1.00  0.00    -0.134 SA 
HETATM    3  C   UNL     1      -9.900   9.902  68.164  1.00  0.00    -0.147 C  
HETATM    4  C   UNL     1      -9.102   9.234  67.059  1.00  0.00    -0.153 C  
HETATM    5  OXT UNL     1      -7.775   8.157  64.739  1.00  0.00    -0.107 OA 
HETATM    6  CA  UNL     1      -7.869   9.650  66.641  1.00  0.00    -0.105 C  
HETATM    7  N   UNL     1      -7.264  10.703  67.275  1.00  0.00    -0.088 N  
HETATM    8  CA  UNL     1      -6.742  12.469  68.249  1.00  0.00    -0.079 C  
HETATM    9  C   UNL     1      -7.218   8.996  65.432  1.00  0.00    -0.084 C  
HETATM   10  O   UNL     1      -5.938   9.317  65.171  1.00  0.00    -0.058 OA 
HETATM   11  O   UNL     1      -5.415  11.575  66.188  1.00  0.00    -0.258 OA 
HETATM   12  C   UNL     1      -6.254  11.570  67.060  1.00  0.00    -0.134 C  
ENDROOT
BRANCH   4  13
HETATM   13  C   UNL     1      -9.893   8.094  66.414  1.00  0.00    -0.190 C  
BRANCH  13  14
HETATM   14  O   UNL     1     -10.829   7.535  67.361  1.00  0.00    -0.267 OA 
BRANCH  14  15
HETATM   15  C   UNL     1     -10.608   6.249  67.749  1.00  0.00    -0.262 C  
HETATM   16  C   UNL     1     -10.228   6.193  69.199  1.00  0.00    -0.242 C  
HETATM   17  O   UNL     1     -10.744   5.257  67.049  1.00  0.00    -0.229 OA 
ENDBRANCH  14  15
ENDBRANCH  13  14
ENDBRANCH   4  13
BRANCH   8  18
HETATM   18  N   UNL     1      -7.449  13.709  67.853  1.00  0.00    -0.139 N  
HETATM   19  H   UNL     1      -8.318  13.609  67.329  1.00  0.00     0.000 HD 
HETATM   20  C   UNL     1      -7.024  14.984  68.139  1.00  0.00    -0.124 C  
HETATM   21  O   UNL     1      -6.020  15.224  68.801  1.00  0.00    -0.086 OA 
BRANCH  20  22
HETATM   22  CA  UNL     1      -7.948  16.075  67.538  1.00  0.00    -0.144 C  
HETATM   23  H2  UNL     1      -6.941  17.630  68.531  1.00  0.00     0.000 HD 
HETATM   24  N   UNL     1      -7.895  17.296  68.394  1.00  0.00    -0.244 NA 
HETATM   25  H1  UNL     1      -8.502  18.013  67.999  1.00  0.00     0.000 HD 
BRANCH  22  26
HETATM   26  C   UNL     1      -9.367  15.567  67.364  1.00  0.00    -0.211 A  
HETATM   27  C   UNL     1      -9.697  14.832  66.214  1.00  0.00    -0.326 A  
HETATM   28  C   UNL     1     -10.996  14.357  66.018  1.00  0.00    -0.316 A  
HETATM   29  C   UNL     1     -11.980  14.602  66.972  1.00  0.00    -0.301 A  
HETATM   30  C   UNL     1     -11.666  15.309  68.129  1.00  0.00    -0.297 A  
HETATM   31  C   UNL     1     -10.367  15.782  68.327  1.00  0.00    -0.239 A  
ENDBRANCH  22  26
ENDBRANCH  20  22
ENDBRANCH   8  18
TORSDOF 6
ENDMDL
MODEL      177
REMARK 921   NORMALIZED FREE ENERGY PREDICTED BY IDOCK:   -3.49 KCAL/MOL
REMARK 922        TOTAL FREE ENERGY PREDICTED BY IDOCK:   -5.75 KCAL/MOL
REMARK 923 INTER-LIGAND FREE ENERGY PREDICTED BY IDOCK:   -6.60 KCAL/MOL
REMARK 924 INTRA-LIGAND FREE ENERGY PREDICTED BY IDOCK:    0.85 KCAL/MOL
REMARK 927      BINDING AFFINITY PREDICTED BY RF-SCORE:    0.00 PKD
ROOT
HETATM    1  C   UNL     1      -8.373  15.407  67.108  1.00  0.00    -0.219 C  
HETATM    2  S   UNL     1      -8.004  14.933  68.812  1.00  0.00    -0.164 SA 
HETATM    3  C   UNL     1      -7.107  13.448  68.333  1.00  0.00    -0.108 C  
HETATM    4  C   UNL     1      -7.792  12.582  67.291  1.00  0.00    -0.160 C  
HETATM    5  OXT UNL     1      -9.304  10.835  65.571  1.00  0.00    -0.188 OA 
HETATM    6  CA  UNL     1      -8.762  13.027  66.439  1.00  0.00     0.184 C  
HETATM    7  N   UNL     1      -9.127  14.348  66.465  1.00  0.00    -0.240 N  
HETATM    8  CA  UNL     1      -9.637  16.313  66.932  1.00  0.00    -0.232 C  
HETATM    9  C   UNL     1      -9.483  12.043  65.530  1.00  0.00    -0.104 C  
HETATM   10  O   UNL     1     -10.299  12.554  64.590  1.00  0.00    -0.298 OA 
HETATM   11  O   UNL     1     -11.067  14.857  65.307  1.00  0.00    -0.340 OA 
HETATM   12  C   UNL     1     -10.141  15.128  66.038  1.00  0.00    -0.302 C  
ENDROOT
BRANCH   4  13
HETATM   13  C   UNL     1      -7.321  11.129  67.381  1.00  0.00    -0.108 C  
BRANCH  13  14
HETATM   14  O   UNL     1      -6.879  10.827  68.722  1.00  0.00    -0.060 OA 
BRANCH  14  15
HETATM   15  C   UNL     1      -7.332   9.666  69.266  1.00  0.00    -0.079 C  
HETATM   16  C   UNL     1      -8.715   9.844  69.816  1.00  0.00    -0.229 C  
HETATM   17  O   UNL     1      -6.735   8.598  69.273  1.00  0.00    -0.048 OA 
ENDBRANCH  14  15
ENDBRANCH  13  14
ENDBRANCH   4  13
BRANCH   8  18
HETATM   18  N   UNL     1     -10.417  16.548  68.168  1.00  0.00    -0.298 N  
HETATM   19  H   UNL     1     -10.200  17.383  68.712  1.00  0.00     0.000 HD 
HETATM   20  C   UNL     1     -11.414  15.726  68.639  1.00  0.00    -0.386 C  
HETATM   21  O   UNL     1     -11.791  14.721  68.046  1.00  0.00    -0.336 OA 
BRANCH  20  22
HETATM   22  CA  UNL     1     -12.003  16.209  69.990  1.00  0.00    -0.044 C  
HETATM   23  H2  UNL     1     -10.555  17.717  70.208  1.00  0.00     0.000 HD 
HETATM   24  N   UNL     1     -10.955  16.951  70.750  1.00  0.00    -0.077 NA 
HETATM   25  H1  UNL     1     -11.342  17.268  71.638  1.00  0.00     0.000 HD 
BRANCH  22  26
HETATM   26  C   UNL     1     -12.571  15.053  70.793  1.00  0.00    -0.429 A  
HETATM   27  C   UNL     1     -13.439  15.323  71.863  1.00  0.00    -0.547 A  
HETATM   28  C   UNL     1     -13.974  14.283  72.628  1.00  0.00    -0.400 A  
HETATM   29  C   UNL     1     -13.656  12.961  72.329  1.00  0.00    -0.611 A  
HETATM   30  C   UNL     1     -12.816  12.674  71.257  1.00  0.00    -0.344 A  
HETATM   31  C   UNL     1     -12.283  13.712  70.489  1.00  0.00    -0.438 A  
ENDBRANCH  22  26
ENDBRANCH  20  22
ENDBRANCH   8  18
TORSDOF 6
ENDMDL
MODEL      178
REMARK 921   NORMALIZED FREE ENERGY PREDICTED BY IDOCK:   -3.47 KCAL/MOL
REMARK 922        TOTAL FREE ENERGY PREDICTED BY IDOCK:   -5.73 KCAL/MOL
REMARK 923 INTER-LIGAND FREE ENERGY PREDICTED BY IDOCK:   -5.12 KCAL/MOL
REMARK 924 INTRA-LIGAND FREE ENERGY PREDICTED BY IDOCK:   -0.60 KCAL/MOL
REMARK 927      BINDING AFFINITY PREDICTED BY RF-SCORE:    0.00 PKD
ROOT
HETATM    1  C   UNL     1      -5.686  12.103  68.607  1.00  0.00    -0.053 C  
HETATM    2  S   UNL     1      -5.694  12.616  70.340  1.00  0.00    -0.156 SA 
HETATM    3  C   UNL     1      -5.344  10.963  70.958  1.00  0.00    -0.099 C  
HETATM    4  C   UNL     1      -6.179   9.851  70.351  1.00  0.00    -0.094 C  
HETATM    5  OXT UNL     1      -8.027   7.856  69.398  1.00  0.00    -0.112 OA 
HETATM    6  CA  UNL     1      -6.830   9.945  69.153  1.00  0.00    -0.055 C  
HETATM    7  N   UNL     1      -6.698  11.084  68.403  1.00  0.00    -0.058 N  
HETATM    8  CA  UNL     1      -6.515  13.015  67.643  1.00  0.00    -0.160 C  
HETATM    9  C   UNL     1      -7.755   8.824  68.703  1.00  0.00    -0.098 C  
HETATM   10  O   UNL     1      -8.230   8.883  67.446  1.00  0.00    -0.108 OA 
HETATM   11  O   UNL     1      -8.193  11.284  66.646  1.00  0.00    -0.155 OA 
HETATM   12  C   UNL     1      -7.314  11.694  67.369  1.00  0.00    -0.128 C  
ENDROOT
BRANCH   4  13
HETATM   13  C   UNL     1      -6.273   8.649  71.292  1.00  0.00    -0.050 C  
BRANCH  13  14
HETATM   14  O   UNL     1      -6.824   9.051  72.565  1.00  0.00    -0.313 OA 
BRANCH  14  15
HETATM   15  C   UNL     1      -8.058   8.568  72.875  1.00  0.00    -0.024 C  
HETATM   16  C   UNL     1      -8.055   7.951  74.242  1.00  0.00    -0.295 C  
HETATM   17  O   UNL     1      -9.058   8.657  72.177  1.00  0.00    -0.242 OA 
ENDBRANCH  14  15
ENDBRANCH  13  14
ENDBRANCH   4  13
BRANCH   8  18
HETATM   18  N   UNL     1      -7.286  14.092  68.306  1.00  0.00    -0.103 N  
HETATM   19  H   UNL     1      -8.097  13.819  68.861  1.00  0.00     0.000 HD 
HETATM   20  C   UNL     1      -6.992  15.433  68.231  1.00  0.00    -0.116 C  
HETATM   21  O   UNL     1      -6.018  15.874  67.631  1.00  0.00    -0.137 OA 
BRANCH  20  22
HETATM   22  CA  UNL     1      -8.021  16.317  68.983  1.00  0.00    -0.238 C  
HETATM   23  H2  UNL     1      -8.626  14.740  70.234  1.00  0.00     0.000 HD 
HETATM   24  N   UNL     1      -9.045  15.445  69.628  1.00  0.00    -0.389 NA 
HETATM   25  H1  UNL     1      -9.721  16.026  70.122  1.00  0.00     0.000 HD 
BRANCH  22  26
HETATM   26  C   UNL     1      -8.651  17.344  68.061  1.00  0.00    -0.240 A  
HETATM   27  C   UNL     1     -10.046  17.359  67.902  1.00  0.00    -0.326 A  
HETATM   28  C   UNL     1     -10.659  18.285  67.055  1.00  0.00    -0.375 A  
HETATM   29  C   UNL     1      -9.887  19.215  66.362  1.00  0.00    -0.437 A  
HETATM   30  C   UNL     1      -8.505  19.229  66.524  1.00  0.00    -0.336 A  
HETATM   31  C   UNL     1      -7.891  18.306  67.374  1.00  0.00    -0.229 A  
ENDBRANCH  22  26
ENDBRANCH  20  22
ENDBRANCH   8  18
TORSDOF 6
ENDMDL
MODEL      179
REMARK 921   NORMALIZED FREE ENERGY PREDICTED BY IDOCK:   -3.46 KCAL/MOL
REMARK 922        TOTAL FREE ENERGY PREDICTED BY IDOCK:   -5.71 KCAL/MOL
REMARK 923 INTER-LIGAND FREE ENERGY PREDICTED BY IDOCK:   -5.03 KCAL/MOL
REMARK 924 INTRA-LIGAND FREE ENERGY PREDICTED BY IDOCK:   -0.69 KCAL/MOL
REMARK 927      BINDING AFFINITY PREDICTED BY RF-SCORE:    0.00 PKD
ROOT
HETATM    1  C   UNL     1     -11.131   8.856  68.055  1.00  0.00     0.268 C  
HETATM    2  S   UNL     1     -10.863   9.474  69.732  1.00  0.00    -0.238 SA 
HETATM    3  C   UNL     1     -11.815  10.976  69.461  1.00  0.00    -0.333 C  
HETATM    4  C   UNL     1     -11.506  11.719  68.173  1.00  0.00    -0.382 C  
HETATM    5  OXT UNL     1     -10.628  13.236  65.887  1.00  0.00    -0.274 OA 
HETATM    6  CA  UNL     1     -10.913  11.151  67.082  1.00  0.00    -0.291 C  
HETATM    7  N   UNL     1     -10.611   9.814  67.099  1.00  0.00    -0.248 N  
HETATM    8  CA  UNL     1     -10.044   7.858  67.535  1.00  0.00    -0.213 C  
HETATM    9  C   UNL     1     -10.520  12.018  65.895  1.00  0.00    -0.255 C  
HETATM   10  O   UNL     1     -10.104  11.389  64.781  1.00  0.00    -0.245 OA 
HETATM   11  O   UNL     1      -9.220   9.098  65.392  1.00  0.00    -0.219 OA 
HETATM   12  C   UNL     1      -9.841   8.940  66.419  1.00  0.00    -0.283 C  
ENDROOT
BRANCH   4  13
HETATM   13  C   UNL     1     -11.862  13.202  68.289  1.00  0.00    -0.349 C  
BRANCH  13  14
HETATM   14  O   UNL     1     -11.381  13.737  69.542  1.00  0.00    -0.260 OA 
BRANCH  14  15
HETATM   15  C   UNL     1     -11.558  15.071  69.744  1.00  0.00    -0.304 C  
HETATM   16  C   UNL     1     -11.674  15.372  71.208  1.00  0.00    -0.433 C  
HETATM   17  O   UNL     1     -11.573  15.930  68.874  1.00  0.00    -0.371 OA 
ENDBRANCH  14  15
ENDBRANCH  13  14
ENDBRANCH   4  13
BRANCH   8  18
HETATM   18  N   UNL     1      -8.889   7.661  68.441  1.00  0.00    -0.130 N  
HETATM   19  H   UNL     1      -8.889   8.173  69.323  1.00  0.00     0.000 HD 
HETATM   20  C   UNL     1      -7.816   6.841  68.183  1.00  0.00    -0.113 C  
HETATM   21  O   UNL     1      -7.730   6.145  67.177  1.00  0.00    -0.098 OA 
BRANCH  20  22
HETATM   22  CA  UNL     1      -6.738   6.894  69.297  1.00  0.00    -0.050 C  
HETATM   23  H2  UNL     1      -5.603   8.344  68.282  1.00  0.00     0.000 HD 
HETATM   24  N   UNL     1      -5.469   7.439  68.732  1.00  0.00    -0.021 NA 
HETATM   25  H1  UNL     1      -4.760   7.473  69.464  1.00  0.00     0.000 HD 
BRANCH  22  26
HETATM   26  C   UNL     1      -6.534   5.534  69.938  1.00  0.00    -0.034 A  
HETATM   27  C   UNL     1      -7.126   5.266  71.183  1.00  0.00    -0.061 A  
HETATM   28  C   UNL     1      -6.952   4.028  71.805  1.00  0.00    -0.037 A  
HETATM   29  C   UNL     1      -6.191   3.037  71.188  1.00  0.00    -0.018 A  
HETATM   30  C   UNL     1      -5.616   3.277  69.944  1.00  0.00    -0.017 A  
HETATM   31  C   UNL     1      -5.792   4.514  69.319  1.00  0.00    -0.018 A  
ENDBRANCH  22  26
ENDBRANCH  20  22
ENDBRANCH   8  18
TORSDOF 6
ENDMDL
MODEL      180
REMARK 921   NORMALIZED FREE ENERGY PREDICTED BY IDOCK:   -3.42 KCAL/MOL
REMARK 922        TOTAL FREE ENERGY PREDICTED BY IDOCK:   -5.65 KCAL/MOL
REMARK 923 INTER-LIGAND FREE ENERGY PREDICTED BY IDOCK:   -5.26 KCAL/MOL
REMARK 924 INTRA-LIGAND FREE ENERGY PREDICTED BY IDOCK:   -0.38 KCAL/MOL
REMARK 927      BINDING AFFINITY PREDICTED BY RF-SCORE:    0.00 PKD
ROOT
HETATM    1  C   UNL     1     -11.098   7.271  69.930  1.00  0.00    -0.212 C  
HETATM    2  S   UNL     1     -11.105   6.873  68.167  1.00  0.00    -0.012 SA 
HETATM    3  C   UNL     1     -10.175   5.349  68.383  1.00  0.00    -0.163 C  
HETATM    4  C   UNL     1      -8.949   5.454  69.271  1.00  0.00    -0.122 C  
HETATM    5  OXT UNL     1      -6.467   5.816  70.689  1.00  0.00    -0.030 OA 
HETATM    6  CA  UNL     1      -8.752   6.442  70.195  1.00  0.00    -0.139 C  
HETATM    7  N   UNL     1      -9.728   7.382  70.393  1.00  0.00    -0.176 N  
HETATM    8  CA  UNL     1     -11.257   8.791  70.266  1.00  0.00    -0.195 C  
HETATM    9  C   UNL     1      -7.425   6.535  70.933  1.00  0.00    -0.084 C  
HETATM   10  O   UNL     1      -7.345   7.410  71.952  1.00  0.00    -0.076 OA 
HETATM   11  O   UNL     1      -9.081   9.225  71.637  1.00  0.00    -0.315 OA 
HETATM   12  C   UNL     1      -9.861   8.602  70.954  1.00  0.00    -0.205 C  
ENDROOT
BRANCH   4  13
HETATM   13  C   UNL     1      -7.925   4.368  68.936  1.00  0.00    -0.073 C  
BRANCH  13  14
HETATM   14  O   UNL     1      -7.383   4.581  67.615  1.00  0.00    -0.068 OA 
BRANCH  14  15
HETATM   15  C   UNL     1      -6.979   5.846  67.318  1.00  0.00    -0.069 C  
HETATM   16  C   UNL     1      -5.502   5.994  67.532  1.00  0.00    -0.005 C  
HETATM   17  O   UNL     1      -7.691   6.742  66.886  1.00  0.00    -0.099 OA 
ENDBRANCH  14  15
ENDBRANCH  13  14
ENDBRANCH   4  13
BRANCH   8  18
HETATM   18  N   UNL     1     -11.266   9.696  69.094  1.00  0.00    -0.443 N  
HETATM   19  H   UNL     1     -11.032   9.293  68.186  1.00  0.00     0.000 HD 
HETATM   20  C   UNL     1     -11.564  11.037  69.135  1.00  0.00    -0.319 C  
HETATM   21  O   UNL     1     -11.903  11.618  70.160  1.00  0.00    -0.330 OA 
BRANCH  20  22
HETATM   22  CA  UNL     1     -11.428  11.726  67.752  1.00  0.00    -0.311 C  
HETATM   23  H2  UNL     1     -10.958   9.924  66.778  1.00  0.00     0.000 HD 
HETATM   24  N   UNL     1     -10.595  10.874  66.854  1.00  0.00    -0.250 NA 
HETATM   25  H1  UNL     1     -10.505  11.327  65.945  1.00  0.00     0.000 HD 
BRANCH  22  26
HETATM   26  C   UNL     1     -10.864  13.128  67.883  1.00  0.00    -0.260 A  
HETATM   27  C   UNL     1      -9.472  13.314  67.859  1.00  0.00    -0.214 A  
HETATM   28  C   UNL     1      -8.919  14.590  67.986  1.00  0.00    -0.180 A  
HETATM   29  C   UNL     1      -9.749  15.700  68.128  1.00  0.00    -0.204 A  
HETATM   30  C   UNL     1     -11.131  15.538  68.130  1.00  0.00    -0.325 A  
HETATM   31  C   UNL     1     -11.685  14.262  68.001  1.00  0.00    -0.386 A  
ENDBRANCH  22  26
ENDBRANCH  20  22
ENDBRANCH   8  18
TORSDOF 6
ENDMDL
MODEL      181
REMARK 921   NORMALIZED FREE ENERGY PREDICTED BY IDOCK:   -3.39 KCAL/MOL
REMARK 922        TOTAL FREE ENERGY PREDICTED BY IDOCK:   -5.62 KCAL/MOL
REMARK 923 INTER-LIGAND FREE ENERGY PREDICTED BY IDOCK:   -4.77 KCAL/MOL
REMARK 924 INTRA-LIGAND FREE ENERGY PREDICTED BY IDOCK:   -0.85 KCAL/MOL
REMARK 927      BINDING AFFINITY PREDICTED BY RF-SCORE:    0.00 PKD
ROOT
HETATM    1  C   UNL     1      -7.106   7.184  68.752  1.00  0.00    -0.088 C  
HETATM    2  S   UNL     1      -7.306   7.000  70.538  1.00  0.00    -0.077 SA 
HETATM    3  C   UNL     1      -6.552   5.367  70.577  1.00  0.00    -0.042 C  
HETATM    4  C   UNL     1      -7.043   4.398  69.518  1.00  0.00    -0.050 C  
HETATM    5  OXT UNL     1      -8.266   2.527  67.700  1.00  0.00    -0.067 OA 
HETATM    6  CA  UNL     1      -7.656   4.775  68.356  1.00  0.00    -0.077 C  
HETATM    7  N   UNL     1      -7.805   6.107  68.076  1.00  0.00    -0.105 N  
HETATM    8  CA  UNL     1      -8.115   8.168  68.071  1.00  0.00    -0.128 C  
HETATM    9  C   UNL     1      -8.237   3.718  67.428  1.00  0.00    -0.090 C  
HETATM   10  O   UNL     1      -8.669   4.127  66.222  1.00  0.00    -0.112 OA 
HETATM   11  O   UNL     1      -9.241   6.590  66.324  1.00  0.00    -0.159 OA 
HETATM   12  C   UNL     1      -8.526   6.896  67.251  1.00  0.00    -0.121 C  
ENDROOT
BRANCH   4  13
HETATM   13  C   UNL     1      -6.847   2.946  69.959  1.00  0.00    -0.034 C  
BRANCH  13  14
HETATM   14  O   UNL     1      -8.045   2.448  70.593  1.00  0.00    -0.045 OA 
BRANCH  14  15
HETATM   15  C   UNL     1      -8.251   2.822  71.885  1.00  0.00    -0.058 C  
HETATM   16  C   UNL     1      -9.655   3.314  72.075  1.00  0.00    -0.215 C  
HETATM   17  O   UNL     1      -7.440   2.731  72.795  1.00  0.00    -0.043 OA 
ENDBRANCH  14  15
ENDBRANCH  13  14
ENDBRANCH   4  13
BRANCH   8  18
HETATM   18  N   UNL     1      -9.164   8.709  68.964  1.00  0.00    -0.145 N  
HETATM   19  H   UNL     1      -9.031   8.597  69.969  1.00  0.00     0.000 HD 
HETATM   20  C   UNL     1     -10.304   9.352  68.543  1.00  0.00    -0.209 C  
HETATM   21  O   UNL     1     -10.547   9.583  67.363  1.00  0.00    -0.268 OA 
BRANCH  20  22
HETATM   22  CA  UNL     1     -11.238   9.749  69.715  1.00  0.00    -0.202 C  
HETATM   23  H2  UNL     1     -10.903  11.804  69.431  1.00  0.00     0.000 HD 
HETATM   24  N   UNL     1     -10.886  11.119  70.187  1.00  0.00    -0.415 NA 
HETATM   25  H1  UNL     1     -11.500  11.381  70.957  1.00  0.00     0.000 HD 
BRANCH  22  26
HETATM   26  C   UNL     1     -11.182   8.732  70.840  1.00  0.00    -0.320 A  
HETATM   27  C   UNL     1     -11.976   7.577  70.762  1.00  0.00    -0.224 A  
HETATM   28  C   UNL     1     -11.955   6.624  71.784  1.00  0.00    -0.391 A  
HETATM   29  C   UNL     1     -11.133   6.808  72.893  1.00  0.00    -0.277 A  
HETATM   30  C   UNL     1     -10.321   7.935  72.976  1.00  0.00    -0.401 A  
HETATM   31  C   UNL     1     -10.339   8.887  71.954  1.00  0.00    -0.407 A  
ENDBRANCH  22  26
ENDBRANCH  20  22
ENDBRANCH   8  18
TORSDOF 6
ENDMDL
MODEL      182
REMARK 921   NORMALIZED FREE ENERGY PREDICTED BY IDOCK:   -3.35 KCAL/MOL
REMARK 922        TOTAL FREE ENERGY PREDICTED BY IDOCK:   -5.55 KCAL/MOL
REMARK 923 INTER-LIGAND FREE ENERGY PREDICTED BY IDOCK:   -4.61 KCAL/MOL
REMARK 924 INTRA-LIGAND FREE ENERGY PREDICTED BY IDOCK:   -0.94 KCAL/MOL
REMARK 927      BINDING AFFINITY PREDICTED BY RF-SCORE:    0.00 PKD
ROOT
HETATM    1  C   UNL     1      -7.837   9.910  66.909  1.00  0.00    -0.102 C  
HETATM    2  S   UNL     1      -7.528   8.385  67.827  1.00  0.00    -0.099 SA 
HETATM    3  C   UNL     1      -6.359   7.749  66.617  1.00  0.00    -0.050 C  
HETATM    4  C   UNL     1      -6.803   7.847  65.168  1.00  0.00    -0.051 C  
HETATM    5  OXT UNL     1      -7.858   7.765  62.489  1.00  0.00    -0.120 OA 
HETATM    6  CA  UNL     1      -7.765   8.706  64.716  1.00  0.00    -0.108 C  
HETATM    7  N   UNL     1      -8.348   9.584  65.591  1.00  0.00    -0.122 N  
HETATM    8  CA  UNL     1      -9.217  10.588  67.196  1.00  0.00    -0.143 C  
HETATM    9  C   UNL     1      -8.235   8.625  63.271  1.00  0.00    -0.162 C  
HETATM   10  O   UNL     1      -9.049   9.601  62.831  1.00  0.00    -0.258 OA 
HETATM   11  O   UNL     1     -10.248  10.645  64.801  1.00  0.00    -0.325 OA 
HETATM   12  C   UNL     1      -9.442  10.370  65.660  1.00  0.00    -0.211 C  
ENDROOT
BRANCH   4  13
HETATM   13  C   UNL     1      -6.103   6.800  64.300  1.00  0.00    -0.035 C  
BRANCH  13  14
HETATM   14  O   UNL     1      -6.343   5.475  64.821  1.00  0.00    -0.035 OA 
BRANCH  14  15
HETATM   15  C   UNL     1      -7.620   5.012  64.746  1.00  0.00    -0.078 C  
HETATM   16  C   UNL     1      -8.133   4.652  66.109  1.00  0.00    -0.103 C  
HETATM   17  O   UNL     1      -8.296   4.939  63.730  1.00  0.00    -0.116 OA 
ENDBRANCH  14  15
ENDBRANCH  13  14
ENDBRANCH   4  13
BRANCH   8  18
HETATM   18  N   UNL     1     -10.122   9.820  68.082  1.00  0.00    -0.158 N  
HETATM   19  H   UNL     1     -10.199   8.816  67.920  1.00  0.00     0.000 HD 
HETATM   20  C   UNL     1     -10.865  10.356  69.106  1.00  0.00    -0.236 C  
HETATM   21  O   UNL     1     -10.817  11.540  69.421  1.00  0.00    -0.210 OA 
BRANCH  20  22
HETATM   22  CA  UNL     1     -11.761   9.305  69.813  1.00  0.00     0.290 C  
HETATM   23  H2  UNL     1     -13.396  10.620  69.934  1.00  0.00     0.000 HD 
HETATM   24  N   UNL     1     -12.860  10.002  70.542  1.00  0.00    -0.556 NA 
HETATM   25  H1  UNL     1     -13.449   9.312  71.007  1.00  0.00     0.000 HD 
BRANCH  22  26
HETATM   26  C   UNL     1     -10.950   8.411  70.732  1.00  0.00    -0.276 A  
HETATM   27  C   UNL     1     -10.909   8.696  72.106  1.00  0.00    -0.424 A  
HETATM   28  C   UNL     1     -10.166   7.898  72.980  1.00  0.00    -0.394 A  
HETATM   29  C   UNL     1      -9.461   6.800  72.493  1.00  0.00    -0.151 A  
HETATM   30  C   UNL     1      -9.509   6.488  71.138  1.00  0.00    -0.173 A  
HETATM   31  C   UNL     1     -10.254   7.283  70.264  1.00  0.00    -0.205 A  
ENDBRANCH  22  26
ENDBRANCH  20  22
ENDBRANCH   8  18
TORSDOF 6
ENDMDL
MODEL      183
REMARK 921   NORMALIZED FREE ENERGY PREDICTED BY IDOCK:   -3.34 KCAL/MOL
REMARK 922        TOTAL FREE ENERGY PREDICTED BY IDOCK:   -5.55 KCAL/MOL
REMARK 923 INTER-LIGAND FREE ENERGY PREDICTED BY IDOCK:   -4.88 KCAL/MOL
REMARK 924 INTRA-LIGAND FREE ENERGY PREDICTED BY IDOCK:   -0.67 KCAL/MOL
REMARK 927      BINDING AFFINITY PREDICTED BY RF-SCORE:    0.00 PKD
ROOT
HETATM    1  C   UNL     1      -8.375  14.450  67.046  1.00  0.00    -0.145 C  
HETATM    2  S   UNL     1      -8.334  14.864  68.805  1.00  0.00    -0.175 SA 
HETATM    3  C   UNL     1      -9.494  13.567  69.262  1.00  0.00     0.659 C  
HETATM    4  C   UNL     1     -10.737  13.470  68.395  1.00  0.00    -0.273 C  
HETATM    5  OXT UNL     1     -13.207  13.569  66.917  1.00  0.00     0.858 OA 
HETATM    6  CA  UNL     1     -10.831  13.974  67.129  1.00  0.00    -0.286 C  
HETATM    7  N   UNL     1      -9.736  14.565  66.556  1.00  0.00    -0.273 N  
HETATM    8  CA  UNL     1      -8.006  15.624  66.081  1.00  0.00     0.621 C  
HETATM    9  C   UNL     1     -12.166  13.947  66.400  1.00  0.00    -0.449 C  
HETATM   10  O   UNL     1     -12.167  14.291  65.099  1.00  0.00    -0.396 OA 
HETATM   11  O   UNL     1     -10.162  15.759  64.618  1.00  0.00    -0.296 OA 
HETATM   12  C   UNL     1      -9.449  15.380  65.520  1.00  0.00    -0.125 C  
ENDROOT
BRANCH   4  13
HETATM   13  C   UNL     1     -11.894  12.817  69.153  1.00  0.00    -0.301 C  
BRANCH  13  14
HETATM   14  O   UNL     1     -12.008  11.424  68.791  1.00  0.00    -0.412 OA 
BRANCH  14  15
HETATM   15  C   UNL     1     -11.588  10.517  69.714  1.00  0.00    -0.294 C  
HETATM   16  C   UNL     1     -12.653  10.279  70.743  1.00  0.00    -0.442 C  
HETATM   17  O   UNL     1     -10.519   9.926  69.701  1.00  0.00    -0.214 OA 
ENDBRANCH  14  15
ENDBRANCH  13  14
ENDBRANCH   4  13
BRANCH   8  18
HETATM   18  N   UNL     1      -7.797  16.935  66.738  1.00  0.00    -0.216 N  
HETATM   19  H   UNL     1      -8.569  17.316  67.285  1.00  0.00     0.000 HD 
HETATM   20  C   UNL     1      -6.643  17.678  66.666  1.00  0.00    -0.208 C  
HETATM   21  O   UNL     1      -5.637  17.300  66.075  1.00  0.00    -0.287 OA 
BRANCH  20  22
HETATM   22  CA  UNL     1      -6.754  19.034  67.410  1.00  0.00    -0.202 C  
HETATM   23  H2  UNL     1      -5.015  18.683  68.537  1.00  0.00     0.000 HD 
HETATM   24  N   UNL     1      -5.984  18.963  68.686  1.00  0.00    -0.213 NA 
HETATM   25  H1  UNL     1      -6.057  19.855  69.175  1.00  0.00     0.000 HD 
BRANCH  22  26
HETATM   26  C   UNL     1      -8.202  19.423  67.644  1.00  0.00    -0.329 A  
HETATM   27  C   UNL     1      -8.758  19.261  68.923  1.00  0.00    -0.334 A  
HETATM   28  C   UNL     1     -10.090  19.601  69.172  1.00  0.00    -0.386 A  
HETATM   29  C   UNL     1     -10.882  20.116  68.148  1.00  0.00     0.100 A  
HETATM   30  C   UNL     1     -10.341  20.306  66.880  1.00  0.00    -0.418 A  
HETATM   31  C   UNL     1      -9.008  19.969  66.631  1.00  0.00    -0.446 A  
ENDBRANCH  22  26
ENDBRANCH  20  22
ENDBRANCH   8  18
TORSDOF 6
ENDMDL
MODEL      184
REMARK 921   NORMALIZED FREE ENERGY PREDICTED BY IDOCK:   -3.34 KCAL/MOL
REMARK 922        TOTAL FREE ENERGY PREDICTED BY IDOCK:   -5.55 KCAL/MOL
REMARK 923 INTER-LIGAND FREE ENERGY PREDICTED BY IDOCK:   -4.47 KCAL/MOL
REMARK 924 INTRA-LIGAND FREE ENERGY PREDICTED BY IDOCK:   -1.07 KCAL/MOL
REMARK 927      BINDING AFFINITY PREDICTED BY RF-SCORE:    0.00 PKD
ROOT
HETATM    1  C   UNL     1     -10.548   6.484  67.517  1.00  0.00    -0.280 C  
HETATM    2  S   UNL     1      -9.385   5.600  66.453  1.00  0.00    -0.156 SA 
HETATM    3  C   UNL     1      -8.893   4.447  67.744  1.00  0.00    -0.109 C  
HETATM    4  C   UNL     1      -8.576   5.073  69.090  1.00  0.00    -0.098 C  
HETATM    5  OXT UNL     1      -7.675   6.366  71.501  1.00  0.00    -0.097 OA 
HETATM    6  CA  UNL     1      -9.015   6.304  69.487  1.00  0.00    -0.134 C  
HETATM    7  N   UNL     1      -9.839   7.023  68.662  1.00  0.00    -0.145 N  
HETATM    8  CA  UNL     1     -10.840   7.962  67.094  1.00  0.00    -0.116 C  
HETATM    9  C   UNL     1      -8.524   6.897  70.799  1.00  0.00    -0.136 C  
HETATM   10  O   UNL     1      -9.118   8.025  71.228  1.00  0.00    -0.132 OA 
HETATM   11  O   UNL     1     -10.131   9.243  69.254  1.00  0.00    -0.186 OA 
HETATM   12  C   UNL     1     -10.273   8.293  68.518  1.00  0.00    -0.208 C  
ENDROOT
BRANCH   4  13
HETATM   13  C   UNL     1      -7.630   4.189  69.904  1.00  0.00    -0.052 C  
BRANCH  13  14
HETATM   14  O   UNL     1      -8.336   3.039  70.419  1.00  0.00    -0.048 OA 
BRANCH  14  15
HETATM   15  C   UNL     1      -8.552   3.007  71.761  1.00  0.00    -0.072 C  
HETATM   16  C   UNL     1      -9.969   3.382  72.078  1.00  0.00    -0.222 C  
HETATM   17  O   UNL     1      -7.738   2.672  72.610  1.00  0.00    -0.051 OA 
ENDBRANCH  14  15
ENDBRANCH  13  14
ENDBRANCH   4  13
BRANCH   8  18
HETATM   18  N   UNL     1     -10.029   8.462  65.961  1.00  0.00    -0.462 N  
HETATM   19  H   UNL     1      -9.550   7.772  65.382  1.00  0.00     0.000 HD 
HETATM   20  C   UNL     1      -9.871   9.787  65.628  1.00  0.00    -0.301 C  
HETATM   21  O   UNL     1     -10.434  10.700  66.223  1.00  0.00    -0.243 OA 
BRANCH  20  22
HETATM   22  CA  UNL     1      -8.912   9.995  64.427  1.00  0.00    -0.231 C  
HETATM   23  H2  UNL     1     -10.455  10.680  63.174  1.00  0.00     0.000 HD 
HETATM   24  N   UNL     1      -9.700   9.995  63.159  1.00  0.00    -0.531 NA 
HETATM   25  H1  UNL     1      -9.070  10.132  62.370  1.00  0.00     0.000 HD 
BRANCH  22  26
HETATM   26  C   UNL     1      -7.810   8.952  64.408  1.00  0.00    -0.128 A  
HETATM   27  C   UNL     1      -7.839   7.940  63.435  1.00  0.00    -0.139 A  
HETATM   28  C   UNL     1      -6.845   6.960  63.394  1.00  0.00    -0.048 A  
HETATM   29  C   UNL     1      -5.803   6.983  64.318  1.00  0.00    -0.036 A  
HETATM   30  C   UNL     1      -5.746   7.992  65.275  1.00  0.00    -0.041 A  
HETATM   31  C   UNL     1      -6.738   8.974  65.315  1.00  0.00    -0.068 A  
ENDBRANCH  22  26
ENDBRANCH  20  22
ENDBRANCH   8  18
TORSDOF 6
ENDMDL
MODEL      185
REMARK 921   NORMALIZED FREE ENERGY PREDICTED BY IDOCK:   -3.30 KCAL/MOL
REMARK 922        TOTAL FREE ENERGY PREDICTED BY IDOCK:   -5.50 KCAL/MOL
REMARK 923 INTER-LIGAND FREE ENERGY PREDICTED BY IDOCK:   -6.06 KCAL/MOL
REMARK 924 INTRA-LIGAND FREE ENERGY PREDICTED BY IDOCK:    0.56 KCAL/MOL
REMARK 927      BINDING AFFINITY PREDICTED BY RF-SCORE:    0.00 PKD
ROOT
HETATM    1  C   UNL     1      -7.567   8.447  67.688  1.00  0.00    -0.098 C  
HETATM    2  S   UNL     1      -8.493   9.505  68.823  1.00  0.00    -0.125 SA 
HETATM    3  C   UNL     1      -8.580   8.253  70.113  1.00  0.00    -0.128 C  
HETATM    4  C   UNL     1      -8.988   6.867  69.648  1.00  0.00    -0.144 C  
HETATM    5  OXT UNL     1     -10.088   4.363  68.743  1.00  0.00    -0.070 OA 
HETATM    6  CA  UNL     1      -8.887   6.429  68.358  1.00  0.00    -0.119 C  
HETATM    7  N   UNL     1      -8.338   7.250  67.409  1.00  0.00    -0.119 N  
HETATM    8  CA  UNL     1      -7.718   8.809  66.173  1.00  0.00    -0.101 C  
HETATM    9  C   UNL     1      -9.456   5.071  67.973  1.00  0.00    -0.131 C  
HETATM   10  O   UNL     1      -9.176   4.612  66.740  1.00  0.00    -0.116 OA 
HETATM   11  O   UNL     1      -8.642   6.564  65.218  1.00  0.00    -0.123 OA 
HETATM   12  C   UNL     1      -8.281   7.349  66.065  1.00  0.00    -0.130 C  
ENDROOT
BRANCH   4  13
HETATM   13  C   UNL     1      -9.610   6.060  70.789  1.00  0.00    -0.169 C  
BRANCH  13  14
HETATM   14  O   UNL     1     -11.046   6.216  70.789  1.00  0.00    -0.285 OA 
BRANCH  14  15
HETATM   15  C   UNL     1     -11.661   6.195  72.003  1.00  0.00    -0.310 C  
HETATM   16  C   UNL     1     -10.794   5.519  73.023  1.00  0.00    -0.316 C  
HETATM   17  O   UNL     1     -12.745   6.696  72.265  1.00  0.00    -0.151 OA 
ENDBRANCH  14  15
ENDBRANCH  13  14
ENDBRANCH   4  13
BRANCH   8  18
HETATM   18  N   UNL     1      -8.693   9.884  65.879  1.00  0.00    -0.135 N  
HETATM   19  H   UNL     1      -8.978  10.486  66.652  1.00  0.00     0.000 HD 
HETATM   20  C   UNL     1      -9.243  10.133  64.645  1.00  0.00    -0.252 C  
HETATM   21  O   UNL     1      -8.941   9.504  63.636  1.00  0.00    -0.231 OA 
BRANCH  20  22
HETATM   22  CA  UNL     1     -10.277  11.289  64.670  1.00  0.00    -0.301 C  
HETATM   23  H2  UNL     1      -9.381  12.272  63.042  1.00  0.00     0.000 HD 
HETATM   24  N   UNL     1      -9.701  12.484  63.987  1.00  0.00    -0.607 NA 
HETATM   25  H1  UNL     1     -10.381  13.243  64.004  1.00  0.00     0.000 HD 
BRANCH  22  26
HETATM   26  C   UNL     1     -10.723  11.605  66.085  1.00  0.00    -0.325 A  
HETATM   27  C   UNL     1     -11.017  10.551  66.965  1.00  0.00    -0.247 A  
HETATM   28  C   UNL     1     -11.438  10.807  68.272  1.00  0.00    -0.353 A  
HETATM   29  C   UNL     1     -11.561  12.120  68.721  1.00  0.00    -0.380 A  
HETATM   30  C   UNL     1     -11.252  13.177  67.871  1.00  0.00    -0.300 A  
HETATM   31  C   UNL     1     -10.828  12.922  66.564  1.00  0.00    -0.290 A  
ENDBRANCH  22  26
ENDBRANCH  20  22
ENDBRANCH   8  18
TORSDOF 6
ENDMDL
MODEL      186
REMARK 921   NORMALIZED FREE ENERGY PREDICTED BY IDOCK:   -3.29 KCAL/MOL
REMARK 922        TOTAL FREE ENERGY PREDICTED BY IDOCK:   -5.47 KCAL/MOL
REMARK 923 INTER-LIGAND FREE ENERGY PREDICTED BY IDOCK:   -4.68 KCAL/MOL
REMARK 924 INTRA-LIGAND FREE ENERGY PREDICTED BY IDOCK:   -0.79 KCAL/MOL
REMARK 927      BINDING AFFINITY PREDICTED BY RF-SCORE:    0.00 PKD
ROOT
HETATM    1  C   UNL     1      -9.053   7.598  68.147  1.00  0.00    -0.132 C  
HETATM    2  S   UNL     1      -7.385   8.287  68.041  1.00  0.00    -0.098 SA 
HETATM    3  C   UNL     1      -6.721   7.191  69.304  1.00  0.00    -0.049 C  
HETATM    4  C   UNL     1      -7.559   7.066  70.564  1.00  0.00    -0.090 C  
HETATM    5  OXT UNL     1      -9.030   7.146  73.040  1.00  0.00    -0.127 OA 
HETATM    6  CA  UNL     1      -8.890   7.365  70.634  1.00  0.00    -0.150 C  
HETATM    7  N   UNL     1      -9.553   7.755  69.500  1.00  0.00    -0.160 N  
HETATM    8  CA  UNL     1     -10.197   8.563  67.691  1.00  0.00    -0.236 C  
HETATM    9  C   UNL     1      -9.603   7.340  71.978  1.00  0.00    -0.150 C  
HETATM   10  O   UNL     1     -10.942   7.467  71.969  1.00  0.00    -0.228 OA 
HETATM   11  O   UNL     1     -11.659   8.652  69.850  1.00  0.00     0.041 OA 
HETATM   12  C   UNL     1     -10.709   8.362  69.159  1.00  0.00    -0.106 C  
ENDROOT
BRANCH   4  13
HETATM   13  C   UNL     1      -6.703   6.651  71.762  1.00  0.00    -0.062 C  
BRANCH  13  14
HETATM   14  O   UNL     1      -6.673   5.212  71.883  1.00  0.00    -0.048 OA 
BRANCH  14  15
HETATM   15  C   UNL     1      -6.571   4.709  73.142  1.00  0.00    -0.052 C  
HETATM   16  C   UNL     1      -6.092   5.763  74.095  1.00  0.00    -0.063 C  
HETATM   17  O   UNL     1      -6.870   3.574  73.486  1.00  0.00    -0.034 OA 
ENDBRANCH  14  15
ENDBRANCH  13  14
ENDBRANCH   4  13
BRANCH   8  18
HETATM   18  N   UNL     1      -9.763   9.939  67.357  1.00  0.00    -0.157 N  
HETATM   19  H   UNL     1      -9.523  10.559  68.131  1.00  0.00     0.000 HD 
HETATM   20  C   UNL     1      -9.657  10.445  66.084  1.00  0.00    -0.196 C  
HETATM   21  O   UNL     1      -9.875   9.780  65.077  1.00  0.00    -0.306 OA 
BRANCH  20  22
HETATM   22  CA  UNL     1      -9.235  11.937  66.063  1.00  0.00    -0.171 C  
HETATM   23  H2  UNL     1      -7.662  11.624  67.422  1.00  0.00     0.000 HD 
HETATM   24  N   UNL     1      -8.459  12.249  67.298  1.00  0.00    -0.174 NA 
HETATM   25  H1  UNL     1      -8.181  13.230  67.285  1.00  0.00     0.000 HD 
BRANCH  22  26
HETATM   26  C   UNL     1     -10.434  12.853  65.903  1.00  0.00    -0.294 A  
HETATM   27  C   UNL     1     -10.475  13.747  64.821  1.00  0.00    -0.448 A  
HETATM   28  C   UNL     1     -11.561  14.610  64.648  1.00  0.00    -0.406 A  
HETATM   29  C   UNL     1     -12.624  14.583  65.548  1.00  0.00    -0.233 A  
HETATM   30  C   UNL     1     -12.611  13.687  66.612  1.00  0.00    -0.156 A  
HETATM   31  C   UNL     1     -11.528  12.822  66.785  1.00  0.00    -0.399 A  
ENDBRANCH  22  26
ENDBRANCH  20  22
ENDBRANCH   8  18
TORSDOF 6
ENDMDL
MODEL      187
REMARK 921   NORMALIZED FREE ENERGY PREDICTED BY IDOCK:   -3.25 KCAL/MOL
REMARK 922        TOTAL FREE ENERGY PREDICTED BY IDOCK:   -5.42 KCAL/MOL
REMARK 923 INTER-LIGAND FREE ENERGY PREDICTED BY IDOCK:   -6.09 KCAL/MOL
REMARK 924 INTRA-LIGAND FREE ENERGY PREDICTED BY IDOCK:    0.67 KCAL/MOL
REMARK 927      BINDING AFFINITY PREDICTED BY RF-SCORE:    0.00 PKD
ROOT
HETATM    1  C   UNL     1      -8.042   8.380  70.637  1.00  0.00    -0.114 C  
HETATM    2  S   UNL     1      -9.256   8.540  71.965  1.00  0.00    -0.263 SA 
HETATM    3  C   UNL     1      -9.118   6.816  72.463  1.00  0.00    -0.133 C  
HETATM    4  C   UNL     1      -9.159   5.806  71.330  1.00  0.00    -0.150 C  
HETATM    5  OXT UNL     1      -9.580   3.952  69.166  1.00  0.00    -0.178 OA 
HETATM    6  CA  UNL     1      -8.883   6.104  70.025  1.00  0.00    -0.144 C  
HETATM    7  N   UNL     1      -8.490   7.373  69.693  1.00  0.00    -0.132 N  
HETATM    8  CA  UNL     1      -8.187   9.424  69.479  1.00  0.00    -0.124 C  
HETATM    9  C   UNL     1      -9.090   5.050  68.948  1.00  0.00    -0.109 C  
HETATM   10  O   UNL     1      -8.638   5.333  67.713  1.00  0.00    -0.105 OA 
HETATM   11  O   UNL     1      -8.495   7.844  67.426  1.00  0.00    -0.121 OA 
HETATM   12  C   UNL     1      -8.380   8.145  68.592  1.00  0.00    -0.126 C  
ENDROOT
BRANCH   4  13
HETATM   13  C   UNL     1      -9.637   4.439  71.822  1.00  0.00    -0.158 C  
BRANCH  13  14
HETATM   14  O   UNL     1      -9.129   4.178  73.148  1.00  0.00    -0.109 OA 
BRANCH  14  15
HETATM   15  C   UNL     1      -8.062   3.339  73.238  1.00  0.00    -0.073 C  
HETATM   16  C   UNL     1      -6.815   4.016  72.755  1.00  0.00    -0.047 C  
HETATM   17  O   UNL     1      -8.080   2.204  73.694  1.00  0.00    -0.049 OA 
ENDBRANCH  14  15
ENDBRANCH  13  14
ENDBRANCH   4  13
BRANCH   8  18
HETATM   18  N   UNL     1      -9.370  10.309  69.576  1.00  0.00    -0.325 N  
HETATM   19  H   UNL     1      -9.237  11.229  69.997  1.00  0.00     0.000 HD 
HETATM   20  C   UNL     1     -10.633   9.986  69.143  1.00  0.00    -0.218 C  
HETATM   21  O   UNL     1     -10.901   8.929  68.581  1.00  0.00    -0.126 OA 
BRANCH  20  22
HETATM   22  CA  UNL     1     -11.673  11.099  69.439  1.00  0.00    -0.332 C  
HETATM   23  H2  UNL     1     -12.947   9.785  70.473  1.00  0.00     0.000 HD 
HETATM   24  N   UNL     1     -12.998  10.475  69.723  1.00  0.00    -0.537 NA 
HETATM   25  H1  UNL     1     -13.681  11.206  69.918  1.00  0.00     0.000 HD 
BRANCH  22  26
HETATM   26  C   UNL     1     -11.752  12.102  68.303  1.00  0.00    -0.401 A  
HETATM   27  C   UNL     1     -11.910  13.465  68.601  1.00  0.00    -0.397 A  
HETATM   28  C   UNL     1     -11.995  14.414  67.579  1.00  0.00    -0.389 A  
HETATM   29  C   UNL     1     -11.914  14.016  66.247  1.00  0.00    -0.454 A  
HETATM   30  C   UNL     1     -11.733  12.672  65.934  1.00  0.00    -0.470 A  
HETATM   31  C   UNL     1     -11.645  11.722  66.954  1.00  0.00    -0.310 A  
ENDBRANCH  22  26
ENDBRANCH  20  22
ENDBRANCH   8  18
TORSDOF 6
ENDMDL
MODEL      188
REMARK 921   NORMALIZED FREE ENERGY PREDICTED BY IDOCK:   -3.23 KCAL/MOL
REMARK 922        TOTAL FREE ENERGY PREDICTED BY IDOCK:   -5.40 KCAL/MOL
REMARK 923 INTER-LIGAND FREE ENERGY PREDICTED BY IDOCK:   -4.69 KCAL/MOL
REMARK 924 INTRA-LIGAND FREE ENERGY PREDICTED BY IDOCK:   -0.72 KCAL/MOL
REMARK 927      BINDING AFFINITY PREDICTED BY RF-SCORE:    0.00 PKD
ROOT
HETATM    1  C   UNL     1     -10.401   7.728  68.200  1.00  0.00    -0.200 C  
HETATM    2  S   UNL     1     -10.645   5.961  68.486  1.00  0.00    -0.249 SA 
HETATM    3  C   UNL     1     -11.152   6.183  70.197  1.00  0.00    -0.378 C  
HETATM    4  C   UNL     1     -10.275   7.109  71.021  1.00  0.00    -0.205 C  
HETATM    5  OXT UNL     1      -8.380   8.606  72.592  1.00  0.00    -0.378 OA 
HETATM    6  CA  UNL     1      -9.441   8.052  70.489  1.00  0.00    -0.166 C  
HETATM    7  N   UNL     1      -9.410   8.234  69.131  1.00  0.00    -0.151 N  
HETATM    8  CA  UNL     1      -9.396   8.081  67.054  1.00  0.00    -0.156 C  
HETATM    9  C   UNL     1      -8.501   8.831  71.397  1.00  0.00    -0.188 C  
HETATM   10  O   UNL     1      -7.833   9.864  70.853  1.00  0.00    -0.235 OA 
HETATM   11  O   UNL     1      -7.652   9.523  68.351  1.00  0.00    -0.081 OA 
HETATM   12  C   UNL     1      -8.617   8.808  68.203  1.00  0.00    -0.134 C  
ENDROOT
BRANCH   4  13
HETATM   13  C   UNL     1     -10.377   6.789  72.513  1.00  0.00    -0.198 C  
BRANCH  13  14
HETATM   14  O   UNL     1      -9.402   5.789  72.879  1.00  0.00    -0.144 OA 
BRANCH  14  15
HETATM   15  C   UNL     1      -9.854   4.737  73.614  1.00  0.00    -0.143 C  
HETATM   16  C   UNL     1     -11.336   4.577  73.451  1.00  0.00    -0.376 C  
HETATM   17  O   UNL     1      -9.163   3.980  74.280  1.00  0.00    -0.101 OA 
ENDBRANCH  14  15
ENDBRANCH  13  14
ENDBRANCH   4  13
BRANCH   8  18
HETATM   18  N   UNL     1      -8.698   6.922  66.452  1.00  0.00    -0.136 N  
HETATM   19  H   UNL     1      -8.709   6.044  66.971  1.00  0.00     0.000 HD 
HETATM   20  C   UNL     1      -8.035   6.939  65.248  1.00  0.00    -0.127 C  
HETATM   21  O   UNL     1      -7.995   7.924  64.518  1.00  0.00    -0.135 OA 
BRANCH  20  22
HETATM   22  CA  UNL     1      -7.353   5.586  64.918  1.00  0.00    -0.068 C  
HETATM   23  H2  UNL     1      -5.525   6.502  64.432  1.00  0.00     0.000 HD 
HETATM   24  N   UNL     1      -6.177   5.827  64.032  1.00  0.00    -0.025 NA 
HETATM   25  H1  UNL     1      -5.729   4.938  63.815  1.00  0.00     0.000 HD 
BRANCH  22  26
HETATM   26  C   UNL     1      -8.333   4.605  64.303  1.00  0.00    -0.119 A  
HETATM   27  C   UNL     1      -8.700   4.755  62.956  1.00  0.00    -0.124 A  
HETATM   28  C   UNL     1      -9.606   3.874  62.360  1.00  0.00    -0.113 A  
HETATM   29  C   UNL     1     -10.150   2.826  63.099  1.00  0.00    -0.119 A  
HETATM   30  C   UNL     1      -9.780   2.648  64.429  1.00  0.00    -0.112 A  
HETATM   31  C   UNL     1      -8.872   3.526  65.025  1.00  0.00    -0.124 A  
ENDBRANCH  22  26
ENDBRANCH  20  22
ENDBRANCH   8  18
TORSDOF 6
ENDMDL
MODEL      189
REMARK 921   NORMALIZED FREE ENERGY PREDICTED BY IDOCK:   -3.18 KCAL/MOL
REMARK 922        TOTAL FREE ENERGY PREDICTED BY IDOCK:   -5.33 KCAL/MOL
REMARK 923 INTER-LIGAND FREE ENERGY PREDICTED BY IDOCK:   -4.40 KCAL/MOL
REMARK 924 INTRA-LIGAND FREE ENERGY PREDICTED BY IDOCK:   -0.94 KCAL/MOL
REMARK 927      BINDING AFFINITY PREDICTED BY RF-SCORE:    0.00 PKD
ROOT
HETATM    1  C   UNL     1     -10.476   7.870  69.211  1.00  0.00    -0.216 C  
HETATM    2  S   UNL     1     -10.536   6.118  68.774  1.00  0.00    -0.305 SA 
HETATM    3  C   UNL     1     -10.944   5.589  70.445  1.00  0.00    -0.129 C  
HETATM    4  C   UNL     1     -10.103   6.208  71.547  1.00  0.00    -0.227 C  
HETATM    5  OXT UNL     1      -8.252   7.167  73.536  1.00  0.00    -0.108 OA 
HETATM    6  CA  UNL     1      -9.398   7.371  71.414  1.00  0.00    -0.142 C  
HETATM    7  N   UNL     1      -9.476   8.075  70.242  1.00  0.00    -0.166 N  
HETATM    8  CA  UNL     1      -9.589   8.756  68.276  1.00  0.00    -0.146 C  
HETATM    9  C   UNL     1      -8.475   7.830  72.533  1.00  0.00    -0.131 C  
HETATM   10  O   UNL     1      -7.944   9.061  72.430  1.00  0.00    -0.344 OA 
HETATM   11  O   UNL     1      -7.901   9.756  69.996  1.00  0.00    -0.146 OA 
HETATM   12  C   UNL     1      -8.804   9.054  69.600  1.00  0.00    -0.145 C  
ENDROOT
BRANCH   4  13
HETATM   13  C   UNL     1     -10.073   5.317  72.790  1.00  0.00    -0.168 C  
BRANCH  13  14
HETATM   14  O   UNL     1      -9.112   4.253  72.621  1.00  0.00    -0.109 OA 
BRANCH  14  15
HETATM   15  C   UNL     1      -9.310   3.129  73.361  1.00  0.00    -0.088 C  
HETATM   16  C   UNL     1     -10.315   2.232  72.701  1.00  0.00    -0.231 C  
HETATM   17  O   UNL     1      -8.726   2.841  74.396  1.00  0.00    -0.074 OA 
ENDBRANCH  14  15
ENDBRANCH  13  14
ENDBRANCH   4  13
BRANCH   8  18
HETATM   18  N   UNL     1      -8.828   8.014  67.244  1.00  0.00    -0.129 N  
HETATM   19  H   UNL     1      -8.368   7.149  67.529  1.00  0.00     0.000 HD 
HETATM   20  C   UNL     1      -8.695   8.400  65.932  1.00  0.00    -0.169 C  
HETATM   21  O   UNL     1      -9.241   9.395  65.467  1.00  0.00    -0.200 OA 
BRANCH  20  22
HETATM   22  CA  UNL     1      -7.788   7.446  65.113  1.00  0.00    -0.123 C  
HETATM   23  H2  UNL     1      -8.127   8.486  63.318  1.00  0.00     0.000 HD 
HETATM   24  N   UNL     1      -8.157   7.529  63.670  1.00  0.00    -0.313 NA 
HETATM   25  H1  UNL     1      -7.560   6.902  63.131  1.00  0.00     0.000 HD 
BRANCH  22  26
HETATM   26  C   UNL     1      -7.863   6.023  65.635  1.00  0.00    -0.103 A  
HETATM   27  C   UNL     1      -8.976   5.231  65.311  1.00  0.00    -0.130 A  
HETATM   28  C   UNL     1      -9.082   3.920  65.781  1.00  0.00    -0.145 A  
HETATM   29  C   UNL     1      -8.072   3.379  66.574  1.00  0.00    -0.091 A  
HETATM   30  C   UNL     1      -6.950   4.141  66.886  1.00  0.00    -0.059 A  
HETATM   31  C   UNL     1      -6.842   5.452  66.414  1.00  0.00    -0.059 A  
ENDBRANCH  22  26
ENDBRANCH  20  22
ENDBRANCH   8  18
TORSDOF 6
ENDMDL
MODEL      190
REMARK 921   NORMALIZED FREE ENERGY PREDICTED BY IDOCK:   -3.04 KCAL/MOL
REMARK 922        TOTAL FREE ENERGY PREDICTED BY IDOCK:   -5.14 KCAL/MOL
REMARK 923 INTER-LIGAND FREE ENERGY PREDICTED BY IDOCK:   -4.51 KCAL/MOL
REMARK 924 INTRA-LIGAND FREE ENERGY PREDICTED BY IDOCK:   -0.62 KCAL/MOL
REMARK 927      BINDING AFFINITY PREDICTED BY RF-SCORE:    0.00 PKD
ROOT
HETATM    1  C   UNL     1      -6.954  11.049  66.817  1.00  0.00    -0.131 C  
HETATM    2  S   UNL     1      -8.419  10.168  66.231  1.00  0.00    -0.131 SA 
HETATM    3  C   UNL     1      -9.210  11.655  65.598  1.00  0.00    -0.138 C  
HETATM    4  C   UNL     1      -9.200  12.847  66.538  1.00  0.00    -0.186 C  
HETATM    5  OXT UNL     1      -9.430  14.945  68.498  1.00  0.00    -0.197 OA 
HETATM    6  CA  UNL     1      -8.327  12.999  67.577  1.00  0.00    -0.184 C  
HETATM    7  N   UNL     1      -7.352  12.057  67.781  1.00  0.00    -0.103 N  
HETATM    8  CA  UNL     1      -6.181  10.346  67.981  1.00  0.00    -0.055 C  
HETATM    9  C   UNL     1      -8.493  14.162  68.543  1.00  0.00    -0.157 C  
HETATM   10  O   UNL     1      -7.510  14.366  69.439  1.00  0.00    -0.112 OA 
HETATM   11  O   UNL     1      -6.252  12.202  69.813  1.00  0.00    -0.129 OA 
HETATM   12  C   UNL     1      -6.504  11.670  68.756  1.00  0.00    -0.064 C  
ENDROOT
BRANCH   4  13
HETATM   13  C   UNL     1     -10.347  13.810  66.226  1.00  0.00    -0.294 C  
BRANCH  13  14
HETATM   14  O   UNL     1     -11.616  13.128  66.331  1.00  0.00    -0.317 OA 
BRANCH  14  15
HETATM   15  C   UNL     1     -12.495  13.313  65.309  1.00  0.00    -0.489 C  
HETATM   16  C   UNL     1     -12.430  12.169  64.342  1.00  0.00    -0.418 C  
HETATM   17  O   UNL     1     -13.276  14.247  65.198  1.00  0.00    -0.686 OA 
ENDBRANCH  14  15
ENDBRANCH  13  14
ENDBRANCH   4  13
BRANCH   8  18
HETATM   18  N   UNL     1      -6.828   9.127  68.518  1.00  0.00    -0.062 N  
HETATM   19  H   UNL     1      -7.586   8.716  67.973  1.00  0.00     0.000 HD 
HETATM   20  C   UNL     1      -6.485   8.506  69.696  1.00  0.00    -0.039 C  
HETATM   21  O   UNL     1      -5.562   8.883  70.409  1.00  0.00    -0.029 OA 
BRANCH  20  22
HETATM   22  CA  UNL     1      -7.387   7.286  70.017  1.00  0.00    -0.083 C  
HETATM   23  H2  UNL     1      -7.095   7.477  72.090  1.00  0.00     0.000 HD 
HETATM   24  N   UNL     1      -7.042   6.757  71.369  1.00  0.00    -0.074 NA 
HETATM   25  H1  UNL     1      -7.635   5.955  71.580  1.00  0.00     0.000 HD 
BRANCH  22  26
HETATM   26  C   UNL     1      -7.277   6.216  68.947  1.00  0.00    -0.084 A  
HETATM   27  C   UNL     1      -8.113   6.283  67.820  1.00  0.00    -0.114 A  
HETATM   28  C   UNL     1      -8.044   5.310  66.820  1.00  0.00    -0.105 A  
HETATM   29  C   UNL     1      -7.132   4.262  66.927  1.00  0.00    -0.067 A  
HETATM   30  C   UNL     1      -6.280   4.193  68.025  1.00  0.00    -0.036 A  
HETATM   31  C   UNL     1      -6.346   5.166  69.024  1.00  0.00    -0.031 A  
ENDBRANCH  22  26
ENDBRANCH  20  22
ENDBRANCH   8  18
TORSDOF 6
ENDMDL
MODEL      191
REMARK 921   NORMALIZED FREE ENERGY PREDICTED BY IDOCK:   -2.99 KCAL/MOL
REMARK 922        TOTAL FREE ENERGY PREDICTED BY IDOCK:   -5.07 KCAL/MOL
REMARK 923 INTER-LIGAND FREE ENERGY PREDICTED BY IDOCK:   -4.24 KCAL/MOL
REMARK 924 INTRA-LIGAND FREE ENERGY PREDICTED BY IDOCK:   -0.83 KCAL/MOL
REMARK 927      BINDING AFFINITY PREDICTED BY RF-SCORE:    0.00 PKD
ROOT
HETATM    1  C   UNL     1      -6.916   7.725  70.811  1.00  0.00    -0.046 C  
HETATM    2  S   UNL     1      -8.276   8.450  69.867  1.00  0.00    -0.125 SA 
HETATM    3  C   UNL     1      -9.325   8.666  71.312  1.00  0.00    -0.224 C  
HETATM    4  C   UNL     1      -9.418   7.465  72.236  1.00  0.00    -0.180 C  
HETATM    5  OXT UNL     1      -9.802   5.042  73.747  1.00  0.00    -0.140 OA 
HETATM    6  CA  UNL     1      -8.498   6.455  72.277  1.00  0.00    -0.110 C  
HETATM    7  N   UNL     1      -7.382   6.528  71.485  1.00  0.00    -0.086 N  
HETATM    8  CA  UNL     1      -5.959   6.800  69.989  1.00  0.00    -0.023 C  
HETATM    9  C   UNL     1      -8.758   5.228  73.138  1.00  0.00    -0.120 C  
HETATM   10  O   UNL     1      -7.749   4.350  73.282  1.00  0.00    -0.083 OA 
HETATM   11  O   UNL     1      -6.160   4.568  71.324  1.00  0.00    -0.016 OA 
HETATM   12  C   UNL     1      -6.412   5.712  71.023  1.00  0.00    -0.036 C  
ENDROOT
BRANCH   4  13
HETATM   13  C   UNL     1     -10.716   7.485  73.045  1.00  0.00    -0.384 C  
BRANCH  13  14
HETATM   14  O   UNL     1     -11.560   8.574  72.611  1.00  0.00    -0.357 OA 
BRANCH  14  15
HETATM   15  C   UNL     1     -12.688   8.236  71.931  1.00  0.00    -0.342 C  
HETATM   16  C   UNL     1     -13.788   9.216  72.213  1.00  0.00    -0.527 C  
HETATM   17  O   UNL     1     -12.802   7.301  71.151  1.00  0.00    -0.351 OA 
ENDBRANCH  14  15
ENDBRANCH  13  14
ENDBRANCH   4  13
BRANCH   8  18
HETATM   18  N   UNL     1      -6.374   6.552  68.589  1.00  0.00    -0.036 N  
HETATM   19  H   UNL     1      -7.051   5.807  68.423  1.00  0.00     0.000 HD 
HETATM   20  C   UNL     1      -5.918   7.250  67.496  1.00  0.00    -0.034 C  
HETATM   21  O   UNL     1      -5.139   8.193  67.580  1.00  0.00    -0.030 OA 
BRANCH  20  22
HETATM   22  CA  UNL     1      -6.493   6.715  66.159  1.00  0.00    -0.043 C  
HETATM   23  H2  UNL     1      -5.176   7.875  65.002  1.00  0.00     0.000 HD 
HETATM   24  N   UNL     1      -6.174   7.677  65.063  1.00  0.00    -0.038 NA 
HETATM   25  H1  UNL     1      -6.552   7.325  64.184  1.00  0.00     0.000 HD 
BRANCH  22  26
HETATM   26  C   UNL     1      -7.983   6.449  66.262  1.00  0.00    -0.111 A  
HETATM   27  C   UNL     1      -8.446   5.124  66.257  1.00  0.00    -0.114 A  
HETATM   28  C   UNL     1      -9.812   4.843  66.342  1.00  0.00    -0.226 A  
HETATM   29  C   UNL     1     -10.733   5.883  66.442  1.00  0.00    -0.157 A  
HETATM   30  C   UNL     1     -10.291   7.202  66.471  1.00  0.00    -0.104 A  
HETATM   31  C   UNL     1      -8.926   7.484  66.389  1.00  0.00    -0.196 A  
ENDBRANCH  22  26
ENDBRANCH  20  22
ENDBRANCH   8  18
TORSDOF 6
ENDMDL
MODEL      192
REMARK 921   NORMALIZED FREE ENERGY PREDICTED BY IDOCK:   -2.90 KCAL/MOL
REMARK 922        TOTAL FREE ENERGY PREDICTED BY IDOCK:   -4.96 KCAL/MOL
REMARK 923 INTER-LIGAND FREE ENERGY PREDICTED BY IDOCK:   -4.03 KCAL/MOL
REMARK 924 INTRA-LIGAND FREE ENERGY PREDICTED BY IDOCK:   -0.93 KCAL/MOL
REMARK 927      BINDING AFFINITY PREDICTED BY RF-SCORE:    0.00 PKD
ROOT
HETATM    1  C   UNL     1      -6.669   8.779  70.817  1.00  0.00    -0.053 C  
HETATM    2  S   UNL     1      -8.406   9.255  70.662  1.00  0.00    -0.184 SA 
HETATM    3  C   UNL     1      -8.845   8.644  72.296  1.00  0.00    -0.148 C  
HETATM    4  C   UNL     1      -8.324   7.259  72.635  1.00  0.00    -0.125 C  
HETATM    5  OXT UNL     1      -7.584   4.509  73.068  1.00  0.00    -0.083 OA 
HETATM    6  CA  UNL     1      -7.267   6.661  72.008  1.00  0.00    -0.081 C  
HETATM    7  N   UNL     1      -6.580   7.349  71.044  1.00  0.00    -0.043 N  
HETATM    8  CA  UNL     1      -5.925   8.537  69.462  1.00  0.00    -0.033 C  
HETATM    9  C   UNL     1      -6.915   5.216  72.328  1.00  0.00    -0.079 C  
HETATM   10  O   UNL     1      -5.767   4.733  71.820  1.00  0.00    -0.011 OA 
HETATM   11  O   UNL     1      -5.128   6.072  69.770  1.00  0.00    -0.008 OA 
HETATM   12  C   UNL     1      -5.711   7.097  70.043  1.00  0.00    -0.023 C  
ENDROOT
BRANCH   4  13
HETATM   13  C   UNL     1      -9.189   6.586  73.702  1.00  0.00    -0.135 C  
BRANCH  13  14
HETATM   14  O   UNL     1     -10.557   7.036  73.596  1.00  0.00    -0.357 OA 
BRANCH  14  15
HETATM   15  C   UNL     1     -11.407   6.241  72.890  1.00  0.00    -0.152 C  
HETATM   16  C   UNL     1     -11.379   4.838  73.419  1.00  0.00    -0.397 C  
HETATM   17  O   UNL     1     -12.139   6.605  71.982  1.00  0.00    -0.321 OA 
ENDBRANCH  14  15
ENDBRANCH  13  14
ENDBRANCH   4  13
BRANCH   8  18
HETATM   18  N   UNL     1      -6.780   8.610  68.255  1.00  0.00    -0.064 N  
HETATM   19  H   UNL     1      -7.640   8.060  68.252  1.00  0.00     0.000 HD 
HETATM   20  C   UNL     1      -6.505   9.362  67.138  1.00  0.00    -0.067 C  
HETATM   21  O   UNL     1      -5.527  10.096  67.048  1.00  0.00    -0.041 OA 
BRANCH  20  22
HETATM   22  CA  UNL     1      -7.561   9.182  66.017  1.00  0.00    -0.095 C  
HETATM   23  H2  UNL     1      -6.099   8.863  64.540  1.00  0.00     0.000 HD 
HETATM   24  N   UNL     1      -6.925   9.441  64.692  1.00  0.00    -0.093 NA 
HETATM   25  H1  UNL     1      -7.620   9.323  63.954  1.00  0.00     0.000 HD 
BRANCH  22  26
HETATM   26  C   UNL     1      -8.772  10.067  66.245  1.00  0.00    -0.148 A  
HETATM   27  C   UNL     1      -9.841   9.583  67.016  1.00  0.00    -0.246 A  
HETATM   28  C   UNL     1     -10.975  10.368  67.239  1.00  0.00    -0.306 A  
HETATM   29  C   UNL     1     -11.051  11.652  66.705  1.00  0.00    -0.364 A  
HETATM   30  C   UNL     1      -9.991  12.158  65.959  1.00  0.00    -0.257 A  
HETATM   31  C   UNL     1      -8.856  11.375  65.736  1.00  0.00    -0.115 A  
ENDBRANCH  22  26
ENDBRANCH  20  22
ENDBRANCH   8  18
TORSDOF 6
ENDMDL
MODEL      193
REMARK 921   NORMALIZED FREE ENERGY PREDICTED BY IDOCK:   -2.85 KCAL/MOL
REMARK 922        TOTAL FREE ENERGY PREDICTED BY IDOCK:   -4.88 KCAL/MOL
REMARK 923 INTER-LIGAND FREE ENERGY PREDICTED BY IDOCK:   -4.64 KCAL/MOL
REMARK 924 INTRA-LIGAND FREE ENERGY PREDICTED BY IDOCK:   -0.24 KCAL/MOL
REMARK 927      BINDING AFFINITY PREDICTED BY RF-SCORE:    0.00 PKD
ROOT
HETATM    1  C   UNL     1      -9.582   8.178  66.822  1.00  0.00    -0.217 C  
HETATM    2  S   UNL     1      -7.835   8.284  66.370  1.00  0.00    -0.097 SA 
HETATM    3  C   UNL     1      -7.423   6.694  67.103  1.00  0.00    -0.088 C  
HETATM    4  C   UNL     1      -7.973   6.458  68.498  1.00  0.00    -0.106 C  
HETATM    5  OXT UNL     1      -8.768   6.228  71.258  1.00  0.00    -0.134 OA 
HETATM    6  CA  UNL     1      -9.034   7.135  69.030  1.00  0.00    -0.134 C  
HETATM    7  N   UNL     1      -9.700   8.054  68.263  1.00  0.00    -0.160 N  
HETATM    8  CA  UNL     1     -10.316   9.553  66.954  1.00  0.00    -0.237 C  
HETATM    9  C   UNL     1      -9.416   6.921  70.488  1.00  0.00    -0.169 C  
HETATM   10  O   UNL     1     -10.568   7.472  70.911  1.00  0.00    -0.217 OA 
HETATM   11  O   UNL     1     -11.162   9.428  69.419  1.00  0.00    -0.137 OA 
HETATM   12  C   UNL     1     -10.563   9.078  68.428  1.00  0.00    -0.154 C  
ENDROOT
BRANCH   4  13
HETATM   13  C   UNL     1      -7.132   5.434  69.261  1.00  0.00    -0.060 C  
BRANCH  13  14
HETATM   14  O   UNL     1      -7.314   4.116  68.699  1.00  0.00    -0.055 OA 
BRANCH  14  15
HETATM   15  C   UNL     1      -7.906   3.188  69.498  1.00  0.00    -0.049 C  
HETATM   16  C   UNL     1      -9.399   3.253  69.366  1.00  0.00    -0.232 C  
HETATM   17  O   UNL     1      -7.326   2.370  70.197  1.00  0.00    -0.039 OA 
ENDBRANCH  14  15
ENDBRANCH  13  14
ENDBRANCH   4  13
BRANCH   8  18
HETATM   18  N   UNL     1      -9.448  10.745  66.812  1.00  0.00    -0.171 N  
HETATM   19  H   UNL     1      -8.797  10.763  66.027  1.00  0.00     0.000 HD 
HETATM   20  C   UNL     1      -9.452  11.828  67.658  1.00  0.00    -0.180 C  
HETATM   21  O   UNL     1     -10.221  11.935  68.607  1.00  0.00    -0.216 OA 
BRANCH  20  22
HETATM   22  CA  UNL     1      -8.386  12.889  67.281  1.00  0.00    -0.185 C  
HETATM   23  H2  UNL     1      -6.882  11.935  68.398  1.00  0.00     0.000 HD 
HETATM   24  N   UNL     1      -7.285  12.865  68.289  1.00  0.00    -0.102 NA 
HETATM   25  H1  UNL     1      -6.584  13.563  68.041  1.00  0.00     0.000 HD 
BRANCH  22  26
HETATM   26  C   UNL     1      -8.999  14.270  67.146  1.00  0.00    -0.237 A  
HETATM   27  C   UNL     1     -10.099  14.452  66.293  1.00  0.00    -0.308 A  
HETATM   28  C   UNL     1     -10.683  15.712  66.139  1.00  0.00    -0.305 A  
HETATM   29  C   UNL     1     -10.182  16.805  66.843  1.00  0.00    -0.290 A  
HETATM   30  C   UNL     1      -9.107  16.638  67.711  1.00  0.00    -0.212 A  
HETATM   31  C   UNL     1      -8.524  15.379  67.868  1.00  0.00    -0.150 A  
ENDBRANCH  22  26
ENDBRANCH  20  22
ENDBRANCH   8  18
TORSDOF 6
ENDMDL
MODEL      194
REMARK 921   NORMALIZED FREE ENERGY PREDICTED BY IDOCK:   -2.82 KCAL/MOL
REMARK 922        TOTAL FREE ENERGY PREDICTED BY IDOCK:   -4.85 KCAL/MOL
REMARK 923 INTER-LIGAND FREE ENERGY PREDICTED BY IDOCK:   -3.86 KCAL/MOL
REMARK 924 INTRA-LIGAND FREE ENERGY PREDICTED BY IDOCK:   -0.99 KCAL/MOL
REMARK 927      BINDING AFFINITY PREDICTED BY RF-SCORE:    0.00 PKD
ROOT
HETATM    1  C   UNL     1      -7.827   8.366  70.991  1.00  0.00    -0.100 C  
HETATM    2  S   UNL     1      -9.627   8.310  71.132  1.00  0.00    -0.174 SA 
HETATM    3  C   UNL     1      -9.598   7.753  72.842  1.00  0.00    -0.242 C  
HETATM    4  C   UNL     1      -8.642   6.612  73.139  1.00  0.00    -0.129 C  
HETATM    5  OXT UNL     1      -7.059   4.240  73.545  1.00  0.00    -0.065 OA 
HETATM    6  CA  UNL     1      -7.570   6.285  72.357  1.00  0.00    -0.098 C  
HETATM    7  N   UNL     1      -7.282   7.048  71.257  1.00  0.00    -0.074 N  
HETATM    8  CA  UNL     1      -7.272   8.221  69.535  1.00  0.00    -0.061 C  
HETATM    9  C   UNL     1      -6.758   5.036  72.668  1.00  0.00    -0.065 C  
HETATM   10  O   UNL     1      -5.616   4.856  71.982  1.00  0.00    -0.007 OA 
HETATM   11  O   UNL     1      -5.740   6.125  69.796  1.00  0.00    -0.012 OA 
HETATM   12  C   UNL     1      -6.549   6.962  70.127  1.00  0.00    -0.044 C  
ENDROOT
BRANCH   4  13
HETATM   13  C   UNL     1      -9.085   5.823  74.372  1.00  0.00    -0.126 C  
BRANCH  13  14
HETATM   14  O   UNL     1     -10.526   5.736  74.420  1.00  0.00    -0.265 OA 
BRANCH  14  15
HETATM   15  C   UNL     1     -11.096   4.699  73.748  1.00  0.00    -0.258 C  
HETATM   16  C   UNL     1     -10.462   3.399  74.145  1.00  0.00    -0.256 C  
HETATM   17  O   UNL     1     -12.031   4.782  72.965  1.00  0.00    -0.171 OA 
ENDBRANCH  14  15
ENDBRANCH  13  14
ENDBRANCH   4  13
BRANCH   8  18
HETATM   18  N   UNL     1      -8.292   7.935  68.500  1.00  0.00    -0.127 N  
HETATM   19  H   UNL     1      -8.689   6.995  68.476  1.00  0.00     0.000 HD 
HETATM   20  C   UNL     1      -8.745   8.838  67.568  1.00  0.00    -0.134 C  
HETATM   21  O   UNL     1      -8.373  10.006  67.530  1.00  0.00    -0.117 OA 
BRANCH  20  22
HETATM   22  CA  UNL     1      -9.770   8.221  66.581  1.00  0.00    -0.251 C  
HETATM   23  H2  UNL     1     -11.414   9.019  67.619  1.00  0.00     0.000 HD 
HETATM   24  N   UNL     1     -11.101   8.123  67.248  1.00  0.00    -0.358 NA 
HETATM   25  H1  UNL     1     -11.775   7.717  66.599  1.00  0.00     0.000 HD 
BRANCH  22  26
HETATM   26  C   UNL     1      -9.299   6.877  66.058  1.00  0.00    -0.026 A  
HETATM   27  C   UNL     1      -8.260   6.834  65.115  1.00  0.00    -0.114 A  
HETATM   28  C   UNL     1      -7.807   5.614  64.606  1.00  0.00    -0.113 A  
HETATM   29  C   UNL     1      -8.380   4.421  65.040  1.00  0.00    -0.117 A  
HETATM   30  C   UNL     1      -9.394   4.443  65.992  1.00  0.00    -0.160 A  
HETATM   31  C   UNL     1      -9.846   5.662  66.504  1.00  0.00    -0.195 A  
ENDBRANCH  22  26
ENDBRANCH  20  22
ENDBRANCH   8  18
TORSDOF 6
ENDMDL
MODEL      195
REMARK 921   NORMALIZED FREE ENERGY PREDICTED BY IDOCK:   -2.66 KCAL/MOL
REMARK 922        TOTAL FREE ENERGY PREDICTED BY IDOCK:   -4.63 KCAL/MOL
REMARK 923 INTER-LIGAND FREE ENERGY PREDICTED BY IDOCK:   -4.96 KCAL/MOL
REMARK 924 INTRA-LIGAND FREE ENERGY PREDICTED BY IDOCK:    0.33 KCAL/MOL
REMARK 927      BINDING AFFINITY PREDICTED BY RF-SCORE:    0.00 PKD
ROOT
HETATM    1  C   UNL     1      -7.256   9.012  69.614  1.00  0.00    -0.059 C  
HETATM    2  S   UNL     1      -6.548   9.200  71.267  1.00  0.00    -0.052 SA 
HETATM    3  C   UNL     1      -7.773   8.139  72.046  1.00  0.00    -0.108 C  
HETATM    4  C   UNL     1      -9.214   8.411  71.653  1.00  0.00    -0.271 C  
HETATM    5  OXT UNL     1     -11.930   9.208  71.116  1.00  0.00    -0.288 OA 
HETATM    6  CA  UNL     1      -9.590   9.067  70.516  1.00  0.00    -0.219 C  
HETATM    7  N   UNL     1      -8.631   9.472  69.624  1.00  0.00    -0.165 N  
HETATM    8  CA  UNL     1      -6.948  10.184  68.625  1.00  0.00    -0.062 C  
HETATM    9  C   UNL     1     -11.054   9.411  70.287  1.00  0.00    -0.257 C  
HETATM   10  O   UNL     1     -11.394   9.896  69.079  1.00  0.00    -0.147 OA 
HETATM   11  O   UNL     1      -9.362  10.946  67.995  1.00  0.00    -0.152 OA 
HETATM   12  C   UNL     1      -8.509  10.321  68.583  1.00  0.00    -0.127 C  
ENDROOT
BRANCH   4  13
HETATM   13  C   UNL     1     -10.184   7.938  72.738  1.00  0.00    -0.314 C  
BRANCH  13  14
HETATM   14  O   UNL     1     -10.605   6.581  72.476  1.00  0.00    -0.200 OA 
BRANCH  14  15
HETATM   15  C   UNL     1     -10.224   5.639  73.381  1.00  0.00    -0.206 C  
HETATM   16  C   UNL     1     -10.412   4.261  72.820  1.00  0.00    -0.249 C  
HETATM   17  O   UNL     1      -9.743   5.859  74.484  1.00  0.00    -0.184 OA 
ENDBRANCH  14  15
ENDBRANCH  13  14
ENDBRANCH   4  13
BRANCH   8  18
HETATM   18  N   UNL     1      -6.229  11.334  69.218  1.00  0.00    -0.064 N  
HETATM   19  H   UNL     1      -5.315  11.155  69.635  1.00  0.00     0.000 HD 
HETATM   20  C   UNL     1      -6.698  12.626  69.250  1.00  0.00    -0.054 C  
HETATM   21  O   UNL     1      -7.760  12.967  68.741  1.00  0.00    -0.093 OA 
BRANCH  20  22
HETATM   22  CA  UNL     1      -5.742  13.594  69.994  1.00  0.00    -0.128 C  
HETATM   23  H2  UNL     1      -6.119  12.707  71.862  1.00  0.00     0.000 HD 
HETATM   24  N   UNL     1      -6.106  13.635  71.440  1.00  0.00    -0.567 NA 
HETATM   25  H1  UNL     1      -5.478  14.272  71.930  1.00  0.00     0.000 HD 
BRANCH  22  26
HETATM   26  C   UNL     1      -5.754  14.977  69.369  1.00  0.00    -0.101 A  
HETATM   27  C   UNL     1      -5.819  16.106  70.201  1.00  0.00    -0.157 A  
HETATM   28  C   UNL     1      -5.840  17.393  69.658  1.00  0.00    -0.242 A  
HETATM   29  C   UNL     1      -5.787  17.570  68.277  1.00  0.00    -0.158 A  
HETATM   30  C   UNL     1      -5.699  16.463  67.438  1.00  0.00    -0.183 A  
HETATM   31  C   UNL     1      -5.674  15.175  67.980  1.00  0.00    -0.149 A  
ENDBRANCH  22  26
ENDBRANCH  20  22
ENDBRANCH   8  18
TORSDOF 6
ENDMDL
MODEL      196
REMARK 921   NORMALIZED FREE ENERGY PREDICTED BY IDOCK:   -2.64 KCAL/MOL
REMARK 922        TOTAL FREE ENERGY PREDICTED BY IDOCK:   -4.59 KCAL/MOL
REMARK 923 INTER-LIGAND FREE ENERGY PREDICTED BY IDOCK:   -5.90 KCAL/MOL
REMARK 924 INTRA-LIGAND FREE ENERGY PREDICTED BY IDOCK:    1.31 KCAL/MOL
REMARK 927      BINDING AFFINITY PREDICTED BY RF-SCORE:    0.00 PKD
ROOT
HETATM    1  C   UNL     1      -9.333   8.983  71.396  1.00  0.00    -0.240 C  
HETATM    2  S   UNL     1     -11.091   9.088  71.801  1.00  0.00    -0.361 SA 
HETATM    3  C   UNL     1     -11.176   7.401  72.418  1.00  0.00    -0.293 C  
HETATM    4  C   UNL     1     -10.522   6.352  71.537  1.00  0.00    -0.256 C  
HETATM    5  OXT UNL     1      -9.559   4.394  69.656  1.00  0.00    -0.171 OA 
HETATM    6  CA  UNL     1      -9.572   6.625  70.593  1.00  0.00    -0.169 C  
HETATM    7  N   UNL     1      -9.122   7.910  70.443  1.00  0.00    -0.153 N  
HETATM    8  CA  UNL     1      -8.850   9.969  70.282  1.00  0.00     0.117 C  
HETATM    9  C   UNL     1      -9.085   5.520  69.667  1.00  0.00    -0.128 C  
HETATM   10  O   UNL     1      -8.029   5.796  68.880  1.00  0.00    -0.095 OA 
HETATM   11  O   UNL     1      -7.870   8.298  68.534  1.00  0.00    -0.116 OA 
HETATM   12  C   UNL     1      -8.447   8.649  69.538  1.00  0.00    -0.129 C  
ENDROOT
BRANCH   4  13
HETATM   13  C   UNL     1     -11.127   4.968  71.778  1.00  0.00     0.159 C  
BRANCH  13  14
HETATM   14  O   UNL     1     -10.101   4.035  72.183  1.00  0.00    -0.170 OA 
BRANCH  14  15
HETATM   15  C   UNL     1      -9.563   4.220  73.419  1.00  0.00    -0.120 C  
HETATM   16  C   UNL     1     -10.607   4.042  74.481  1.00  0.00    -0.220 C  
HETATM   17  O   UNL     1      -8.387   4.448  73.661  1.00  0.00    -0.096 OA 
ENDBRANCH  14  15
ENDBRANCH  13  14
ENDBRANCH   4  13
BRANCH   8  18
HETATM   18  N   UNL     1      -9.922  10.757  69.633  1.00  0.00    -0.442 N  
HETATM   19  H   UNL     1     -10.000  11.743  69.882  1.00  0.00     0.000 HD 
HETATM   20  C   UNL     1     -10.822  10.262  68.720  1.00  0.00    -0.230 C  
HETATM   21  O   UNL     1     -10.797   9.105  68.312  1.00  0.00    -0.163 OA 
BRANCH  20  22
HETATM   22  CA  UNL     1     -11.863  11.319  68.267  1.00  0.00    -0.229 C  
HETATM   23  H2  UNL     1     -11.608  10.856  66.232  1.00  0.00     0.000 HD 
HETATM   24  N   UNL     1     -11.616  11.676  66.839  1.00  0.00    -0.542 NA 
HETATM   25  H1  UNL     1     -12.300  12.371  66.541  1.00  0.00     0.000 HD 
BRANCH  22  26
HETATM   26  C   UNL     1     -11.843  12.540  69.167  1.00  0.00    -0.348 A  
HETATM   27  C   UNL     1     -12.540  12.506  70.385  1.00  0.00    -0.099 A  
HETATM   28  C   UNL     1     -12.550  13.616  71.234  1.00  0.00    -0.435 A  
HETATM   29  C   UNL     1     -11.855  14.770  70.881  1.00  0.00    -0.379 A  
HETATM   30  C   UNL     1     -11.139  14.814  69.689  1.00  0.00    -0.299 A  
HETATM   31  C   UNL     1     -11.126  13.704  68.840  1.00  0.00    -0.292 A  
ENDBRANCH  22  26
ENDBRANCH  20  22
ENDBRANCH   8  18
TORSDOF 6
ENDMDL
MODEL      197
REMARK 921   NORMALIZED FREE ENERGY PREDICTED BY IDOCK:   -2.62 KCAL/MOL
REMARK 922        TOTAL FREE ENERGY PREDICTED BY IDOCK:   -4.58 KCAL/MOL
REMARK 923 INTER-LIGAND FREE ENERGY PREDICTED BY IDOCK:   -4.35 KCAL/MOL
REMARK 924 INTRA-LIGAND FREE ENERGY PREDICTED BY IDOCK:   -0.23 KCAL/MOL
REMARK 927      BINDING AFFINITY PREDICTED BY RF-SCORE:    0.00 PKD
ROOT
HETATM    1  C   UNL     1      -5.873  12.708  68.733  1.00  0.00    -0.068 C  
HETATM    2  S   UNL     1      -7.296  13.008  67.661  1.00  0.00    -0.152 SA 
HETATM    3  C   UNL     1      -6.825  14.707  67.305  1.00  0.00     0.113 C  
HETATM    4  C   UNL     1      -6.422  15.537  68.511  1.00  0.00    -0.103 C  
HETATM    5  OXT UNL     1      -5.999  17.128  70.875  1.00  0.00     0.293 OA 
HETATM    6  CA  UNL     1      -6.010  15.011  69.702  1.00  0.00    -0.116 C  
HETATM    7  N   UNL     1      -5.891  13.652  69.833  1.00  0.00    -0.116 N  
HETATM    8  CA  UNL     1      -6.071  11.577  69.796  1.00  0.00    -0.128 C  
HETATM    9  C   UNL     1      -5.765  15.928  70.891  1.00  0.00     0.144 C  
HETATM   10  O   UNL     1      -5.194  15.386  71.982  1.00  0.00    -0.079 OA 
HETATM   11  O   UNL     1      -5.628  12.892  72.005  1.00  0.00    -0.384 OA 
HETATM   12  C   UNL     1      -5.790  12.734  70.816  1.00  0.00    -0.050 C  
ENDROOT
BRANCH   4  13
HETATM   13  C   UNL     1      -6.625  17.030  68.250  1.00  0.00    -0.156 C  
BRANCH  13  14
HETATM   14  O   UNL     1      -7.906  17.459  68.760  1.00  0.00    -0.266 OA 
BRANCH  14  15
HETATM   15  C   UNL     1      -9.000  17.117  68.026  1.00  0.00    -0.233 C  
HETATM   16  C   UNL     1      -8.938  17.740  66.664  1.00  0.00    -0.283 C  
HETATM   17  O   UNL     1      -9.896  16.367  68.385  1.00  0.00    -0.221 OA 
ENDBRANCH  14  15
ENDBRANCH  13  14
ENDBRANCH   4  13
BRANCH   8  18
HETATM   18  N   UNL     1      -7.434  11.002  69.854  1.00  0.00    -0.331 N  
HETATM   19  H   UNL     1      -8.216  11.651  69.942  1.00  0.00     0.000 HD 
HETATM   20  C   UNL     1      -7.727   9.660  69.797  1.00  0.00    -0.133 C  
HETATM   21  O   UNL     1      -6.873   8.793  69.646  1.00  0.00    -0.045 OA 
BRANCH  20  22
HETATM   22  CA  UNL     1      -9.243   9.369  69.943  1.00  0.00    -0.208 C  
HETATM   23  H2  UNL     1      -8.927   7.325  70.315  1.00  0.00     0.000 HD 
HETATM   24  N   UNL     1      -9.493   7.917  69.708  1.00  0.00    -0.163 NA 
HETATM   25  H1  UNL     1     -10.490   7.725  69.804  1.00  0.00     0.000 HD 
BRANCH  22  26
HETATM   26  C   UNL     1     -10.069  10.242  69.016  1.00  0.00    -0.225 A  
HETATM   27  C   UNL     1      -9.604  10.494  67.716  1.00  0.00    -0.173 A  
HETATM   28  C   UNL     1     -10.335  11.300  66.839  1.00  0.00    -0.272 A  
HETATM   29  C   UNL     1     -11.544  11.857  67.247  1.00  0.00    -0.364 A  
HETATM   30  C   UNL     1     -12.032  11.599  68.525  1.00  0.00    -0.284 A  
HETATM   31  C   UNL     1     -11.304  10.791  69.401  1.00  0.00    -0.351 A  
ENDBRANCH  22  26
ENDBRANCH  20  22
ENDBRANCH   8  18
TORSDOF 6
ENDMDL
MODEL      198
REMARK 921   NORMALIZED FREE ENERGY PREDICTED BY IDOCK:   -2.60 KCAL/MOL
REMARK 922        TOTAL FREE ENERGY PREDICTED BY IDOCK:   -4.54 KCAL/MOL
REMARK 923 INTER-LIGAND FREE ENERGY PREDICTED BY IDOCK:   -3.97 KCAL/MOL
REMARK 924 INTRA-LIGAND FREE ENERGY PREDICTED BY IDOCK:   -0.57 KCAL/MOL
REMARK 927      BINDING AFFINITY PREDICTED BY RF-SCORE:    0.00 PKD
ROOT
HETATM    1  C   UNL     1      -6.033   8.359  64.666  1.00  0.00    -0.063 C  
HETATM    2  S   UNL     1      -5.918   8.122  66.454  1.00  0.00    -0.042 SA 
HETATM    3  C   UNL     1      -5.278   6.447  66.313  1.00  0.00    -0.013 C  
HETATM    4  C   UNL     1      -6.016   5.548  65.338  1.00  0.00    -0.025 C  
HETATM    5  OXT UNL     1      -7.666   3.821  63.727  1.00  0.00    -0.079 OA 
HETATM    6  CA  UNL     1      -6.802   6.003  64.318  1.00  0.00    -0.046 C  
HETATM    7  N   UNL     1      -6.912   7.352  64.102  1.00  0.00    -0.055 N  
HETATM    8  CA  UNL     1      -7.081   9.426  64.205  1.00  0.00    -0.102 C  
HETATM    9  C   UNL     1      -7.609   5.018  63.485  1.00  0.00    -0.063 C  
HETATM   10  O   UNL     1      -8.224   5.496  62.388  1.00  0.00    -0.094 OA 
HETATM   11  O   UNL     1      -8.606   7.983  62.656  1.00  0.00    -0.064 OA 
HETATM   12  C   UNL     1      -7.716   8.211  63.444  1.00  0.00    -0.143 C  
ENDROOT
BRANCH   4  13
HETATM   13  C   UNL     1      -5.838   4.072  65.699  1.00  0.00    -0.022 C  
BRANCH  13  14
HETATM   14  O   UNL     1      -6.889   3.645  66.593  1.00  0.00    -0.051 OA 
BRANCH  14  15
HETATM   15  C   UNL     1      -6.624   2.561  67.372  1.00  0.00    -0.036 C  
HETATM   16  C   UNL     1      -5.329   2.742  68.106  1.00  0.00    -0.013 C  
HETATM   17  O   UNL     1      -7.348   1.586  67.511  1.00  0.00    -0.051 OA 
ENDBRANCH  14  15
ENDBRANCH  13  14
ENDBRANCH   4  13
BRANCH   8  18
HETATM   18  N   UNL     1      -7.914   9.996  65.289  1.00  0.00    -0.137 N  
HETATM   19  H   UNL     1      -7.614   9.831  66.250  1.00  0.00     0.000 HD 
HETATM   20  C   UNL     1      -9.060  10.731  65.099  1.00  0.00    -0.203 C  
HETATM   21  O   UNL     1      -9.490  11.029  63.990  1.00  0.00    -0.226 OA 
BRANCH  20  22
HETATM   22  CA  UNL     1      -9.741  11.137  66.432  1.00  0.00    -0.204 C  
HETATM   23  H2  UNL     1     -10.134   9.143  66.967  1.00  0.00     0.000 HD 
HETATM   24  N   UNL     1     -10.630  10.031  66.891  1.00  0.00    -0.220 NA 
HETATM   25  H1  UNL     1     -11.078  10.298  67.767  1.00  0.00     0.000 HD 
BRANCH  22  26
HETATM   26  C   UNL     1     -10.495  12.447  66.294  1.00  0.00    -0.271 A  
HETATM   27  C   UNL     1     -11.814  12.433  65.813  1.00  0.00    -0.467 A  
HETATM   28  C   UNL     1     -12.533  13.622  65.666  1.00  0.00    -0.540 A  
HETATM   29  C   UNL     1     -11.948  14.839  66.007  1.00  0.00    -0.155 A  
HETATM   30  C   UNL     1     -10.650  14.870  66.507  1.00  0.00    -0.306 A  
HETATM   31  C   UNL     1      -9.930  13.682  66.657  1.00  0.00    -0.283 A  
ENDBRANCH  22  26
ENDBRANCH  20  22
ENDBRANCH   8  18
TORSDOF 6
ENDMDL
MODEL      199
REMARK 921   NORMALIZED FREE ENERGY PREDICTED BY IDOCK:   -2.39 KCAL/MOL
REMARK 922        TOTAL FREE ENERGY PREDICTED BY IDOCK:   -4.26 KCAL/MOL
REMARK 923 INTER-LIGAND FREE ENERGY PREDICTED BY IDOCK:   -4.86 KCAL/MOL
REMARK 924 INTRA-LIGAND FREE ENERGY PREDICTED BY IDOCK:    0.60 KCAL/MOL
REMARK 927      BINDING AFFINITY PREDICTED BY RF-SCORE:    0.00 PKD
ROOT
HETATM    1  C   UNL     1      -7.069  10.035  67.321  1.00  0.00    -0.085 C  
HETATM    2  S   UNL     1      -6.573   9.651  69.016  1.00  0.00    -0.049 SA 
HETATM    3  C   UNL     1      -7.871   8.426  69.247  1.00  0.00    -0.104 C  
HETATM    4  C   UNL     1      -9.256   8.852  68.795  1.00  0.00    -0.140 C  
HETATM    5  OXT UNL     1     -11.895   9.857  68.224  1.00  0.00     0.146 OA 
HETATM    6  CA  UNL     1      -9.497   9.856  67.900  1.00  0.00    -0.133 C  
HETATM    7  N   UNL     1      -8.441  10.504  67.315  1.00  0.00    -0.122 N  
HETATM    8  CA  UNL     1      -6.657  11.458  66.817  1.00  0.00    -0.136 C  
HETATM    9  C   UNL     1     -10.926  10.296  67.622  1.00  0.00    -0.294 C  
HETATM   10  O   UNL     1     -11.120  11.160  66.609  1.00  0.00    -0.270 OA 
HETATM   11  O   UNL     1      -8.985  12.451  66.186  1.00  0.00    -0.112 OA 
HETATM   12  C   UNL     1      -8.203  11.644  66.634  1.00  0.00    -0.140 C  
ENDROOT
BRANCH   4  13
HETATM   13  C   UNL     1     -10.345   8.076  69.537  1.00  0.00    -0.221 C  
BRANCH  13  14
HETATM   14  O   UNL     1     -10.526   8.613  70.866  1.00  0.00    -0.198 OA 
BRANCH  14  15
HETATM   15  C   UNL     1     -11.472   8.016  71.641  1.00  0.00    -0.266 C  
HETATM   16  C   UNL     1     -10.880   7.564  72.942  1.00  0.00    -0.425 C  
HETATM   17  O   UNL     1     -12.656   7.898  71.361  1.00  0.00    -0.316 OA 
ENDBRANCH  14  15
ENDBRANCH  13  14
ENDBRANCH   4  13
BRANCH   8  18
HETATM   18  N   UNL     1      -6.033  12.329  67.839  1.00  0.00    -0.071 N  
HETATM   19  H   UNL     1      -5.021  12.269  67.955  1.00  0.00     0.000 HD 
HETATM   20  C   UNL     1      -6.712  13.212  68.643  1.00  0.00    -0.096 C  
HETATM   21  O   UNL     1      -7.921  13.401  68.561  1.00  0.00    -0.139 OA 
BRANCH  20  22
HETATM   22  CA  UNL     1      -5.787  13.938  69.655  1.00  0.00    -0.107 C  
HETATM   23  H2  UNL     1      -6.152  12.524  71.168  1.00  0.00     0.000 HD 
HETATM   24  N   UNL     1      -6.161  13.536  71.043  1.00  0.00    -0.521 NA 
HETATM   25  H1  UNL     1      -5.554  14.013  71.709  1.00  0.00     0.000 HD 
BRANCH  22  26
HETATM   26  C   UNL     1      -5.833  15.443  69.470  1.00  0.00    -0.118 A  
HETATM   27  C   UNL     1      -5.309  16.274  70.474  1.00  0.00    -0.176 A  
HETATM   28  C   UNL     1      -5.342  17.664  70.339  1.00  0.00    -0.263 A  
HETATM   29  C   UNL     1      -5.890  18.242  69.197  1.00  0.00    -0.222 A  
HETATM   30  C   UNL     1      -6.393  17.434  68.182  1.00  0.00    -0.167 A  
HETATM   31  C   UNL     1      -6.358  16.044  68.314  1.00  0.00    -0.119 A  
ENDBRANCH  22  26
ENDBRANCH  20  22
ENDBRANCH   8  18
TORSDOF 6
ENDMDL
MODEL      200
REMARK 921   NORMALIZED FREE ENERGY PREDICTED BY IDOCK:   -1.89 KCAL/MOL
REMARK 922        TOTAL FREE ENERGY PREDICTED BY IDOCK:   -3.59 KCAL/MOL
REMARK 923 INTER-LIGAND FREE ENERGY PREDICTED BY IDOCK:   -3.10 KCAL/MOL
REMARK 924 INTRA-LIGAND FREE ENERGY PREDICTED BY IDOCK:   -0.49 KCAL/MOL
REMARK 927      BINDING AFFINITY PREDICTED BY RF-SCORE:    0.00 PKD
ROOT
HETATM    1  C   UNL     1      -6.134   8.417  64.694  1.00  0.00    -0.064 C  
HETATM    2  S   UNL     1      -6.113   8.192  66.487  1.00  0.00    -0.050 SA 
HETATM    3  C   UNL     1      -5.592   6.473  66.387  1.00  0.00    -0.014 C  
HETATM    4  C   UNL     1      -6.352   5.620  65.387  1.00  0.00    -0.038 C  
HETATM    5  OXT UNL     1      -8.056   4.001  63.720  1.00  0.00    -0.087 OA 
HETATM    6  CA  UNL     1      -7.059   6.120  64.331  1.00  0.00    -0.053 C  
HETATM    7  N   UNL     1      -7.060   7.471  64.101  1.00  0.00    -0.060 N  
HETATM    8  CA  UNL     1      -7.080   9.553  64.181  1.00  0.00    -0.112 C  
HETATM    9  C   UNL     1      -7.900   5.188  63.472  1.00  0.00    -0.084 C  
HETATM   10  O   UNL     1      -8.432   5.697  62.346  1.00  0.00    -0.111 OA 
HETATM   11  O   UNL     1      -8.640   8.209  62.577  1.00  0.00    -0.119 OA 
HETATM   12  C   UNL     1      -7.770   8.380  63.401  1.00  0.00    -0.141 C  
ENDROOT
BRANCH   4  13
HETATM   13  C   UNL     1      -6.299   4.139  65.767  1.00  0.00    -0.032 C  
BRANCH  13  14
HETATM   14  O   UNL     1      -7.348   3.825  66.709  1.00  0.00    -0.067 OA 
BRANCH  14  15
HETATM   15  C   UNL     1      -7.156   2.730  67.493  1.00  0.00    -0.053 C  
HETATM   16  C   UNL     1      -8.389   1.877  67.521  1.00  0.00    -0.081 C  
HETATM   17  O   UNL     1      -6.117   2.432  68.064  1.00  0.00    -0.023 OA 
ENDBRANCH  14  15
ENDBRANCH  13  14
ENDBRANCH   4  13
BRANCH   8  18
HETATM   18  N   UNL     1      -7.914  10.194  65.223  1.00  0.00    -0.141 N  
HETATM   19  H   UNL     1      -7.633  10.067  66.195  1.00  0.00     0.000 HD 
HETATM   20  C   UNL     1      -9.038  10.948  64.981  1.00  0.00    -0.190 C  
HETATM   21  O   UNL     1      -9.443  11.205  63.852  1.00  0.00    -0.226 OA 
BRANCH  20  22
HETATM   22  CA  UNL     1      -9.728  11.434  66.282  1.00  0.00    -0.212 C  
HETATM   23  H2  UNL     1     -11.548  11.817  65.303  1.00  0.00     0.000 HD 
HETATM   24  N   UNL     1     -10.898  12.290  65.931  1.00  0.00    -0.262 NA 
HETATM   25  H1  UNL     1     -11.352  12.609  66.786  1.00  0.00     0.000 HD 
BRANCH  22  26
HETATM   26  C   UNL     1      -8.752  12.155  67.193  1.00  0.00    -0.190 A  
HETATM   27  C   UNL     1      -7.973  11.409  68.092  1.00  0.00    -0.133 A  
HETATM   28  C   UNL     1      -7.071  12.042  68.951  1.00  0.00    -0.104 A  
HETATM   29  C   UNL     1      -6.929  13.427  68.916  1.00  0.00    -0.102 A  
HETATM   30  C   UNL     1      -7.675  14.180  68.015  1.00  0.00    -0.147 A  
HETATM   31  C   UNL     1      -8.576  13.548  67.154  1.00  0.00    -0.203 A  
ENDBRANCH  22  26
ENDBRANCH  20  22
ENDBRANCH   8  18
TORSDOF 6
ENDMDL
MODEL      201
REMARK 921   NORMALIZED FREE ENERGY PREDICTED BY IDOCK:   -1.75 KCAL/MOL
REMARK 922        TOTAL FREE ENERGY PREDICTED BY IDOCK:   -3.40 KCAL/MOL
REMARK 923 INTER-LIGAND FREE ENERGY PREDICTED BY IDOCK:   -2.81 KCAL/MOL
REMARK 924 INTRA-LIGAND FREE ENERGY PREDICTED BY IDOCK:   -0.59 KCAL/MOL
REMARK 927      BINDING AFFINITY PREDICTED BY RF-SCORE:    0.00 PKD
ROOT
HETATM    1  C   UNL     1      -7.139   9.499  65.896  1.00  0.00    -0.096 C  
HETATM    2  S   UNL     1      -6.663   8.247  67.110  1.00  0.00    -0.063 SA 
HETATM    3  C   UNL     1      -5.818   7.220  65.899  1.00  0.00    -0.036 C  
HETATM    4  C   UNL     1      -6.580   6.971  64.610  1.00  0.00    -0.043 C  
HETATM    5  OXT UNL     1      -8.223   6.278  62.348  1.00  0.00    -0.106 OA 
HETATM    6  CA  UNL     1      -7.600   7.759  64.157  1.00  0.00    -0.113 C  
HETATM    7  N   UNL     1      -7.946   8.883  64.860  1.00  0.00    -0.121 N  
HETATM    8  CA  UNL     1      -8.401  10.343  66.275  1.00  0.00    -0.146 C  
HETATM    9  C   UNL     1      -8.390   7.342  62.926  1.00  0.00     0.115 C  
HETATM   10  O   UNL     1      -9.261   8.233  62.419  1.00  0.00     0.365 OA 
HETATM   11  O   UNL     1      -9.953   9.855  64.235  1.00  0.00    -0.133 OA 
HETATM   12  C   UNL     1      -8.977   9.749  64.944  1.00  0.00    -0.216 C  
ENDROOT
BRANCH   4  13
HETATM   13  C   UNL     1      -6.121   5.678  63.934  1.00  0.00    -0.025 C  
BRANCH  13  14
HETATM   14  O   UNL     1      -6.772   4.539  64.537  1.00  0.00    -0.042 OA 
BRANCH  14  15
HETATM   15  C   UNL     1      -7.144   3.534  63.698  1.00  0.00    -0.049 C  
HETATM   16  C   UNL     1      -8.504   3.017  64.064  1.00  0.00    -0.089 C  
HETATM   17  O   UNL     1      -6.502   3.127  62.741  1.00  0.00    -0.017 OA 
ENDBRANCH  14  15
ENDBRANCH  13  14
ENDBRANCH   4  13
BRANCH   8  18
HETATM   18  N   UNL     1      -9.095   9.913  67.511  1.00  0.00    -0.134 N  
HETATM   19  H   UNL     1      -8.799   9.035  67.937  1.00  0.00     0.000 HD 
HETATM   20  C   UNL     1     -10.109  10.607  68.127  1.00  0.00    -0.158 C  
HETATM   21  O   UNL     1     -10.516  11.694  67.731  1.00  0.00    -0.181 OA 
BRANCH  20  22
HETATM   22  CA  UNL     1     -10.674   9.869  69.369  1.00  0.00    -0.232 C  
HETATM   23  H2  UNL     1     -10.025  11.367  70.692  1.00  0.00     0.000 HD 
HETATM   24  N   UNL     1      -9.975  10.354  70.594  1.00  0.00    -0.057 NA 
HETATM   25  H1  UNL     1     -10.346   9.868  71.410  1.00  0.00     0.000 HD 
BRANCH  22  26
HETATM   26  C   UNL     1     -10.569   8.363  69.216  1.00  0.00    -0.193 A  
HETATM   27  C   UNL     1     -11.008   7.761  68.026  1.00  0.00     0.072 A  
HETATM   28  C   UNL     1     -10.933   6.376  67.855  1.00  0.00    -0.416 A  
HETATM   29  C   UNL     1     -10.410   5.576  68.867  1.00  0.00    -0.289 A  
HETATM   30  C   UNL     1      -9.948   6.157  70.044  1.00  0.00    -0.217 A  
HETATM   31  C   UNL     1     -10.020   7.541  70.215  1.00  0.00    -0.192 A  
ENDBRANCH  22  26
ENDBRANCH  20  22
ENDBRANCH   8  18
TORSDOF 6
ENDMDL
MODEL      202
REMARK 921   NORMALIZED FREE ENERGY PREDICTED BY IDOCK:    1.75 KCAL/MOL
REMARK 922        TOTAL FREE ENERGY PREDICTED BY IDOCK:    1.33 KCAL/MOL
REMARK 923 INTER-LIGAND FREE ENERGY PREDICTED BY IDOCK:   -4.05 KCAL/MOL
REMARK 924 INTRA-LIGAND FREE ENERGY PREDICTED BY IDOCK:    5.38 KCAL/MOL
REMARK 927      BINDING AFFINITY PREDICTED BY RF-SCORE:    0.00 PKD
ROOT
HETATM    1  C   UNL     1     -10.192  15.113  67.093  1.00  0.00    -0.247 C  
HETATM    2  S   UNL     1     -10.226  13.759  68.290  1.00  0.00    -0.248 SA 
HETATM    3  C   UNL     1     -11.458  14.550  69.334  1.00  0.00    -0.285 C  
HETATM    4  C   UNL     1     -11.204  16.014  69.647  1.00  0.00    -0.336 C  
HETATM    5  OXT UNL     1     -10.476  18.680  70.461  1.00  0.00     1.222 OA 
HETATM    6  CA  UNL     1     -10.400  16.830  68.903  1.00  0.00    -0.317 C  
HETATM    7  N   UNL     1      -9.812  16.341  67.766  1.00  0.00    -0.235 N  
HETATM    8  CA  UNL     1      -8.866  15.238  66.272  1.00  0.00    -0.227 C  
HETATM    9  C   UNL     1     -10.101  18.242  69.383  1.00  0.00     0.102 C  
HETATM   10  O   UNL     1      -9.453  19.059  68.533  1.00  0.00    -0.343 OA 
HETATM   11  O   UNL     1      -8.143  17.673  66.870  1.00  0.00    -0.206 OA 
HETATM   12  C   UNL     1      -8.806  16.662  66.926  1.00  0.00    -0.211 C  
ENDROOT
BRANCH   4  13
HETATM   13  C   UNL     1     -11.890  16.431  70.949  1.00  0.00     0.022 C  
BRANCH  13  14
HETATM   14  O   UNL     1     -12.266  15.265  71.713  1.00  0.00    -0.305 OA 
BRANCH  14  15
HETATM   15  C   UNL     1     -13.503  15.280  72.279  1.00  0.00    -0.450 C  
HETATM   16  C   UNL     1     -14.050  13.888  72.390  1.00  0.00    -0.586 C  
HETATM   17  O   UNL     1     -14.088  16.269  72.695  1.00  0.00    -0.141 OA 
ENDBRANCH  14  15
ENDBRANCH  13  14
ENDBRANCH   4  13
BRANCH   8  18
HETATM   18  N   UNL     1      -7.786  14.311  66.679  1.00  0.00    -0.115 N  
HETATM   19  H   UNL     1      -6.826  14.585  66.471  1.00  0.00     0.000 HD 
HETATM   20  C   UNL     1      -7.979  13.107  67.314  1.00  0.00    -0.133 C  
HETATM   21  O   UNL     1      -9.083  12.696  67.653  1.00  0.00    -0.176 OA 
BRANCH  20  22
HETATM   22  CA  UNL     1      -6.655  12.336  67.554  1.00  0.00    -0.141 C  
HETATM   23  H2  UNL     1      -5.475  14.050  67.262  1.00  0.00     0.000 HD 
HETATM   24  N   UNL     1      -5.525  13.086  66.933  1.00  0.00    -0.212 NA 
HETATM   25  H1  UNL     1      -4.655  12.579  67.090  1.00  0.00     0.000 HD 
BRANCH  22  26
HETATM   26  C   UNL     1      -6.740  10.912  67.037  1.00  0.00    -0.098 A  
HETATM   27  C   UNL     1      -8.000  10.316  66.869  1.00  0.00    -0.112 A  
HETATM   28  C   UNL     1      -8.115   9.004  66.403  1.00  0.00    -0.110 A  
HETATM   29  C   UNL     1      -6.972   8.273  66.089  1.00  0.00    -0.062 A  
HETATM   30  C   UNL     1      -5.715   8.854  66.227  1.00  0.00    -0.049 A  
HETATM   31  C   UNL     1      -5.599  10.167  66.690  1.00  0.00    -0.046 A  
ENDBRANCH  22  26
ENDBRANCH  20  22
ENDBRANCH   8  18
TORSDOF 6
ENDMDL
MODEL      203
REMARK 921   NORMALIZED FREE ENERGY PREDICTED BY IDOCK:    1.80 KCAL/MOL
REMARK 922        TOTAL FREE ENERGY PREDICTED BY IDOCK:    1.40 KCAL/MOL
REMARK 923 INTER-LIGAND FREE ENERGY PREDICTED BY IDOCK:    2.06 KCAL/MOL
REMARK 924 INTRA-LIGAND FREE ENERGY PREDICTED BY IDOCK:   -0.66 KCAL/MOL
REMARK 927      BINDING AFFINITY PREDICTED BY RF-SCORE:    0.00 PKD
ROOT
HETATM    1  C   UNL     1      -6.484   8.866  66.625  1.00  0.00    -0.063 C  
HETATM    2  S   UNL     1      -5.961   7.770  67.963  1.00  0.00    -0.042 SA 
HETATM    3  C   UNL     1      -5.412   6.470  66.847  1.00  0.00    -0.013 C  
HETATM    4  C   UNL     1      -6.379   6.120  65.730  1.00  0.00    -0.038 C  
HETATM    5  OXT UNL     1      -8.402   5.290  63.854  1.00  0.00    -0.128 OA 
HETATM    6  CA  UNL     1      -7.371   6.947  65.285  1.00  0.00    -0.084 C  
HETATM    7  N   UNL     1      -7.495   8.200  65.825  1.00  0.00    -0.078 N  
HETATM    8  CA  UNL     1      -7.585   9.908  67.016  1.00  0.00    -0.092 C  
HETATM    9  C   UNL     1      -8.374   6.444  64.258  1.00  0.00     0.076 C  
HETATM   10  O   UNL     1      -9.216   7.346  63.724  1.00  0.00     1.434 OA 
HETATM   11  O   UNL     1      -9.464   9.304  65.309  1.00  0.00    -0.245 OA 
HETATM   12  C   UNL     1      -8.410   9.189  65.892  1.00  0.00    -0.123 C  
ENDROOT
BRANCH   4  13
HETATM   13  C   UNL     1      -6.158   4.691  65.232  1.00  0.00    -0.026 C  
BRANCH  13  14
HETATM   14  O   UNL     1      -5.408   3.931  66.205  1.00  0.00    -0.012 OA 
BRANCH  14  15
HETATM   15  C   UNL     1      -5.722   2.612  66.321  1.00  0.00    -0.022 C  
HETATM   16  C   UNL     1      -5.370   2.104  67.688  1.00  0.00    -0.017 C  
HETATM   17  O   UNL     1      -6.263   1.927  65.466  1.00  0.00    -0.021 OA 
ENDBRANCH  14  15
ENDBRANCH  13  14
ENDBRANCH   4  13
BRANCH   8  18
HETATM   18  N   UNL     1      -8.127   9.764  68.386  1.00  0.00    -0.103 N  
HETATM   19  H   UNL     1      -8.767   8.989  68.561  1.00  0.00     0.000 HD 
HETATM   20  C   UNL     1      -7.834  10.595  69.441  1.00  0.00    -0.121 C  
HETATM   21  O   UNL     1      -7.044  11.530  69.359  1.00  0.00    -0.105 OA 
BRANCH  20  22
HETATM   22  CA  UNL     1      -8.605  10.221  70.733  1.00  0.00     1.535 C  
HETATM   23  H2  UNL     1      -6.876   9.504  71.688  1.00  0.00     0.000 HD 
HETATM   24  N   UNL     1      -7.830   9.199  71.494  1.00  0.00    -0.339 NA 
HETATM   25  H1  UNL     1      -8.337   8.953  72.344  1.00  0.00     0.000 HD 
BRANCH  22  26
HETATM   26  C   UNL     1     -10.013   9.748  70.424  1.00  0.00    -0.294 A  
HETATM   27  C   UNL     1     -11.041  10.695  70.284  1.00  0.00    -0.310 A  
HETATM   28  C   UNL     1     -12.350  10.293  70.008  1.00  0.00    -0.158 A  
HETATM   29  C   UNL     1     -12.648   8.941  69.856  1.00  0.00     1.497 A  
HETATM   30  C   UNL     1     -11.638   7.990  69.967  1.00  0.00     0.165 A  
HETATM   31  C   UNL     1     -10.328   8.391  70.241  1.00  0.00    -0.212 A  
ENDBRANCH  22  26
ENDBRANCH  20  22
ENDBRANCH   8  18
TORSDOF 6
ENDMDL
MODEL      204
REMARK 921   NORMALIZED FREE ENERGY PREDICTED BY IDOCK:    2.12 KCAL/MOL
REMARK 922        TOTAL FREE ENERGY PREDICTED BY IDOCK:    1.83 KCAL/MOL
REMARK 923 INTER-LIGAND FREE ENERGY PREDICTED BY IDOCK:    2.51 KCAL/MOL
REMARK 924 INTRA-LIGAND FREE ENERGY PREDICTED BY IDOCK:   -0.68 KCAL/MOL
REMARK 927      BINDING AFFINITY PREDICTED BY RF-SCORE:    0.00 PKD
ROOT
HETATM    1  C   UNL     1      -7.363  12.766  67.035  1.00  0.00     0.099 C  
HETATM    2  S   UNL     1      -6.996  12.489  68.783  1.00  0.00    -0.084 SA 
HETATM    3  C   UNL     1      -7.962  10.974  68.871  1.00  0.00    -0.138 C  
HETATM    4  C   UNL     1      -9.345  11.046  68.248  1.00  0.00    -0.172 C  
HETATM    5  OXT UNL     1     -12.063  11.366  67.347  1.00  0.00    -0.533 OA 
HETATM    6  CA  UNL     1      -9.720  11.973  67.317  1.00  0.00    -0.185 C  
HETATM    7  N   UNL     1      -8.798  12.876  66.856  1.00  0.00    -0.209 N  
HETATM    8  CA  UNL     1      -7.264  14.256  66.566  1.00  0.00     2.051 C  
HETATM    9  C   UNL     1     -11.170  12.046  66.861  1.00  0.00    -0.320 C  
HETATM   10  O   UNL     1     -11.451  12.851  65.821  1.00  0.00    -0.311 OA 
HETATM   11  O   UNL     1      -9.674  14.644  65.643  1.00  0.00    -0.328 OA 
HETATM   12  C   UNL     1      -8.774  14.051  66.194  1.00  0.00     0.545 C  
ENDROOT
BRANCH   4  13
HETATM   13  C   UNL     1     -10.286  10.009  68.862  1.00  0.00    -0.193 C  
BRANCH  13  14
HETATM   14  O   UNL     1      -9.557   8.809  69.201  1.00  0.00    -0.159 OA 
BRANCH  14  15
HETATM   15  C   UNL     1      -9.951   7.662  68.585  1.00  0.00    -0.174 C  
HETATM   16  C   UNL     1     -10.631   7.968  67.284  1.00  0.00    -0.360 C  
HETATM   17  O   UNL     1      -9.745   6.526  68.988  1.00  0.00    -0.135 OA 
ENDBRANCH  14  15
ENDBRANCH  13  14
ENDBRANCH   4  13
BRANCH   8  18
HETATM   18  N   UNL     1      -7.007  15.237  67.644  1.00  0.00    -0.170 N  
HETATM   19  H   UNL     1      -6.555  14.898  68.493  1.00  0.00     0.000 HD 
HETATM   20  C   UNL     1      -7.332  16.572  67.589  1.00  0.00    -0.138 C  
HETATM   21  O   UNL     1      -7.836  17.099  66.604  1.00  0.00    -0.210 OA 
BRANCH  20  22
HETATM   22  CA  UNL     1      -6.990  17.328  68.900  1.00  0.00    -0.233 C  
HETATM   23  H2  UNL     1      -6.580  15.553  69.947  1.00  0.00     0.000 HD 
HETATM   24  N   UNL     1      -7.135  16.400  70.059  1.00  0.00     0.342 NA 
HETATM   25  H1  UNL     1      -6.911  16.898  70.920  1.00  0.00     0.000 HD 
BRANCH  22  26
HETATM   26  C   UNL     1      -7.843  18.573  69.061  1.00  0.00    -0.153 A  
HETATM   27  C   UNL     1      -7.389  19.790  68.527  1.00  0.00    -0.351 A  
HETATM   28  C   UNL     1      -8.145  20.956  68.665  1.00  0.00     1.105 A  
HETATM   29  C   UNL     1      -9.368  20.922  69.330  1.00  0.00     1.643 A  
HETATM   30  C   UNL     1      -9.844  19.720  69.846  1.00  0.00     0.285 A  
HETATM   31  C   UNL     1      -9.091  18.552  69.706  1.00  0.00     0.995 A  
ENDBRANCH  22  26
ENDBRANCH  20  22
ENDBRANCH   8  18
TORSDOF 6
ENDMDL
MODEL      205
REMARK 921   NORMALIZED FREE ENERGY PREDICTED BY IDOCK:    3.15 KCAL/MOL
REMARK 922        TOTAL FREE ENERGY PREDICTED BY IDOCK:    3.22 KCAL/MOL
REMARK 923 INTER-LIGAND FREE ENERGY PREDICTED BY IDOCK:    2.94 KCAL/MOL
REMARK 924 INTRA-LIGAND FREE ENERGY PREDICTED BY IDOCK:    0.28 KCAL/MOL
REMARK 927      BINDING AFFINITY PREDICTED BY RF-SCORE:    0.00 PKD
ROOT
HETATM    1  C   UNL     1      -8.589  15.360  67.476  1.00  0.00    -0.174 C  
HETATM    2  S   UNL     1      -9.265  15.663  69.125  1.00  0.00    -0.267 SA 
HETATM    3  C   UNL     1      -7.667  15.527  69.939  1.00  0.00     0.078 C  
HETATM    4  C   UNL     1      -6.824  14.335  69.523  1.00  0.00    -0.110 C  
HETATM    5  OXT UNL     1      -5.439  11.880  68.928  1.00  0.00    -0.050 OA 
HETATM    6  CA  UNL     1      -6.990  13.647  68.354  1.00  0.00    -0.104 C  
HETATM    7  N   UNL     1      -7.934  14.066  67.455  1.00  0.00    -0.181 N  
HETATM    8  CA  UNL     1      -9.607  14.780  66.439  1.00  0.00    -0.301 C  
HETATM    9  C   UNL     1      -6.185  12.381  68.099  1.00  0.00    -0.065 C  
HETATM   10  O   UNL     1      -6.254  11.843  66.868  1.00  0.00    -0.154 OA 
HETATM   11  O   UNL     1      -8.410  12.565  65.757  1.00  0.00     0.725 OA 
HETATM   12  C   UNL     1      -8.592  13.587  66.379  1.00  0.00     0.371 C  
ENDROOT
BRANCH   4  13
HETATM   13  C   UNL     1      -5.828  13.949  70.619  1.00  0.00    -0.193 C  
BRANCH  13  14
HETATM   14  O   UNL     1      -5.149  15.124  71.114  1.00  0.00    -0.138 OA 
BRANCH  14  15
HETATM   15  C   UNL     1      -5.278  15.388  72.443  1.00  0.00     0.193 C  
HETATM   16  C   UNL     1      -5.246  14.118  73.239  1.00  0.00    -0.336 C  
HETATM   17  O   UNL     1      -5.359  16.498  72.947  1.00  0.00     0.854 OA 
ENDBRANCH  14  15
ENDBRANCH  13  14
ENDBRANCH   4  13
BRANCH   8  18
HETATM   18  N   UNL     1     -10.941  14.447  66.988  1.00  0.00    -0.298 N  
HETATM   19  H   UNL     1     -11.615  15.207  67.085  1.00  0.00     0.000 HD 
HETATM   20  C   UNL     1     -11.342  13.191  67.378  1.00  0.00    -0.306 C  
HETATM   21  O   UNL     1     -10.634  12.196  67.265  1.00  0.00    -0.220 OA 
BRANCH  20  22
HETATM   22  CA  UNL     1     -12.776  13.174  67.969  1.00  0.00     1.220 C  
HETATM   23  H2  UNL     1     -13.387  14.825  66.820  1.00  0.00     0.000 HD 
HETATM   24  N   UNL     1     -13.400  14.518  67.792  1.00  0.00     2.472 NA 
HETATM   25  H1  UNL     1     -14.343  14.507  68.180  1.00  0.00     0.000 HD 
BRANCH  22  26
HETATM   26  C   UNL     1     -12.773  12.738  69.422  1.00  0.00     0.718 A  
HETATM   27  C   UNL     1     -12.789  13.714  70.431  1.00  0.00    -0.108 A  
HETATM   28  C   UNL     1     -12.778  13.348  71.779  1.00  0.00    -0.321 A  
HETATM   29  C   UNL     1     -12.762  12.002  72.137  1.00  0.00     0.071 A  
HETATM   30  C   UNL     1     -12.771  11.021  71.151  1.00  0.00    -0.521 A  
HETATM   31  C   UNL     1     -12.784  11.386  69.802  1.00  0.00     0.085 A  
ENDBRANCH  22  26
ENDBRANCH  20  22
ENDBRANCH   8  18
TORSDOF 6
ENDMDL
MODEL      206
REMARK 921   NORMALIZED FREE ENERGY PREDICTED BY IDOCK:    3.34 KCAL/MOL
REMARK 922        TOTAL FREE ENERGY PREDICTED BY IDOCK:    3.48 KCAL/MOL
REMARK 923 INTER-LIGAND FREE ENERGY PREDICTED BY IDOCK:    0.44 KCAL/MOL
REMARK 924 INTRA-LIGAND FREE ENERGY PREDICTED BY IDOCK:    3.04 KCAL/MOL
REMARK 927      BINDING AFFINITY PREDICTED BY RF-SCORE:    0.00 PKD
ROOT
HETATM    1  C   UNL     1      -6.783  12.832  67.845  1.00  0.00    -0.116 C  
HETATM    2  S   UNL     1      -7.370  14.253  68.796  1.00  0.00    -0.134 SA 
HETATM    3  C   UNL     1      -6.079  14.109  70.040  1.00  0.00    -0.149 C  
HETATM    4  C   UNL     1      -5.845  12.708  70.576  1.00  0.00    -0.129 C  
HETATM    5  OXT UNL     1      -5.696  10.094  71.777  1.00  0.00    -0.281 OA 
HETATM    6  CA  UNL     1      -6.217  11.565  69.928  1.00  0.00    -0.147 C  
HETATM    7  N   UNL     1      -6.794  11.652  68.688  1.00  0.00    -0.073 N  
HETATM    8  CA  UNL     1      -7.871  12.127  66.969  1.00  0.00    -0.123 C  
HETATM    9  C   UNL     1      -6.063  10.218  70.618  1.00  0.00    -0.103 C  
HETATM   10  O   UNL     1      -6.276   9.116  69.876  1.00  0.00    -0.037 OA 
HETATM   11  O   UNL     1      -7.772   9.699  67.918  1.00  0.00    -0.087 OA 
HETATM   12  C   UNL     1      -7.513  10.879  67.848  1.00  0.00    -0.090 C  
ENDROOT
BRANCH   4  13
HETATM   13  C   UNL     1      -5.223  12.746  71.974  1.00  0.00     0.066 C  
BRANCH  13  14
HETATM   14  O   UNL     1      -6.123  13.384  72.906  1.00  0.00     0.292 OA 
BRANCH  14  15
HETATM   15  C   UNL     1      -6.134  14.745  72.907  1.00  0.00     0.788 C  
HETATM   16  C   UNL     1      -5.147  15.282  71.915  1.00  0.00    -0.093 C  
HETATM   17  O   UNL     1      -6.872  15.454  73.576  1.00  0.00     3.825 OA 
ENDBRANCH  14  15
ENDBRANCH  13  14
ENDBRANCH   4  13
BRANCH   8  18
HETATM   18  N   UNL     1      -9.248  12.645  67.140  1.00  0.00    -0.206 N  
HETATM   19  H   UNL     1      -9.505  13.482  66.616  1.00  0.00     0.000 HD 
HETATM   20  C   UNL     1     -10.206  12.085  67.950  1.00  0.00    -0.196 C  
HETATM   21  O   UNL     1     -10.025  11.054  68.590  1.00  0.00    -0.185 OA 
BRANCH  20  22
HETATM   22  CA  UNL     1     -11.530  12.893  67.963  1.00  0.00    -0.319 C  
HETATM   23  H2  UNL     1     -10.920  14.126  66.374  1.00  0.00     0.000 HD 
HETATM   24  N   UNL     1     -11.308  14.217  67.313  1.00  0.00    -0.316 NA 
HETATM   25  H1  UNL     1     -12.178  14.748  67.322  1.00  0.00     0.000 HD 
BRANCH  22  26
HETATM   26  C   UNL     1     -12.078  13.038  69.370  1.00  0.00    -0.267 A  
HETATM   27  C   UNL     1     -12.622  11.916  70.015  1.00  0.00     0.026 A  
HETATM   28  C   UNL     1     -13.143  12.016  71.307  1.00  0.00    -0.209 A  
HETATM   29  C   UNL     1     -13.119  13.238  71.977  1.00  0.00    -0.475 A  
HETATM   30  C   UNL     1     -12.564  14.356  71.362  1.00  0.00    -0.426 A  
HETATM   31  C   UNL     1     -12.039  14.256  70.071  1.00  0.00    -0.400 A  
ENDBRANCH  22  26
ENDBRANCH  20  22
ENDBRANCH   8  18
TORSDOF 6
ENDMDL
MODEL      207
REMARK 921   NORMALIZED FREE ENERGY PREDICTED BY IDOCK:   10.35 KCAL/MOL
REMARK 922        TOTAL FREE ENERGY PREDICTED BY IDOCK:   12.94 KCAL/MOL
REMARK 923 INTER-LIGAND FREE ENERGY PREDICTED BY IDOCK:   10.50 KCAL/MOL
REMARK 924 INTRA-LIGAND FREE ENERGY PREDICTED BY IDOCK:    2.44 KCAL/MOL
REMARK 927      BINDING AFFINITY PREDICTED BY RF-SCORE:    0.00 PKD
ROOT
HETATM    1  C   UNL     1      -5.917  13.220  68.725  1.00  0.00    -0.076 C  
HETATM    2  S   UNL     1      -6.748  14.666  69.418  1.00  0.00    -0.157 SA 
HETATM    3  C   UNL     1      -5.713  14.707  70.889  1.00  0.00    -0.154 C  
HETATM    4  C   UNL     1      -5.515  13.372  71.583  1.00  0.00    -0.133 C  
HETATM    5  OXT UNL     1      -5.463  10.874  73.018  1.00  0.00    -0.026 OA 
HETATM    6  CA  UNL     1      -5.696  12.159  70.981  1.00  0.00     0.064 C  
HETATM    7  N   UNL     1      -6.027  12.110  69.652  1.00  0.00    -0.104 N  
HETATM    8  CA  UNL     1      -6.778  12.376  67.727  1.00  0.00    -0.115 C  
HETATM    9  C   UNL     1      -5.608  10.883  71.805  1.00  0.00     0.379 C  
HETATM   10  O   UNL     1      -5.617   9.715  71.137  1.00  0.00    -0.059 OA 
HETATM   11  O   UNL     1      -6.737  10.041  68.891  1.00  0.00    -0.052 OA 
HETATM   12  C   UNL     1      -6.531  11.227  68.765  1.00  0.00    -0.058 C  
ENDROOT
BRANCH   4  13
HETATM   13  C   UNL     1      -5.175  13.559  73.063  1.00  0.00    -0.029 C  
BRANCH  13  14
HETATM   14  O   UNL     1      -6.281  14.179  73.756  1.00  0.00    -0.271 OA 
BRANCH  14  15
HETATM   15  C   UNL     1      -6.312  15.540  73.759  1.00  0.00     3.404 C  
HETATM   16  C   UNL     1      -5.129  16.097  73.026  1.00  0.00     2.311 C  
HETATM   17  O   UNL     1      -7.196  16.234  74.239  1.00  0.00     8.180 OA 
ENDBRANCH  14  15
ENDBRANCH  13  14
ENDBRANCH   4  13
BRANCH   8  18
HETATM   18  N   UNL     1      -8.187  12.812  67.591  1.00  0.00    -0.162 N  
HETATM   19  H   UNL     1      -8.380  13.595  66.966  1.00  0.00     0.000 HD 
HETATM   20  C   UNL     1      -9.255  12.241  68.241  1.00  0.00    -0.189 C  
HETATM   21  O   UNL     1      -9.148  11.267  68.979  1.00  0.00    -0.104 OA 
BRANCH  20  22
HETATM   22  CA  UNL     1     -10.596  12.959  67.939  1.00  0.00    -0.222 C  
HETATM   23  H2  UNL     1     -11.159  11.535  66.499  1.00  0.00     0.000 HD 
HETATM   24  N   UNL     1     -11.084  12.548  66.590  1.00  0.00    -0.270 NA 
HETATM   25  H1  UNL     1     -11.966  13.020  66.392  1.00  0.00     0.000 HD 
BRANCH  22  26
HETATM   26  C   UNL     1     -10.459  14.465  68.056  1.00  0.00    -0.237 A  
HETATM   27  C   UNL     1      -9.899  15.189  66.991  1.00  0.00    -0.233 A  
HETATM   28  C   UNL     1      -9.750  16.575  67.069  1.00  0.00    -0.255 A  
HETATM   29  C   UNL     1     -10.168  17.260  68.208  1.00  0.00    -0.348 A  
HETATM   30  C   UNL     1     -10.748  16.562  69.264  1.00  0.00    -0.331 A  
HETATM   31  C   UNL     1     -10.899  15.176  69.186  1.00  0.00    -0.251 A  
ENDBRANCH  22  26
ENDBRANCH  20  22
ENDBRANCH   8  18
TORSDOF 6
ENDMDL
MODEL      208
REMARK 921   NORMALIZED FREE ENERGY PREDICTED BY IDOCK:   10.65 KCAL/MOL
REMARK 922        TOTAL FREE ENERGY PREDICTED BY IDOCK:   13.35 KCAL/MOL
REMARK 923 INTER-LIGAND FREE ENERGY PREDICTED BY IDOCK:   11.01 KCAL/MOL
REMARK 924 INTRA-LIGAND FREE ENERGY PREDICTED BY IDOCK:    2.34 KCAL/MOL
REMARK 927      BINDING AFFINITY PREDICTED BY RF-SCORE:    0.00 PKD
ROOT
HETATM    1  C   UNL     1      -5.917  13.220  68.725  1.00  0.00    -0.076 C  
HETATM    2  S   UNL     1      -6.748  14.666  69.418  1.00  0.00    -0.157 SA 
HETATM    3  C   UNL     1      -5.713  14.707  70.889  1.00  0.00    -0.154 C  
HETATM    4  C   UNL     1      -5.515  13.372  71.583  1.00  0.00    -0.133 C  
HETATM    5  OXT UNL     1      -5.463  10.874  73.018  1.00  0.00    -0.026 OA 
HETATM    6  CA  UNL     1      -5.696  12.159  70.981  1.00  0.00     0.064 C  
HETATM    7  N   UNL     1      -6.027  12.110  69.652  1.00  0.00    -0.104 N  
HETATM    8  CA  UNL     1      -6.778  12.376  67.727  1.00  0.00    -0.115 C  
HETATM    9  C   UNL     1      -5.608  10.883  71.805  1.00  0.00     0.379 C  
HETATM   10  O   UNL     1      -5.617   9.715  71.137  1.00  0.00    -0.059 OA 
HETATM   11  O   UNL     1      -6.737  10.041  68.891  1.00  0.00    -0.052 OA 
HETATM   12  C   UNL     1      -6.531  11.227  68.765  1.00  0.00    -0.058 C  
ENDROOT
BRANCH   4  13
HETATM   13  C   UNL     1      -5.175  13.559  73.063  1.00  0.00    -0.029 C  
BRANCH  13  14
HETATM   14  O   UNL     1      -6.281  14.179  73.756  1.00  0.00    -0.271 OA 
BRANCH  14  15
HETATM   15  C   UNL     1      -6.312  15.540  73.759  1.00  0.00     3.404 C  
HETATM   16  C   UNL     1      -5.129  16.097  73.026  1.00  0.00     2.311 C  
HETATM   17  O   UNL     1      -7.196  16.234  74.239  1.00  0.00     8.180 OA 
ENDBRANCH  14  15
ENDBRANCH  13  14
ENDBRANCH   4  13
BRANCH   8  18
HETATM   18  N   UNL     1      -8.187  12.812  67.591  1.00  0.00    -0.162 N  
HETATM   19  H   UNL     1      -8.380  13.595  66.966  1.00  0.00     0.000 HD 
HETATM   20  C   UNL     1      -9.255  12.241  68.241  1.00  0.00    -0.189 C  
HETATM   21  O   UNL     1      -9.148  11.267  68.979  1.00  0.00    -0.104 OA 
BRANCH  20  22
HETATM   22  CA  UNL     1     -10.596  12.959  67.939  1.00  0.00    -0.222 C  
HETATM   23  H2  UNL     1     -11.355  12.587  69.863  1.00  0.00     0.000 HD 
HETATM   24  N   UNL     1     -11.640  12.478  68.890  1.00  0.00    -0.296 NA 
HETATM   25  H1  UNL     1     -12.522  12.950  68.692  1.00  0.00     0.000 HD 
BRANCH  22  26
HETATM   26  C   UNL     1     -11.016  12.766  66.494  1.00  0.00    -0.291 A  
HETATM   27  C   UNL     1     -11.639  11.566  66.114  1.00  0.00     0.014 A  
HETATM   28  C   UNL     1     -12.031  11.353  64.790  1.00  0.00     0.345 A  
HETATM   29  C   UNL     1     -11.815  12.338  63.830  1.00  0.00    -0.553 A  
HETATM   30  C   UNL     1     -11.220  13.543  64.193  1.00  0.00    -0.341 A  
HETATM   31  C   UNL     1     -10.830  13.759  65.517  1.00  0.00    -0.299 A  
ENDBRANCH  22  26
ENDBRANCH  20  22
ENDBRANCH   8  18
TORSDOF 6
ENDMDL
MODEL      209
REMARK 921   NORMALIZED FREE ENERGY PREDICTED BY IDOCK:   11.95 KCAL/MOL
REMARK 922        TOTAL FREE ENERGY PREDICTED BY IDOCK:   15.11 KCAL/MOL
REMARK 923 INTER-LIGAND FREE ENERGY PREDICTED BY IDOCK:    7.76 KCAL/MOL
REMARK 924 INTRA-LIGAND FREE ENERGY PREDICTED BY IDOCK:    7.35 KCAL/MOL
REMARK 927      BINDING AFFINITY PREDICTED BY RF-SCORE:    0.00 PKD
ROOT
HETATM    1  C   UNL     1      -6.897   8.322  72.093  1.00  0.00    -0.083 C  
HETATM    2  S   UNL     1      -8.526   9.070  72.326  1.00  0.00     0.669 SA 
HETATM    3  C   UNL     1      -9.096   7.774  73.435  1.00  0.00    -0.276 C  
HETATM    4  C   UNL     1      -8.822   6.354  72.973  1.00  0.00    -0.129 C  
HETATM    5  OXT UNL     1      -8.563   3.705  71.870  1.00  0.00    -0.087 OA 
HETATM    6  CA  UNL     1      -7.868   6.015  72.056  1.00  0.00    -0.106 C  
HETATM    7  N   UNL     1      -7.054   6.989  71.541  1.00  0.00    -0.072 N  
HETATM    8  CA  UNL     1      -6.176   8.710  70.759  1.00  0.00    -0.036 C  
HETATM    9  C   UNL     1      -7.770   4.581  71.558  1.00  0.00    -0.082 C  
HETATM   10  O   UNL     1      -6.708   4.263  70.796  1.00  0.00    -0.033 OA 
HETATM   11  O   UNL     1      -5.810   6.357  69.693  1.00  0.00    -0.017 OA 
HETATM   12  C   UNL     1      -6.218   7.164  70.496  1.00  0.00    -0.031 C  
ENDROOT
BRANCH   4  13
HETATM   13  C   UNL     1      -9.810   5.366  73.596  1.00  0.00    -0.163 C  
BRANCH  13  14
HETATM   14  O   UNL     1     -10.860   6.077  74.289  1.00  0.00    -0.029 OA 
BRANCH  14  15
HETATM   15  C   UNL     1     -11.917   6.488  73.538  1.00  0.00     1.634 C  
HETATM   16  C   UNL     1     -11.465   6.892  72.167  1.00  0.00    -0.316 C  
HETATM   17  O   UNL     1     -13.088   6.488  73.890  1.00  0.00     4.608 OA 
ENDBRANCH  14  15
ENDBRANCH  13  14
ENDBRANCH   4  13
BRANCH   8  18
HETATM   18  N   UNL     1      -6.980   9.531  69.826  1.00  0.00    -0.063 N  
HETATM   19  H   UNL     1      -6.842   9.381  68.827  1.00  0.00     0.000 HD 
HETATM   20  C   UNL     1      -7.899  10.481  70.204  1.00  0.00     0.365 C  
HETATM   21  O   UNL     1      -8.181  10.714  71.375  1.00  0.00     3.001 OA 
BRANCH  20  22
HETATM   22  CA  UNL     1      -8.536  11.216  68.996  1.00  0.00    -0.037 C  
HETATM   23  H2  UNL     1     -10.321  11.607  70.034  1.00  0.00     0.000 HD 
HETATM   24  N   UNL     1     -10.020  11.215  69.142  1.00  0.00    -0.394 NA 
HETATM   25  H1  UNL     1     -10.439  11.698  68.347  1.00  0.00     0.000 HD 
BRANCH  22  26
HETATM   26  C   UNL     1      -8.097  10.604  67.679  1.00  0.00    -0.107 A  
HETATM   27  C   UNL     1      -7.550   9.310  67.671  1.00  0.00    -0.088 A  
HETATM   28  C   UNL     1      -7.128   8.720  66.477  1.00  0.00    -0.080 A  
HETATM   29  C   UNL     1      -7.255   9.409  65.274  1.00  0.00    -0.096 A  
HETATM   30  C   UNL     1      -7.817  10.683  65.259  1.00  0.00    -0.041 A  
HETATM   31  C   UNL     1      -8.242  11.273  66.452  1.00  0.00    -0.150 A  
ENDBRANCH  22  26
ENDBRANCH  20  22
ENDBRANCH   8  18
TORSDOF 6
ENDMDL
MODEL      210
REMARK 921   NORMALIZED FREE ENERGY PREDICTED BY IDOCK:   42.47 KCAL/MOL
REMARK 922        TOTAL FREE ENERGY PREDICTED BY IDOCK:   56.34 KCAL/MOL
REMARK 923 INTER-LIGAND FREE ENERGY PREDICTED BY IDOCK:   50.54 KCAL/MOL
REMARK 924 INTRA-LIGAND FREE ENERGY PREDICTED BY IDOCK:    5.80 KCAL/MOL
REMARK 927      BINDING AFFINITY PREDICTED BY RF-SCORE:    0.00 PKD
ROOT
HETATM    1  C   UNL     1      -8.412   9.198  73.517  1.00  0.00     1.619 C  
HETATM    2  S   UNL     1     -10.204   9.005  73.385  1.00  0.00     3.579 SA 
HETATM    3  C   UNL     1     -10.155   7.227  73.654  1.00  0.00    -0.340 C  
HETATM    4  C   UNL     1      -9.113   6.475  72.846  1.00  0.00    -0.135 C  
HETATM    5  OXT UNL     1      -7.346   5.091  71.040  1.00  0.00    -0.067 OA 
HETATM    6  CA  UNL     1      -8.006   7.053  72.292  1.00  0.00    -0.092 C  
HETATM    7  N   UNL     1      -7.764   8.385  72.505  1.00  0.00    -0.119 N  
HETATM    8  CA  UNL     1      -7.825  10.449  72.783  1.00  0.00     7.402 C  
HETATM    9  C   UNL     1      -7.099   6.237  71.383  1.00  0.00    -0.078 C  
HETATM   10  O   UNL     1      -5.935   6.797  71.009  1.00  0.00    -0.031 OA 
HETATM   11  O   UNL     1      -6.129   9.317  71.155  1.00  0.00    -0.060 OA 
HETATM   12  C   UNL     1      -7.010   9.374  71.983  1.00  0.00     0.537 C  
ENDROOT
BRANCH   4  13
HETATM   13  C   UNL     1      -9.508   5.010  72.656  1.00  0.00    -0.140 C  
BRANCH  13  14
HETATM   14  O   UNL     1      -8.335   4.168  72.669  1.00  0.00    -0.097 OA 
BRANCH  14  15
HETATM   15  C   UNL     1      -8.407   3.033  73.417  1.00  0.00    -0.073 C  
HETATM   16  C   UNL     1      -9.815   2.521  73.465  1.00  0.00    -0.149 C  
HETATM   17  O   UNL     1      -7.463   2.461  73.942  1.00  0.00    -0.039 OA 
ENDBRANCH  14  15
ENDBRANCH  13  14
ENDBRANCH   4  13
BRANCH   8  18
HETATM   18  N   UNL     1      -8.801  11.224  71.985  1.00  0.00    12.190 N  
HETATM   19  H   UNL     1      -8.701  12.239  71.972  1.00  0.00     0.000 HD 
HETATM   20  C   UNL     1      -9.834  10.680  71.258  1.00  0.00     3.829 C  
HETATM   21  O   UNL     1     -10.024   9.472  71.163  1.00  0.00    -0.269 OA 
BRANCH  20  22
HETATM   22  CA  UNL     1     -10.721  11.755  70.578  1.00  0.00     2.052 C  
HETATM   23  H2  UNL     1     -10.082  11.219  68.648  1.00  0.00     0.000 HD 
HETATM   24  N   UNL     1     -10.180  12.057  69.221  1.00  0.00    -0.401 NA 
HETATM   25  H1  UNL     1     -10.764  12.764  68.773  1.00  0.00     0.000 HD 
BRANCH  22  26
HETATM   26  C   UNL     1     -10.836  13.003  71.432  1.00  0.00     5.081 A  
HETATM   27  C   UNL     1     -11.108  14.235  70.815  1.00  0.00     0.373 A  
HETATM   28  C   UNL     1     -11.212  15.405  71.571  1.00  0.00    -0.401 A  
HETATM   29  C   UNL     1     -11.055  15.359  72.954  1.00  0.00     0.499 A  
HETATM   30  C   UNL     1     -10.809  14.144  73.585  1.00  0.00     4.219 A  
HETATM   31  C   UNL     1     -10.707  12.972  72.831  1.00  0.00    11.648 A  
ENDBRANCH  22  26
ENDBRANCH  20  22
ENDBRANCH   8  18
TORSDOF 6
ENDMDL
MODEL      211
REMARK 921   NORMALIZED FREE ENERGY PREDICTED BY IDOCK:   50.74 KCAL/MOL
REMARK 922        TOTAL FREE ENERGY PREDICTED BY IDOCK:   67.50 KCAL/MOL
REMARK 923 INTER-LIGAND FREE ENERGY PREDICTED BY IDOCK:   31.39 KCAL/MOL
REMARK 924 INTRA-LIGAND FREE ENERGY PREDICTED BY IDOCK:   36.11 KCAL/MOL
REMARK 927      BINDING AFFINITY PREDICTED BY RF-SCORE:    0.00 PKD
ROOT
HETATM    1  C   UNL     1     -11.514  16.868  70.588  1.00  0.00     0.708 C  
HETATM    2  S   UNL     1     -11.122  16.278  72.251  1.00  0.00     1.201 SA 
HETATM    3  C   UNL     1     -10.300  17.804  72.731  1.00  0.00     5.770 C  
HETATM    4  C   UNL     1      -9.310  18.356  71.722  1.00  0.00     8.697 C  
HETATM    5  OXT UNL     1      -7.215  19.150  69.910  1.00  0.00     0.056 OA 
HETATM    6  CA  UNL     1      -9.310  18.039  70.393  1.00  0.00     2.999 C  
HETATM    7  N   UNL     1     -10.285  17.213  69.898  1.00  0.00     0.146 N  
HETATM    8  CA  UNL     1     -11.714  15.745  69.517  1.00  0.00    -0.360 C  
HETATM    9  C   UNL     1      -8.188  18.537  69.495  1.00  0.00     0.554 C  
HETATM   10  O   UNL     1      -8.327  18.347  68.170  1.00  0.00    -0.269 OA 
HETATM   11  O   UNL     1      -9.903  16.410  67.760  1.00  0.00    -0.233 OA 
HETATM   12  C   UNL     1     -10.518  16.464  68.801  1.00  0.00    -0.300 C  
ENDROOT
BRANCH   4  13
HETATM   13  C   UNL     1      -8.260  19.239  72.399  1.00  0.00     6.080 C  
BRANCH  13  14
HETATM   14  O   UNL     1      -7.193  19.547  71.475  1.00  0.00     1.446 OA 
BRANCH  14  15
HETATM   15  C   UNL     1      -7.561  19.878  70.208  1.00  0.00     0.751 C  
HETATM   16  C   UNL     1      -6.572  20.827  69.601  1.00  0.00     0.515 C  
HETATM   17  O   UNL     1      -8.529  19.436  69.605  1.00  0.00     0.102 OA 
ENDBRANCH  14  15
ENDBRANCH  13  14
ENDBRANCH   4  13
BRANCH   8  18
HETATM   18  N   UNL     1     -11.432  14.370  69.989  1.00  0.00    -0.351 N  
HETATM   19  H   UNL     1     -12.085  13.957  70.654  1.00  0.00     0.000 HD 
HETATM   20  C   UNL     1     -10.356  13.608  69.600  1.00  0.00     0.596 C  
HETATM   21  O   UNL     1      -9.532  13.984  68.773  1.00  0.00    -0.175 OA 
BRANCH  20  22
HETATM   22  CA  UNL     1     -10.303  12.233  70.315  1.00  0.00     2.650 C  
HETATM   23  H2  UNL     1      -8.884  11.464  68.969  1.00  0.00     0.000 HD 
HETATM   24  N   UNL     1      -9.785  11.202  69.369  1.00  0.00    -0.418 NA 
HETATM   25  H1  UNL     1      -9.750  10.298  69.839  1.00  0.00     0.000 HD 
BRANCH  22  26
HETATM   26  C   UNL     1     -11.656  11.850  70.884  1.00  0.00     0.707 A  
HETATM   27  C   UNL     1     -12.250  10.640  70.487  1.00  0.00    -0.449 A  
HETATM   28  C   UNL     1     -13.499  10.260  70.985  1.00  0.00    -0.172 A  
HETATM   29  C   UNL     1     -14.167  11.079  71.892  1.00  0.00     1.140 A  
HETATM   30  C   UNL     1     -13.584  12.270  72.314  1.00  0.00    -0.299 A  
HETATM   31  C   UNL     1     -12.334  12.649  71.820  1.00  0.00     0.300 A  
ENDBRANCH  22  26
ENDBRANCH  20  22
ENDBRANCH   8  18
TORSDOF 6
ENDMDL
